# total energy = -340874.32465661876 ev
CRYSTAL
PRIMVEC
9.23896394005587 0.00000000000000 0.00000000000000

0.00000000000000 9.23896394005587 0.00000000000000

0.00000000000000 0.00000000000000 13.52215761505452

PRIMCOORD
 96 1
Ni 9.125703686995452 4.446205301640942 7.210163380989029 0.7231194216775482 -0.41577592042501943 0.26577493378212297
Ni 2.5831127473126774 4.377476647340313 4.158482708439366 -1.3042666405539474 0.16179669372624392 0.9474967663494906
Ni 0.5074085305172447 7.4714856341362905 3.67182027191756 -0.5415465737656416 -0.5372859987170747 0.7458873115016831
Ni 5.185645797265485 4.170154291848156 7.309294694613101 1.413788436135875 -0.18994924490105997 -1.0190533955415546
Ni 6.074249369067428 8.929181680592883 12.286408755979393 -0.6580136903171506 0.20121839005697606 1.5975798889656552
Ni 8.628324052061396 8.813750062521628 12.105130116525421 -0.3541290941474998 -0.3336808535954769 -0.2601318765637326
Ni 8.95737899917408 6.826116271471692 7.563389306106998 -0.1085702303019356 -0.5909312948463564 -0.7743249980170858
Ni 0.2135069180931567 0.5766785881169768 9.614484617996508 1.6272635320730169 0.3849015994436662 0.6769388093564277
Ni 6.824305434498587 6.996935479613157 10.869678276557213 -0.9817464315609802 0.14069847829504803 0.3123412115774363
Ni 8.78652283517602 1.218406875010655 5.322118232288517 -0.787567721959605 -0.2108633693459078 -0.7226206276642587
Ni 9.475574020334689 6.817099042462763 1.3794632697364089 -0.7021741868844488 -0.041284974791716 -0.4326991785429193
Ni 6.055401882204505 2.5373429189210492 13.21085119360975 -0.8411063173076934 -0.8260918461767321 -0.31196274519209505
Ni 7.67076085185511 1.034856374272568 0.41146188783515714 1.4305592278363104 -1.2195133101659514 0.7328415340613186
Ni 4.601835652722287 6.062497406670547 11.944487627393519 -0.16250528975749431 -0.24729127315563862 -0.39985462120907267
Ni 6.097041893621758 4.02359660356063 4.798946181141115 -2.5608357179216155 1.7451211012141492 -2.2477429728901352
Ni 3.7029306358947767 8.879245079370284 5.2453664615213365 -0.4155200956604715 1.5956572180216455 0.992613456182471
Ni 0.9493590000424248 4.403549004167356 11.347808529687887 0.3923747678922597 0.4523462633498855 -0.014606437059265167
Ni 0.229273210412558 2.687947273505614 2.124006445260163 -1.4598114398332085 -0.8543513552430576 0.3397255171276601
Ni 4.497731004697082 7.2758782851844215 7.045990683655989 -0.2870577544202991 0.4880182628301982 0.21681213073017497
Ni 4.873137834942749 7.458948359786787 2.2613648969450355 0.17208933390150363 -0.22694793361259627 0.31455698828183243
Ni 2.533259296767416 1.2556953343139678 8.91637555238666 -0.450189879128515 -1.8660663081416702 0.19496289606556746
Ni -0.013928662350266258 2.896877208759608 9.574120507528162 0.3028895792462332 1.5498339890399437 0.29580079072025184
Ni 1.7834804002607112 1.1587970783245858 6.415317741262395 0.4779734769996865 0.2102622454267992 -0.30253810944408543
Ni 1.7450740262954307 2.903861865655868 -0.37623926091544696 0.5473449256149735 -0.5077836183825835 0.20424637825002243
P 9.456079805981371 2.281257310653153 7.577560029317954 -0.6525392974661407 -1.3020832597493832 -1.8114995286393833
P 7.192921626095114 5.271512730061568 7.167541267682791 -1.2280681417144979 0.31218797382902364 0.5552932339277726
P 2.7116729334389413 5.024850865225134 12.722322486329947 -0.7547072237861583 -0.9216073001772386 -0.8904990088082084
P 1.655733242979515 8.697995080705173 11.372959761789327 0.038707443872526885 0.6420520247815718 -0.9549097709841103
P 0.6606995758761911 5.776375925955903 5.21275107028433 -0.47562246026900673 -0.42349000123982544 -0.040328781526033766
P 1.8759809093154114 5.840910090533119 2.601771759306972 -1.1340362142380533 -0.4215189935563837 1.161330016957
P 4.159464810328351 2.6130839470103853 1.1660201004958768 -2.079398707853361 -0.22888294585177998 -3.252321828964599
P 3.0797255482224095 8.866911062232049 7.603523366368046 -0.3203609965581192 0.06722971968193582 -0.6985787562237066
Ni 7.412328546693496 7.24428102779658 3.1444287858435422 -0.6933154509422381 0.9495713894903323 -0.9375489111081595
Ni 5.14843124967536 0.2693721626098422 8.921581708684334 -0.5960174511200123 -0.6986484331193774 -0.17629025935672865
Ni 7.559246554582814 5.112824281847073 1.0021957121112346 -0.15147037209957137 1.084834555702422 0.9356020717944339
Ni 2.2661608432345175 7.935549564350885 1.8969561296217323 -0.22077162959855526 0.8136363940221988 0.8688068685467554
Ni 1.2914039307478888 5.131570140104363 9.004336958355205 -0.8664838768405335 1.5599286542717845 2.3141735937095436
Ni 1.5740146050861048 7.67382818795241 8.645364397536873 0.14701953541706939 0.5452461341044157 0.08028526731431335
Ni 2.1794716426292187 3.3006107030845517 7.9866327210243115 -0.1885366808242495 -0.28229735691717833 -2.4203786662134124
Ni 1.4161299467525281 7.864206283196231 6.018117118486851 0.1787315218083696 0.80595702310007 -0.2053758638687753
Ni 8.711908960712801 2.0641231752352986 11.718599573444967 -0.6342556686656043 0.9441581888945612 1.3661852324356147
Ni 4.375360924550308 2.6576249931702645 9.118572130569232 1.218724752826385 0.3120064539458368 0.3361326575700792
Ni 3.4707831837356227 1.3388275337220974 12.908995756950224 1.5207491558588455 -0.11985351652523875 -0.08119826604688597
Ni 5.615183718457167 4.945229472193431 9.39754819641143 1.4220231653408413 -0.033089840575433335 1.4389232835302896
Ni 1.8139689819507343 1.7224108472391804 11.192695560598859 0.13141859565501882 -0.3659582255719439 -0.8468005394789933
Ni 3.6099219838119097 5.596835135658262 8.42853699572875 -0.35677141686635333 -0.10873375246299337 1.2500096789825956
Ni 3.7428799168728553 3.0843819861532498 5.876554014218 -0.03217581340159619 -0.5777590191304566 0.3732915260085636
Ni 5.530674913390912 7.230117695756942 4.86060702786815 -0.34508318189514764 -0.8005463936074599 -0.061233907109817125
Ni 6.147403487195186 -0.11323551629316021 6.745744674551132 0.9213753866720907 0.0863687545042319 -1.4119161588138265
Ni 7.285283550687586 0.8215758108010495 2.9357547698964614 0.6262991328226891 0.3002410858797926 0.5736259707986895
Ni 6.73742221564617 7.4017591717076225 8.20919382398299 -1.018124198859066 -0.46984904812033923 0.3672915996713868
Ni 1.3406383706952016 6.867700849104054 12.628735475091386 0.18288308208289794 -1.1181699366297584 1.442197069185555
Ni 2.9995128614852034 0.9188953635556028 1.836985089437457 -0.16816197382263942 1.0020139235607646 -0.11165478276453028
Ni 0.5609446321720953 3.365893223757795 5.150075785293792 0.46588543548690087 0.08863595327185379 -0.38167512208656845
Ni 5.379165140319795 2.749672792981688 2.647422405061085 2.3374778156531226 0.08829476788235117 2.678730825168903
Ni 3.59111145280558 8.216220056217919 13.530406637784955 0.6316097464023251 0.20573299009787796 -0.8845931848467345
P 6.387089934099508 5.276390903131972 3.045879526960825 0.45985337036020807 0.6539685737134996 -0.7803110403971917
P 0.27622100673311917 -0.08133152529558828 1.846382963769303 -0.9430754973533435 0.07574829867590825 0.9026685542912068
P 7.815812588986431 2.8344587669723977 3.9935533399425647 0.7296543945825885 -0.643332434155892 -0.2498721465089374
P 2.6501506711741345 3.7291046213274535 9.974822697715986 -0.010075639068447164 -0.024217477786467972 1.3105154496771365
P 8.126121677841827 3.114085255890651 0.3417714573666686 0.41540491023884585 -0.277085987919568 -0.5792145206300605
P 8.06459941557702 8.415717009076301 5.177228177029794 0.043361911925402744 -0.10881319955067711 0.2892992421563082
P 5.373945125575896 6.96199371720356 13.67522832470898 0.5642710119463508 0.34982043946981684 0.5267084803115445
P 7.132563473313016 3.4133999774093398 10.271512629520089 0.34222154407663646 -0.15053706165202463 -0.5410308104714876
Ni 2.1681539115473165 3.8384292840965575 1.6925680691431368 1.7901675999308266 0.018719430786374214 0.8742378097543396
Ni 1.2698494273894574 -0.11924731026458384 13.491557717436962 0.9196033823733324 1.5457204810922025 0.32516793102845937
Ni 1.578828105407469 9.476405527108053 3.68407113837846 0.11950873159131031 1.5460562671650664 0.9444320113812379
Ni 7.132027613392404 0.653833177721032 10.450924074319651 -0.2977142056928808 0.5128510056031619 0.03392956286790931
Ni 1.922619200336998 5.722420375328711 6.909674387127067 0.5074761144444937 -0.10965009362967566 -1.2825343910831783
Ni 2.6101367174470163 6.875480056917084 10.638030652358491 0.4281519254918691 -1.1288400147490945 -0.5986590025079174
Ni 7.39393376907385 3.1987049285266873 6.203033138126084 1.2896468337582436 -1.9264643496137532 2.337552120534484
Ni 2.9737176735826147 7.049754637650085 4.140524933823943 0.22917193784710857 -1.3738900572790402 -0.030009658988212833
Ni 0.4525817455708497 4.628813428035883 0.2406389841080326 -0.22046566832236228 1.1277616940832513 -0.400917001035316
Ni 8.053087666247999 5.5097578985587266 9.34875999843249 -0.7699543797532159 -2.184686667859599 -0.38609587686208346
Ni 5.455830064823981 1.5802693838146338 4.935601547654287 0.5306636083045505 0.40744246085865954 0.19566455011828238
Ni 4.018949404593939 8.754823949182546 10.962548344177852 -1.602024297890254 -1.9316636344265055 0.34531895205503754
Ni 4.2611580887108005 5.128096289584529 2.8907536233219875 1.2005285415333324 -0.1704170884054033 0.0869030297411471
Ni 5.389642125664184 4.516116543352581 0.7570019186779956 -1.6720837737115009 0.8781255748445199 -0.04064579854582032
Ni 7.309360291258556 7.765617296767675 0.6581357633249847 0.17987694826672246 0.12895445038524245 -0.41128857407762714
Ni 5.4965923746471255 0.3935669381759434 1.3825592466225685 -0.575758186650344 0.6287938742200848 -0.12087887246595956
Ni -0.03783448208448883 6.900526888723644 10.724734635306428 2.827104817731338 -1.021069654640635 0.037380240420671104
Ni 8.761688499544874 5.109941725032743 3.4086114222911768 0.68030644027708 -1.369582688152938 -1.3442766052879815
Ni 3.158894232010836 6.043169493671901 1.0128122058142666 1.3662713643915179 -0.410026676646068 -2.2067086806566447
Ni 8.845005478235974 9.127727020143972 7.345763657796444 -0.6090807120618736 0.7834986940965538 -0.0937719889468385
Ni 7.263036125018019 1.9002793850259447 8.412905592285915 -0.19005594568225334 0.09445204573299862 -0.48086776782834595
Ni 4.8744682457801325 3.665365007667009 11.3559351225529 -1.3580700595276483 -1.1828578637264469 -0.24079435257738527
Ni 6.871405673727598 4.622263002454603 12.080573873715144 0.8604227582481182 0.3881545591633251 0.31472436709763213
Ni 7.661780578702776 6.156919620268132 5.1478177824559 -0.11317199074000509 -0.284518018717581 2.1411051837242225
P 5.28454890847509 1.8016903985973884 7.289240599032386 0.2630354233637728 1.103527761236551 -0.9758395791582419
P 3.902483022538051 5.43034900170244 5.9086963704906035 0.20708076237502399 -0.2601655580151455 -0.48702941655436766
P 8.32544309038139 6.262428590843909 12.57333495047137 0.14400517407077779 0.4929231563309834 1.6016021227511708
P 4.897196097585422 7.035960864176387 9.592307408454468 -0.7611156984156635 0.5337787568947646 0.46067278093770986
P 4.922279885248577 1.289981130269021 11.016285855251141 1.5551638858932892 2.471236115184912 0.3214007506765433
P 5.262255287984779 9.016933362075259 3.7629598815531873 0.6987793022702868 0.7517311718769699 -1.5040565256945129
P 2.552577970801912 2.142691326354073 4.36750780502409 -0.9458921408665322 -0.6750475058709858 -0.2600344317539199
P 8.245359749142262 8.193935674691756 9.516286439751433 -1.6625601504917822 -0.05804342519697746 -1.9615655641922605
