# total energy = -381174.3118573357 ev
CRYSTAL
PRIMVEC
9.23309975868475 0.00000000000000 0.00000000000000

0.00000000000000 9.23309975868475 0.00000000000000

0.00000000000000 0.00000000000000 13.51357479286302

PRIMCOORD
 96 1
Ni 7.770844557186888 2.010525949101753 1.603358250657406 -0.2830221508983448 1.5151122692880423 -0.056223084158787046
Ni 4.656372262800582 2.691180833749573 13.236370601264662 1.0408977451101558 -0.6002173481339727 -0.7086554237334183
Ni 2.4520435487568504 2.52000839643374 3.2357712197864377 -0.3623815639642792 -0.42369208994830254 1.1764349909192384
Ni 5.097289710968246 5.824156260148444 3.073243733819588 0.3654861710315318 0.6837941417153643 -0.9150443022477401
Ni 3.24539764964487 8.879924505963949 13.117748351498484 0.15809790471841806 0.4420076004280387 0.9576999321347377
Ni 4.2075235818989905 1.6038171357177975 4.587885744984616 0.27743077285349643 -0.37737186672552425 0.07442906564385247
Ni 3.59799126506194 8.421427235764389 2.2876454367691696 0.6744561521438901 1.0545778137004096 -0.7877263590246563
Ni 0.14947095953023917 1.573135545060237 11.234564391620328 -0.11268348113936077 -1.1779390862685906 -0.31759834621131755
Ni 0.6567088402992245 3.7080221154580126 2.053239192117384 -0.36136880642904856 -0.37855663106224485 -0.20418107222972576
Ni 7.243089805337505 9.127510077279775 5.230929597569971 -1.1040463527441824 0.16939610334005664 -0.3689731011388678
Ni 3.4711931054169565 0.7561622515567772 8.60932266345006 0.07579920651850171 1.291473602554337 0.5814382677542567
Ni 3.7547877659787905 2.5628961450357166 10.127572970019536 -0.058476656079654125 -0.6942536464857914 0.21475499109083016
Ni 3.641432999652317 6.3410805859246056 8.215185638762865 1.5765163834271365 -1.3887232656371309 0.9911800661700543
Ni 8.211900501851654 5.696323993325114 7.295911446021477 1.1851865118596234 -1.1518274767832033 1.3888052838279759
Ni 6.267686675561395 4.312688588696949 6.631138416351107 -0.7976546738819618 0.6053626397803381 0.5085888878926983
Ni 4.076792121736366 6.665097757440035 12.39346153040427 0.3550210098341499 0.2440984772499538 -0.660009894811573
Ni 8.125164762267806 1.6847267893236364 6.6423815619856885 0.08313224984480522 0.3328820118432654 -0.595277230519878
Ni 3.2256018836593725 4.655541283817982 10.25262792042102 0.22578990874875304 2.943340277888015 0.7079848800289549
Ni 5.709628890146524 1.5713627898973566 9.065149721185533 0.9635275945601083 -0.5921343140155221 0.4822132261126469
Ni 2.6879492488172394 2.6888171601990662 0.9164045453214763 -0.5512005519156378 -0.014825752158922853 0.24928850609132552
Ni 1.1805164419812577 4.316603423014976 4.400966255948509 0.43141928338923113 0.9373589065845405 -0.5921474266416447
Ni 0.6087927455425359 3.7972138595904337 8.81029677701188 -1.349791364458624 -0.04458421436827805 -0.11489385852711827
Ni 6.083837192211004 7.054199049492674 1.2144434672208624 -0.1757456997071683 0.9090718867143892 0.7212823684688093
Ni 3.1264845572347824 4.654017822349882 2.215861779012242 -0.43155195231235355 0.009213805288784132 0.7376037313366522
P 6.056525682982879 8.391096502899481 11.99683803193914 -0.46555324895846273 -0.2707803574165143 0.39019935750749574
Ni 2.826187219122685 6.667978484579716 3.868936578888637 0.3811670721018984 -0.8435020712333795 -2.242408962271732
P 0.8992226698912462 1.5309310458439538 5.490876442906964 -0.04143127056159316 0.3163541893915713 -0.18961114483535085
Ni 7.922073498920318 4.697819647832719 4.947562994573363 0.697481923615102 -1.2158039796351643 -0.3345761117162367
P 1.6530757231863757 1.9644897134657024 9.389893537655748 0.1873912543658966 -0.569449985044129 0.6630288841435549
P 7.0057160424078555 3.5839477202559964 13.024464497531747 0.016934828082125673 -0.3152468152600055 0.7944207403256963
P 6.932257500345997 3.685068629338634 3.4176503596380843 -0.28119718187446413 -0.467701148539401 -0.831256163986491
Ni 1.1117483146211884 5.96233883185505 2.440051598727949 0.026798865360399007 -0.54283906732482 -0.40963304075207513
Ni 8.386766179090154 6.818875034720104 0.3581020827617283 2.477430674031398 -1.2111651953115723 1.6308139684284366
Ni 5.28143465351245 3.3200380284819815 2.0226850182371554 0.8712098215612931 0.18663020783015602 0.42227978298180824
Ni 2.9305951117364963 4.2617588101633626 12.46393501129863 -0.45804948438224985 0.5753347259596802 1.2745590861871856
Ni 7.30973431974204 0.22630881612133727 10.501236519195423 -0.722189196553795 0.9196812867991194 -0.5563309311636676
Ni 4.636087142525331 2.488329630997059 7.31769509839535 -0.3114220421972766 0.6430987208785311 -1.2418739372493386
Ni 1.2031652358070166 8.0779466898565 1.3875742450056905 -0.6329855437039292 0.3087074714795909 0.3547464160165245
Ni 8.321432764858164 6.989973607237484 2.702484917842878 -1.0739670168602988 -0.12784373381956693 0.6361845102572011
Ni 0.24500399660988031 8.680351053642802 5.869121456206922 0.13364182855858273 0.04187787118070852 0.2505408904411878
Ni 5.507599433276803 4.386710349847013 9.229988252033992 -0.030375012747431554 -1.7460371852705157 -1.7366662855785768
Ni 0.37568190479362573 3.6490410738930117 6.4692590939906855 -0.7902753506987551 -0.3197295336217074 0.16352036128557
Ni 7.721419773921791 4.865843598114479 10.142843593789785 -0.6085117269322811 -0.40830789418274843 -1.4910014922827677
Ni 1.2321756353995699 5.9755606307782 9.620692410213067 -0.3315560939429903 0.8683039607684079 0.7896202336132595
Ni 1.3834692088316456 7.453281322436321 12.529368143008531 0.07636973430999106 -0.7496436932203219 -0.57748982462947
Ni 5.399581398638584 6.470713307210236 5.408538428761034 -0.20290169129666993 -0.3866530349171341 0.2647578053715182
Ni 5.1240749335073925 8.357515718902627 9.556367250479967 -0.23818416864804784 0.2802445881532077 -0.15628939075476955
Ni 2.796142712351785 0.32185477954070774 6.432110640228534 -0.4141712949420609 0.5032764745408493 -1.0391097999717975
Ni 0.48276277980146765 8.393053920058495 10.272073751923845 -2.260530611573107 -1.032938123943447 -1.319653664532979
Ni 2.330720617297222 1.9343528756967352 12.245244425827776 0.39100488412792656 -0.037398238142800105 -0.03028219592330914
Ni 5.3985380583604305 6.232924054789287 10.45120973782293 -1.3121344733377984 0.8858679377941001 0.016917344580628928
Ni 2.5675219280388575 2.8394367173452553 5.984094784929503 0.5637038265889711 0.25512053939207036 -0.8121063305309175
Ni 2.970214343006912 6.67320441907029 0.8676879408115495 -0.3182436931048003 -1.051447238491228 0.40703391256633126
Ni 4.414982101455032 8.51311191684461 4.467385482717762 1.057903535639533 -0.15202521616177686 0.4371199333184343
Ni 7.091648502308522 2.7252694382357947 10.91845537008931 -0.068791664852417 -0.270100043520038 -0.23381586437702312
Ni 6.239184096458208 6.613364699223269 7.996833908054915 -1.2239368931549437 -0.601721443483325 -0.5111219387271971
P 3.464637604554222 4.962311024894555 6.271907125483023 0.859366549069462 -0.36960919206096987 -0.052890420241128264
Ni 7.378465514702882 1.2836686330213622 12.76423327272071 -0.24260672319577575 0.2198763714777955 0.3356410626456413
P 4.1934708039932405 1.5538199002646855 2.211793675237424 -0.554138037277407 -1.9271364359801129 0.13519606041958007
Ni 1.9747199880514914 8.994101018173216 3.9865856599351925 1.6779556591112457 0.47753047592499687 0.705193947547379
P 6.3938292851201055 7.660647510994297 3.527583339176206 -0.5825716100277515 0.12539064429338403 0.5741193654953402
P 1.0009418838413555 0.36774143895989053 13.202722415639219 -0.07377934787499552 0.0900001806092321 -0.46951557604032046
P 0.1519574333081751 7.421630256299061 7.803413393444933 0.09632458016536315 1.391632725974442 1.2304528398965904
Ni 2.7595981033169896 3.9536318034152105 8.194199726212288 1.4878359500705924 -1.049741825764347 -0.9923046666928007
Ni 7.407780606589056 8.874846301070281 8.03880665646605 -0.32838720929670545 -0.20968811809088403 -0.47434847865258944
Ni -0.007165808759955687 3.0967724420569223 13.319276451048705 -0.18995644398991154 -0.13975565476580448 -0.22943830413461774
Ni 0.9019150417948709 3.772025963317841 11.059252755661165 1.2923338936721034 -0.32342960818111394 0.22532222508371516
Ni 4.498606286404032 3.9759389725481222 4.326613949825366 -0.3467860235188672 0.14088411194329284 1.423985945494167
Ni 4.670120348412712 8.168458767261274 7.168897231841017 0.7737115328028029 1.079826303854553 -0.27588991072893776
Ni 2.361411441054589 9.192483400619302 10.933495166364393 1.4241486963242762 0.3441835528990137 -0.5945958881821373
Ni 8.966780275845284 5.519491665827792 11.799688268317244 0.42721527261021264 1.8629850981131852 1.609894187556634
Ni 5.463225155605953 0.4918721560707271 0.5721742717092874 -0.40538994920500504 -0.4357731894825527 0.1959360586121142
Ni 6.718760533516395 6.196601040149852 12.621597576977347 -1.3967119402695625 -0.13448643594706514 -1.5955219779953618
Ni 8.421639597059942 2.0124372007617337 3.9268013386870115 1.4031612954393318 0.7464763512359338 0.5115819090827513
Ni 2.2662458813472535 8.162198725592354 8.514916987856815 -1.1826974268891826 -1.2856834782351214 -0.19477366287289682
Ni 4.636982753206578 0.7639097456045532 11.286132177350554 0.9857799782004054 -0.08440057503426755 1.161105816761336
Ni 2.979789067506428 7.138644980324466 5.94137877198393 -0.6013190658385837 0.2107805798241144 1.3866710110937925
Ni 7.7435330479587625 8.995412118345763 1.145528533573867 0.6358896047246017 -0.4990786344094179 0.3788973022311152
Ni 0.5101841629172934 0.5655430594281378 7.818522437968565 1.9757261719633588 -0.07132240169407073 1.7212219259990487
Ni 1.5437927538746432 5.742572590256718 7.279005640275465 -1.3840759966731067 -0.05393248835239744 -1.0898476926462972
Ni 5.510969514706237 4.3232327886761635 11.63113433810658 -1.1157027060361882 -0.5740484030480888 0.7051931762164307
Ni 4.7475029578924035 5.071935618899133 0.5804203531466233 0.7293641170356794 0.10176760555780538 -0.9263229604853531
Ni 7.81749017741018 6.847931599811692 5.5036735192390065 0.013975745453801735 1.5299089679812425 -1.6454512587256371
Ni 9.142523097565418 9.054697852204384 3.3905558282554145 -2.713850294579855 -0.6208489083413953 0.39570614625833783
Ni 6.503712405919271 2.3757596781541523 5.219226643565018 -1.6962122913285884 0.5051004151234656 -0.3592211639584265
Ni 0.9325800128727795 1.0481137907536267 1.8727247044171627 0.16981493604503015 2.216258786238925 -1.2249131410252843
Ni 8.175392825216084 1.8428897890118736 8.947148859036345 0.19080902179819398 0.265099247871337 1.1891534669271715
Ni 6.277362964158784 0.8155661690929232 3.228028342288565 -0.6983715253089069 -0.6951363062010609 -1.1491051927560338
P 1.0243662580508743 5.110077554200483 0.03812531572169697 0.4236486383048768 0.21475421975988176 0.6168840101563763
Ni 8.297768330053673 8.275553491918828 12.214474197412072 0.4219347409375636 0.6343765105141849 -0.1462857425748384
P 3.0845847503121195 7.058917163493881 10.436818105154275 -0.010011361489415015 -0.043497666172318636 -0.3400708162822208
Ni 7.308100061076259 7.189113103867718 9.906356208441577 2.1830452756014336 0.5385540667962209 0.7857728348427113
P 7.7301265870394795 3.7575946283200174 8.144604130600767 -0.8878353459331162 -0.41744045261163587 -0.05856330225618946
P 0.8157175919297526 7.017672906657491 4.767197159780029 0.18171991501273219 -1.495519177647463 -1.7762175655086379
P 5.720487015519166 0.7241898735462445 6.612462625372158 0.1986215758640773 0.41023982109813867 0.29510247910164666
Ni 7.298857728169785 4.832373611315304 1.483006641297439 -0.06144679445157159 -0.43282490548750613 -0.24124326718934583
