# total energy = -381165.65789045 ev
CRYSTAL
PRIMVEC
9.28698332343333 0.00000000000000 0.00000000000000
0.00000000000000 9.28698332343333 0.00000000000000
0.00000000000000 0.00000000000000 13.59243883650651
PRIMCOORD
 96 1
Ni 8.917184888846 1.201243425789058 1.9239416051470892 -0.6076316383201729 -0.3202419544817517 -0.07704079223508667
Ni 8.984859135977553 5.851951049749159 12.596588292040268 0.3535791351813007 -0.6032173113025612 0.04849563360754229
Ni 1.2285750175700596 2.642611091160031 10.612269222521508 1.05345475583956 -2.1040437600955504 -1.2508833398368007
Ni 4.034033360473162 5.30057356567514 1.6358092342186885 -0.9321241405481624 0.020631303097106403 -1.1249931301991785
Ni 6.277749945966331 2.668141008185506 11.838226239506088 -0.05182109843634946 -0.3689409623493517 -1.6386254940530554
Ni 4.2841875419930595 8.382960462882586 6.392401469300744 -0.17649620471994765 -0.006592308505537033 0.02467307726664783
Ni 4.9190364317509525 6.62881648776226 13.182218956530823 -0.12929537866442894 -1.8585347756513153 -0.012646485119416932
Ni 4.400832051938481 1.5305319918029792 6.751663773837662 -0.899176224867232 -0.7527686120025487 -0.725666356469118
Ni 3.212683272568456 6.246007037129273 7.311046637495515 -0.6388083210332933 -0.4223538307528532 -0.4382661311077355
Ni 4.871802834809677 8.18198085780863 1.4264852746713277 0.12235005769484734 0.6353098209617317 -0.18718505189236148
Ni 8.011118939498449 5.954210022600198 2.711175031289415 0.2706361185291662 0.7034425120739112 -2.842167111381099
Ni 4.2774359051514725 8.9636383791921 8.760449400796805 -0.5245580096274449 0.9681010728634037 -1.7300228121201302
Ni 1.7577194636815516 0.2005041115302296 0.48181519324247485 -1.085442621600066 0.2449536261613975 0.30524753795544846
Ni 6.020036160059844 8.554806801420014 4.3648041290179185 -0.6741885003048003 -0.7975952813989361 0.8699602654249082
Ni 1.9972864842669116 6.313449109678927 5.154225568420048 2.7476217346033454 -0.8618456067375738 2.123911959774387
Ni 8.151231656182093 7.2582417792870215 4.620722741057172 0.313726264850421 1.997201311117999 -0.4201902474426312
Ni 5.345634008529853 6.217347406739815 8.11805669452389 0.8617515043618708 0.32916162556888473 0.23128667019726615
Ni 0.3174903824602056 1.9882316755729 4.604384151379865 -0.045530380331631266 -0.5901897886946416 1.0176256619560926
Ni 7.236528812387945 2.8734854953991396 5.520772582638591 1.9544083843221889 1.5393729416076198 -1.9759989660087713
Ni 1.7526487708129053 8.682558543363424 8.930218241175412 -0.010055327353473005 -0.9653548775768344 2.2363103055731615
Ni 3.902715416951803 4.312577849867514 5.611529626702415 -0.32237442744372224 0.2511209313143739 1.2713542060966427
Ni 2.7335770923475637 2.306552314337972 4.811981660736234 0.27705822000542607 -0.31675322460220284 -0.04261346379515242
Ni 7.400648380839818 2.4921155271739184 0.3469338342381489 -0.29238945104585773 -0.5020215190878257 0.10174729384283122
Ni 0.09363136538771896 5.2950570976092495 4.1334746625982905 1.1809022826619726 -1.8295903247028233 1.4322183607062882
P 5.948247779337064 7.952759536592634 9.32416835694618 2.684711982453002 -0.5327649709182696 0.027791054070339234
Ni 5.8355409503006275 6.524997301720868 2.5788930989040164 -1.2201260040492856 0.8914649722659034 1.871268164057584
P 3.7403139404059744 2.6519909442686993 2.764266857281134 0.37433307989920045 -1.4062931562000942 0.2655108814874588
Ni 4.218881475596864 3.9840879644153215 8.674327490085986 0.7133507723265585 0.28285811451665477 -0.6857697773844964
P 3.507832888060134 7.3161368330290415 3.3916397255019204 0.4927778890023707 0.4692255556037274 -0.1728192700889927
P 7.663702182129952 4.666653374244837 10.969438241028037 -0.6382156817546171 0.6438073169097815 -1.593191272979656
P 0.4592561821669632 3.424426491259191 6.373317647367077 -0.8603181143494538 0.12417914048378616 0.15283768476074322
Ni 8.724944335034676 4.442103405616623 0.9491668387310483 0.3751175234737088 0.009250829174306648 -0.6677730836967596
Ni 5.263546363354089 5.504227821932559 11.035796522629392 1.2879419352519947 -0.11268939467663175 -0.6928071438472521
Ni 1.588185583979825 8.54144283248598 11.692229290218828 0.13543851544768934 -0.6882336655439567 0.9169091233706209
Ni 8.771212085715257 8.095584052392844 12.942366825558894 -1.1618275254187087 1.8876468625259233 -0.9128588645606471
Ni 0.3293210704553866 7.9258644330256 7.358919178886174 -0.159365458576932 -0.006688210653452998 -1.5910143199329956
Ni 6.698153104900199 4.666969131676218 12.883497567271231 -0.15865120611872677 0.924269420390434 0.5797660222581563
Ni 6.8080924129204154 5.439441826599813 4.60007591983817 0.6632186315568579 -1.8104235219663853 0.704749918031425
Ni 2.6869842972523257 7.3188021972292265 0.8680784729557727 0.9950652601570733 -1.2176194355773482 0.8760118709356268
Ni 9.225243411091192 3.874055786562346 8.551723522972413 -1.2430358187679238 0.04334648530643503 -0.430305224389446
Ni 2.70402591156362 1.815855978988745 12.575996264022594 -0.6711283733222377 0.5413300868794613 -0.029907586192709782
Ni 5.324515408560434 2.1263105429191214 4.722529437822675 -2.8065881858352246 -0.18714519979336156 -0.8231602743522338
Ni 6.25838658583606 8.520417102349322 12.951868338148476 0.1484632098421314 0.8895173616212293 1.1651010539636582
Ni 1.5564705360925941 5.363650756085116 1.9244579614172297 0.5292525868896368 -0.7360695540803129 0.6976950680671726
Ni 3.699414066058869 8.56655483526404 12.90574917920031 -0.09038764585563788 2.6997961304796343 0.371872791284166
Ni 4.133710551973499 0.23946764986430766 3.2045943101351386 0.11227878950177436 0.8727452843692131 0.16439685035325238
Ni 1.1174005407741476 7.218883544163718 3.446797905272529 0.00480307781559818 1.8691878844897873 -2.6814824197721108
Ni 7.260322063540825 7.479949931032808 6.706264356093379 -1.2162040432870602 -0.11996021730643212 0.3101524314562336
Ni 7.308660811491934 8.659220354391064 2.277834175953877 0.19896996034243153 -0.643386427322279 -0.09884169016026202
Ni 9.21090430891319 5.970304364617349 6.2377193332538505 -0.24131140142311988 -1.4741098587337518 2.0880155029880942
Ni 6.370071846712147 4.425730454101195 1.731037960729864 0.9809779288260718 -0.35497832952167246 -1.4572411080028709
Ni 8.95076662037169 3.3457936038620657 12.02595053335034 -1.1902274167176405 1.205214377044776 2.3601246065183608
Ni 6.312176792970127 0.45000170333251943 7.181619523769132 -0.20276902237354755 -0.9210629976379943 0.5624984934269602
Ni 4.123011947239651 4.008921357695104 12.640193464615647 0.5185619399450101 0.9200286428362091 -1.2944157159017966
Ni 5.949761557611037 2.0312396951236367 2.284087101793547 -0.8559369545626226 -0.47257518880225063 -0.8728265312291097
Ni 0.24365515062341522 1.2726046052811462 8.295900566860901 1.1287294573131594 0.938073930373694 -0.7351768670627146
P 7.341416001506067 3.3234676960667793 3.4023504033140264 0.6300328888335085 0.8893564105633329 -0.745383118171755
Ni 4.9832652080871425 4.3124292581351 3.468355779550898 -0.6424844843333 -0.5050523354943496 1.4316948841026507
P 1.8572294894829213 6.304515031767502 11.801444213543522 -0.9063969109853874 0.8540770185357485 0.8783428330616486
Ni 3.1053164589156665 5.139267953155868 10.601314297049246 -0.4617112495045533 -2.291242695944983 -0.10325550295724152
P 1.8827594065083963 0.21410582723612656 7.1111563955598225 0.5742690036993271 0.3090769390038677 -3.3760826509640434
P 5.466355504133399 1.1930337325731541 13.06222463171778 0.16031393853313036 -0.5824014029984744 0.39180218321824134
P 5.510190065195691 3.2574651059248914 6.7958800299125945 0.32394665702684855 1.4049816364775223 0.7314317981979854
Ni 8.8209253071912 1.1664172385043976 12.385810919610227 0.5702614252018308 -1.4460992324534385 -0.06323216848676852
Ni 2.9468712372453756 0.6662881142418295 10.496570127473573 1.0111192282961423 0.8244946768929412 0.14153305838120142
Ni 0.3549039232855344 3.4095301700846323 2.894319913680315 -0.05676790091866352 -0.03662279342935628 -1.3202892412344487
Ni 4.232115426765035 2.4738108831371006 0.6177691988151683 -0.08853773713109268 -0.05310176492098597 1.4548903483825073
Ni 2.072306735169708 3.87046172403457 7.78706768187215 -0.17387470793670054 1.434823145318987 -1.0399659773245058
Ni 0.7199241574535169 4.8134434319038615 10.565239939212303 -0.8520278493162036 1.4325914277749907 0.099125539949268
Ni 9.165481673710715 7.295203972725141 10.579552109138808 1.211904387470442 0.5574264782206916 -0.8238752981413876
Ni 7.544290151168309 2.4600011390058234 7.5458420060737135 0.21177662518879659 -0.7678676724275163 2.7591132801827127
Ni 8.36512945499284 0.7329955864143595 6.176403883571314 0.5656393530487871 -1.6657264640349054 -0.4190306799168912
Ni 5.32922390908132 1.7022483125745447 9.45303825167601 -0.21300664094115573 0.9812355533628327 -0.0763908173559136
Ni 1.803225681733508 1.2730225195285623 2.759482203497386 1.147502109934972 -0.008828911145539634 -0.1653808115330765
Ni 1.0730180476985767 6.029564604900926 8.625109264818649 1.2353939859519498 0.6122200290218037 -0.6493570430834171
Ni 7.12899483303619 6.669855666858504 0.6632484846156244 0.5397110632187996 0.13492095238132248 -0.8083962286691819
Ni 8.023154869824026 2.2459733224292147 9.957086482881012 -0.20594279211583888 -0.5167056034625617 0.7691465391399399
Ni 8.041329496094981 8.836991788258523 8.722404345108714 -1.5708334741097465 -0.44448665809615057 1.1937526562620795
Ni 7.181754185026631 4.840440692286931 6.970488317276279 -0.47416618743845435 0.6052114589144545 -0.7925780306900028
Ni 1.7776679037582053 4.331848340165026 13.103599999608612 -0.16501108689848357 0.017381685811557163 0.10749216674640844
Ni 8.045564360468795 6.202023884334566 8.7014306220784 -0.837892438356086 0.2267805547967965 0.44922057323671016
Ni 0.5174437758821737 7.222096840377182 1.0067006288236349 -1.6133224965118924 -0.43158949041850836 1.0844445193528551
Ni 6.583050234178578 4.05519839535896 9.036308094627763 0.3347452903042493 0.2515425922328249 1.6904455640481404
Ni 3.213658405812426 7.0841294168302715 9.531616345871807 -0.6024650065175688 -0.8425109109647039 -0.15251295443147284
Ni 2.818367249656617 1.817991985142204 8.17336439472524 -0.6294209662811224 -0.5102050833398827 1.9675860593547274
Ni 4.602517467741406 7.981252001283123 11.017419440123025 1.3652100130065392 -0.24786385782965703 -0.1110531446247894
Ni 4.917392635711116 6.436520212051279 5.2513024046031305 -1.0929705545459951 0.6793643880787849 -0.5416604736356865
Ni 6.700474850719177 0.22038475662896895 10.847962642382486 0.36406177988017946 0.24830454491150136 -0.14283095125701853
P 0.8965384332047971 2.448559575609903 0.5605762410088075 -0.31278446976244195 -0.13961758652604342 -0.23524334085216903
Ni 2.453258789147513 9.033002857279866 4.817486055723865 -1.0903128052081739 -0.18057294589248254 0.8515691645122302
P 3.3614886055983524 2.8410460628163876 10.270365218425594 0.6789470980357082 -0.30146647364646145 0.7223563182592785
Ni 7.183964487046298 1.1616158681507525 3.9563644619400766 2.921196394801124 -1.2836862452994342 -0.11618969452040635
P 0.31223580732269607 0.3645948903339459 10.284990359688495 -1.1025767101771913 0.46277594332364175 0.9166761814242084
P 9.31354404807854 8.989966976779304 3.9867570434088178 -0.43918118672283724 1.9814239936790843 -0.41170432145880703
P 2.1936597456360167 4.341302489139903 4.118604344976904 -0.4820540748269634 0.4120586194744323 -0.8210586546281988
Ni 7.12740675889601 7.013260447451807 11.45120792805246 -1.2057854190568977 -0.9815924224816192 -0.2967940078714566
