# total energy = -381166.60599955486 ev
CRYSTAL
PRIMVEC
9.30214125495665 0.00000000000000 0.00000000000000

0.00000000000000 9.30214125495665 0.00000000000000

0.00000000000000 0.00000000000000 13.61462400148147

PRIMCOORD
 96 1
Ni 9.006174806781921 4.470199683786942 10.024556462658788 -0.585471814393682 0.4802116223015859 1.5956325354312972
Ni 0.21342739352924367 3.5051862714151456 3.9881729680780813 1.6185192102214836 0.9473517561311944 -0.5061545674195929
Ni 2.8260090485476006 7.677754650874502 11.00487747830604 -0.24066425475742426 -0.34256092969392615 0.829736384907855
Ni 2.774214727304445 7.183355157384478 5.682975622435937 -1.084884949324383 0.06652832273953704 1.2992740724353624
Ni 5.012142420070387 5.991816006702099 1.4731298430215116 0.679900463087913 -0.37587882711976556 -0.3326758093697303
Ni 6.449053446785801 8.6103873103283 9.284655793375439 -0.7054914241831398 1.007900721358845 -1.6243453299849573
Ni 5.529853078976243 1.944928854670234 2.3262766376063007 -0.6857299252854965 0.660967630739152 -0.23217807166328402
Ni 9.05124368006193 0.9250756000827589 13.573589306022882 -0.18226910264798285 -1.1958612179646502 -0.2164066677616402
Ni 0.10017103587267262 8.935766901342006 10.107128777920842 0.16870293392777394 0.7587410275358998 1.5320154728012843
Ni 1.8492656363396651 0.8689083423424042 8.951165665599536 -0.3425843267326939 -0.8654837177107932 -0.9028541879394515
Ni 7.594165611598103 7.23729827320507 4.984858310221555 0.08944507943671047 -0.18842303806452065 -0.919590526857526
Ni 7.172834435881962 4.072588967691858 8.24482526071652 0.24250053663521462 -2.018257617567666 0.029100516910382138
Ni 4.339058099576094 5.306564485743358 6.089643833249854 0.9570381301810228 0.40515752147922485 -0.8292627877055461
Ni 3.2163733967819765 1.969626039099217 2.990234627538155 0.6595447822496965 -0.4274047629131994 0.5329778582600241
Ni 5.898785294282417 5.788647944512489 4.1586821433329595 -0.21235152385566008 -0.8646380818810463 -0.33308178655889736
Ni 6.702471674807942 7.319045488557952 13.453739590805757 -0.10581863569872743 -0.08625125508976113 -0.22272026868449388
Ni 7.033534873989676 8.581532068859861 6.805051965206832 -1.4098690464768107 -1.0722176382693598 1.8333333366850233
Ni 9.121130665604284 7.906884988672886 12.3694978462375 -1.3780225913901751 1.5301611932013646 2.4151030196367693
Ni 4.99033820150107 3.2021597252913985 4.424630355319635 0.5572763257960724 -1.0136425089386285 -0.3733678877724537
Ni 9.021123347413702 8.2218182753123 3.0471432659184305 -0.7680121684251805 1.616874732639525 0.7936645788859621
Ni 6.3923941057850735 1.2877697996156467 7.940320604383445 -0.5012147069158142 0.7544210600043072 2.025897393501111
Ni 1.5736524998250376 3.164560471256766 6.755657596348866 -1.4161931889226256 -1.8741956221170237 2.3626052068483694
Ni 3.6040401241182725 3.3877281366562877 0.8380056996337321 0.3693525959654736 0.18228787170106026 0.8541515805274257
Ni 3.7211819860821826 0.662155235000654 1.1163173872605434 -1.0773019947708027 0.7140603967990734 -0.9910368557239706
P 3.121110170515606 9.290094755234433 12.494915823073903 0.10600401223665613 0.20979816130618706 0.6439605546581941
Ni 4.980217472062752 8.74983570647703 11.110077251618376 0.3441748111482653 -0.8423841555788524 2.8248275916613865
P 4.668791092590843 7.369816574288042 7.73286146453768 -0.3860701658304706 1.3673034052004582 -2.3823759617173934
Ni 3.6518252225784176 5.120428643775769 12.651402950943377 -0.047205968261841286 0.3173160390842083 -0.46488064837147036
P 4.281366220921272 3.147277093226992 6.556244808492204 0.48678259065088425 -0.4262284832169111 1.4857793246518798
P 1.0434769719418424 5.809094050491738 12.87464131261471 0.7009544555447348 1.6168420796293768 1.435476719742586
P 1.3403175942820589 0.44032707790914494 2.546874121439823 0.9940455606433073 -1.6188277426008377 -2.4542845749322377
Ni 9.141120966673165 5.247430775229217 7.8112273516269335 1.4343063535835685 0.5676414710804805 0.9820873598401667
Ni 0.916424608926844 4.8922006136570895 1.6277239851918144 -3.4036626174648412 -2.0432402556549323 -0.10921249187162481
Ni 7.3989880885514285 0.5893548188883728 11.94240771501101 0.5066055389140824 -0.4442855978289381 -1.948047732211484
Ni 7.221354403483308 7.281985758702936 10.876736764790783 0.6297014736360188 -1.0467680878480037 1.5446344471168754
Ni 2.813441856018954 3.0296143113655205 4.998350135568371 -0.3551498221025303 0.2845812678553486 -0.446181015079438
Ni 8.821815673750654 3.250382024379853 0.08089886009114083 1.6925500119856525 -0.0655711010325903 -0.006197387059963521
Ni 5.39045119353265 8.852754594809335 2.401537470020452 -0.562235983794193 -1.5952201304842268 -1.0990378437859976
Ni 1.8526516156738082 7.328375536008901 2.664762945328271 -1.0713329216715612 0.026154804018496892 0.002208063394912326
Ni 6.969852416512908 0.6456225397518286 3.7361658748498683 1.3374719236613222 -1.4185660600301762 -2.0773138002998737
Ni 8.507570745547302 0.1602684481973006 5.463725088623249 2.4125177754080966 -0.3926658167701173 -0.8360245319094117
Ni 8.240664413034757 2.1153533804417584 6.757468723206991 0.3522964118141352 1.546679502571362 -0.0770338502565512
Ni 4.649600775650357 4.364573872415529 8.506021939066162 0.9337375077818693 -2.011535468352484 -2.5527547406856943
Ni 2.3411163431880544 7.611365270358626 8.159012079520359 -1.3635894466839809 -1.2692093918394982 -1.0364803327687504
Ni 7.707344761484142 5.048969596399707 0.9710095724783588 -0.605944223315421 0.30651689158617534 1.9941206153101463
Ni 8.994984331125398 0.27099927456480616 7.96140948830772 0.015924898760372574 1.2221589753189146 0.16995994626332664
Ni 2.945439237204366 1.680841070889132 10.991086124018128 0.4688578878516635 -0.8753557254088667 0.2552863755459732
Ni 9.12676776306717 6.924299831899451 1.120894970860356 -1.176650192253838 -0.34348472705977623 -0.850558978080161
Ni 1.512342088310376 4.988691722539138 5.540947742580178 -1.5503253268540655 1.9759233755758294 -1.1160971132611295
Ni 2.4034034795106423 4.757226547342761 3.3665564636768655 0.6437990893796655 -0.6061195725510206 -0.356726936781663
Ni 1.3024950888627578 1.291332519629319 4.372853708144432 -0.8989124296828841 1.1073000837947897 1.486535486091614
Ni 5.941556538728543 0.4788853826837503 -0.05419799448475566 -0.4933828695762213 -0.26448218311262833 1.660648792401682
Ni 4.099760521634254 1.7826809108622037 8.69751209340939 -0.05230292316877444 1.0670654046444592 -0.8749435775721125
Ni 4.894237782542191 2.4551047793435186 12.604132260882071 -0.9877859528868409 0.5963437241111793 0.703588293623156
Ni 1.2868767940769714 3.9371218879030527 11.966028641723067 1.591681264093033 0.3762848043089326 -0.3498268672277201
Ni 6.076856179978847 4.949901794452939 12.979596439618014 -1.7810656376295582 -0.23668418706375366 -0.4071583539593375
P 2.4581279751775744 5.1824181115854655 9.903467702256755 -1.9239472396188542 0.8756786559659242 -0.42661132047762657
Ni 0.11611211495212576 2.7292574797167712 8.638261175918299 -2.0145999662104206 -1.2836769893280537 -0.2770535920197358
P 1.5612806522579763 0.14862402805861852 6.131808578100962 -1.2043512577135322 -1.6075683676369348 1.1699861499701012
Ni 2.081279637856687 3.0927479425216444 9.356228326872044 1.1556108550850357 1.8652273571801423 0.17452699680871875
P 4.779616800796833 4.2238417808049515 2.6194810530187245 -0.27758041105748327 -0.06540989286437766 -0.6000584539586052
P 7.500539562152637 2.1492317780652446 9.688057092260369 0.23755707658701025 0.5299583547074098 0.45869380283446815
P 7.717614325178905 8.769900424674137 1.1831244339085707 -0.026986813001489005 0.7596522264962594 -0.050605995082325744
Ni 4.299058893156272 6.321837366088713 9.503388197932875 -0.40457928037825164 0.7131659100092621 1.0374347262622199
Ni 2.662207647187916 5.768276255661464 1.0249378048733064 2.303147674912685 1.7492906592108066 -0.8616309196236063
Ni 6.276201062206004 5.005407669966213 10.196917694192313 0.5822797898189456 -0.09028942971487676 1.1060674969392692
Ni 6.4165052553293 6.16399863712789 7.549717191124653 0.3045075744656304 0.35710823138048176 -0.28833893512556796
Ni 8.660060743417102 1.49297503069036 2.184439451641613 -0.9438447714192003 -0.06704305759242647 0.8185862818283064
Ni 8.290644816777478 5.397306871470187 12.457176106709749 0.7656210424851847 0.35011920165715826 -1.944389052412974
Ni 6.266275677729272 1.27481191716383 5.714901500657674 -1.779083317092207 1.1728958674177283 0.6657635094658986
Ni 1.6526090728695602 8.038956786986521 0.46551820602670757 1.506650254563618 1.3363768908249307 -1.5097057535604903
Ni 4.250138933490727 7.911098858558509 0.2551995880289766 -0.12855438673334635 -0.9506067727333821 -0.9564334067174883
Ni 7.196759542605632 3.1391191155455536 11.824599819749503 -0.5530702581345249 -0.03577021562107388 -0.9359476280593108
Ni 9.254681504341349 2.2443368679341416 11.38618247139338 0.160843071563723 -1.4965869567903451 -1.0711709421724003
Ni 1.3949118599746018 2.5269824230658355 1.7403161699789957 -0.005381061806255249 0.26673961168823734 -0.6987654183132159
Ni 5.0797131724968025 7.912949984623054 5.409934527915515 0.5130872899836841 -0.2063076316544253 0.2586336947516514
Ni 3.998804385058829 3.9059690176007313 10.58949502177722 0.6707745895272448 -0.8526809095191702 1.544260351606908
Ni 2.57494426220551 5.109638160183446 7.535571425263578 -0.6909202112371843 0.6611080129717581 2.2882005666845493
Ni 6.681495346790105 2.7595452509035012 0.5799410521681729 -0.09639220017850496 0.3718864181309208 -0.37347124611953747
Ni 6.905825779818111 7.0362324948877575 2.396391525603837 1.0479592799426274 0.07731487183207976 0.38883564439074964
Ni 6.6870487249837405 3.9435961780584474 5.629986906284803 2.067381885898143 0.843728585421889 1.321937318360833
Ni 3.7352561254573433 6.63384047830435 3.587929746072112 1.874712156742126 -1.2001451900519848 -0.12804093743203754
Ni 3.806426806461542 8.767333033750447 9.207787550991673 1.9009718617696034 1.9373272604701859 -0.6083587462941845
Ni 3.5574084911455826 0.36957034218068585 6.6111525563373865 0.971826858454423 0.06373507626511604 0.3041782161506697
Ni 0.18286241853988316 7.733511684195529 6.838856875916198 0.45515622199485484 -2.082869954231413 -0.5866192977345639
Ni 1.9057761430839482 1.7333609591324608 13.129439048151283 0.31182184873885654 0.3480319801108264 0.11607270932656784
Ni 3.1503281954841316 8.763277300262297 3.983189811129454 -1.1079138061193887 1.6304920663126437 0.006968975118665417
Ni 9.29629928330002 5.892199378434688 3.542170653927836 -0.5870329882332147 -0.0818191874603365 0.8596563123957389
P 5.14173984887061 6.447388363541814 11.538461310661846 0.6441986388109292 0.27069782500503703 1.1326408765524234
Ni 7.361463251645019 3.695275523319577 2.859057695191401 -0.7916025541506109 -0.26180849293520714 0.5467144911198262
P 4.866675538676627 0.6100539431035793 4.1983548446027035 -0.30940758287040904 1.1887531461649592 0.2953007111553817
Ni 0.6712955187746347 6.795427970099403 10.82027648960805 0.9056417779869178 -2.9871603603967585 -2.116447790186858
P 8.316504768834944 7.562417404269998 8.938422662605463 0.28737965653609215 -1.0860434884088586 -1.2451032428199138
P 8.489905979735385 5.561750120560793 5.940659812333457 -0.43223380887072665 -0.22837875252185183 -2.3719655650173475
P 8.242943437586582 2.088116711512168 4.639115402283747 -1.2300849150342106 0.8131026330059158 -0.5750159091676806
Ni 5.475249511142673 1.6268049336582613 10.610107636080867 1.2782409059141469 0.514644607168475 -1.232519235507316
