# total energy = -340861.4646130675 ev
CRYSTAL
PRIMVEC
9.31862362716727 0.00000000000000 0.00000000000000
0.00000000000000 9.31862362716727 0.00000000000000
0.00000000000000 0.00000000000000 13.63874761927362
PRIMCOORD
 96 1
Ni 0.7574745892841519 2.0620623577112727 7.413886876260801 -0.2733337199659873 0.22645351047468099 0.939019582116415
Ni 1.4278368191914104 5.3365429073150485 9.529938544911282 -5.383341346318045 2.2180595868930895 2.6113303842370574
Ni 1.7152604528985311 7.356513041143067 8.148197230404596 0.03596767634386063 0.2948219717467503 0.049250252385379695
Ni 0.9003113873591784 1.3966753410719508 9.992074261398999 -1.0957913118242417 0.3133495982372926 -0.776040952266928
Ni 4.323934647790204 4.613175413146038 3.1807473079888804 -0.012182400998804827 0.3463144831990875 0.2529255886232805
Ni 6.287573700508136 5.90743907822132 2.871597302799846 -0.9184168182643989 1.385722016916962 -1.3244744829603898
Ni 3.329069048055867 6.111638082417407 9.475670607119271 4.420477867704497 1.685380490820407 -0.4196611144120385
Ni 4.354928390680552 3.4895171133252614 0.9854146514362647 0.6890440772603939 0.14105868984794417 -1.129798522007622
Ni 4.535607188305613 8.376753253592502 0.021916471408240733 -0.43151878508157293 -0.8006134993999695 3.641764767922044
Ni 6.867620760024847 3.9769090960053135 0.7239228841498474 -2.6088317861849197 0.07353072219929917 -0.18362690222745795
Ni 2.5453821017734413 6.611973633610596 1.033006727109621 0.5266622004546414 0.46012822128814956 0.07752107430561488
Ni 4.880312402754455 4.409274604912815 10.327682635255671 0.5331614350257399 -1.6198199313107782 -0.46315672370182814
Ni 2.04592250122117 0.5956883696313978 12.285524572083018 1.5081846889302735 1.304487498315502 -0.6830204967741332
Ni 0.08933112371309075 4.156534889136505 5.5170371961880855 -1.7688130455144506 0.9598434608403018 0.690028038440218
Ni 2.7871444786667605 3.618002298824995 9.509030348602481 1.5292268543125536 -2.733041008575693 -1.4516301895739967
Ni 4.279848238405287 7.546519781231519 7.12229036279833 -1.253313803655164 1.3545041965532607 -0.2683288105522282
Ni 1.1586776882098102 8.364191748656788 4.53882490911741 0.03880386024107511 0.20186682227425232 -3.103586082187371
Ni 1.101899313155424 8.497149873599506 10.513019812938124 0.1632251986426544 -1.472793196804857 -0.24712132323667763
Ni 3.0955816091320694 7.15581783951065 12.149015119595047 -2.817626188816941 -1.18349652575171 0.19137595004525748
Ni 6.866949819108399 3.7570361665111003 6.841919063612981 -0.7189645189689101 0.3756165745973144 -1.5494727490457831
Ni 8.065436668360773 0.23183897436658107 10.88573960623581 0.7779579667839828 0.6952844017431509 -0.9485774010081793
Ni 7.574652706603124 2.2227340699528164 3.502320902480805 -0.15123151661588793 2.167747726012415 -0.47133900240230436
Ni 5.447015192932929 1.1801105230407782 1.7563704938290956 0.20361491531361064 -0.02148156691254365 -0.12872047999756542
Ni 4.109196280031584 7.993767132410784 2.4977182726965204 1.2750553090973138 -1.0629418693943886 -1.4397583778370753
P 1.1286344449510968 8.043509946466308 12.712336181182145 0.05992135894598067 -2.356549230462277 -0.761550986180869
P 5.257884403485395 2.7474750969817907 3.3618556941729443 1.2355829620343044 -1.0343231772164314 0.4366064840171255
P 7.575305010271893 0.9473126622811073 0.8701926632473646 -0.23149467244301422 -0.08462863188467361 0.8523618356168547
P 7.134813661376302 2.2515192989931903 10.44789474651065 0.5838345359005752 -0.3232509165114046 -1.1041250285009179
P 2.9525500518187964 1.2567748413687667 10.456037360021652 1.558508119775174 1.021107449857106 2.527573870544692
P 4.919786093338795 4.203239831820336 8.009641408121459 -1.1981947511938333 -0.15615106540469237 -0.268452480614286
P 4.658445287758578 5.653404073731312 1.093112782737111 0.02899253057760813 0.9580254337949565 1.006341861512157
P 7.77600021190431 2.4422528917411266 5.705210962967296 1.4548831492936558 -2.109826428215599 -1.8276033761797816
Ni 3.701869913380957 8.379129502671589 10.110376986629253 -0.04521387753247697 0.7972101301453755 -0.4134763257575653
Ni 6.05260460039385 6.3622531519583 10.340121134356705 0.6314261696366092 -0.36345937040949017 1.9051105665283254
Ni 1.4908773094659749 9.08628259135978 0.9035533365929583 0.5647050141599758 -1.2335515334265723 -0.21288425643067854
Ni 7.722529948312964 8.072043572663015 5.109143325345629 -3.0778130869883253 0.13054030681512357 -0.6246333150844919
Ni 6.000606679369153 -0.04000578400557774 9.88374153181468 -0.024004847555029626 -0.2710523801309783 -0.06404258020320584
Ni 8.606969855548618 4.883107989906321 13.20073923454879 0.6419939178501266 0.2519760802258177 -1.267699640063191
Ni 8.185646915890985 4.546947953518346 3.380309364962408 0.8602638640727507 -1.4385111356935356 0.7046668713993154
Ni 6.968466907216472 8.311327195615013 1.922613811264307 -1.0942008274086703 0.5304268097033962 -0.16685302520322878
Ni 4.845041411521754 5.177371493511672 12.596802019094623 -0.22863971949272235 -0.3510993061822405 -0.2828313750437774
Ni 6.4644598182305 6.226657856468989 6.988221457893936 -0.31070521863591005 0.3449564265092962 0.8699630936383856
Ni 7.790155201516587 6.869885185617858 11.783891868451363 1.2802203982380211 -1.3372536370029293 -1.1140865105890039
Ni 8.920056979309864 0.47411573929584355 5.934833036722448 0.3911946315412295 1.4236848693139805 -0.6369635545150707
Ni 6.106466246186456 1.066777419904155 4.6469945627845375 -1.6395009546794732 -1.0450724453131357 -2.2280100132375824
Ni 1.9664905516128344 3.0515417928663497 5.7546518536104205 2.1628040088538945 0.028159236043035378 -0.6086145710587325
Ni 8.55001442664128 5.82124180770547 7.816693710349246 1.2710004223016498 -1.7746782460459758 1.944603225306309
Ni 4.9807392118733 6.207871510808453 5.3189614597169665 -2.1403220257012943 0.29206009273089706 -1.6125977025307259
Ni 4.510083477609082 3.560711399459433 5.835638149675193 -0.6699081277618915 -0.2671605012757399 0.5886103600226636
Ni 2.7600552391651845 0.34674319748255245 2.6766041670948506 0.3127410181190162 -0.9102939320469484 1.687873946666222
Ni 8.465475871168872 0.24196645475540543 3.3797092455871405 0.6001368726050245 -1.724518080251817 0.05203424288842006
Ni 0.14963566602836312 7.153031570982625 6.229880236592707 0.8998056309211149 -0.21810976649567598 0.28097195323753543
Ni 7.885978610458694 8.102105453169408 8.089686523178436 -1.272616617748834 -0.6425351350655774 0.44473451244089857
Ni 6.319722952754588 4.4727251146363205 4.765296356152409 0.14283429369112818 -1.3474899700189569 -1.2889456939261608
Ni 8.693027346706874 7.707750610903435 0.2521358689515078 0.9937699383844174 -2.165333717254284 1.7255609196940347
Ni 8.200137375961488 2.365420838184026 12.675238739676894 -1.507091712976411 2.282604046433379 -0.5188892413774419
P 5.815343118815035 3.012999964665965 12.573425319330724 -0.47821284670400227 0.11547518495188501 0.3164508628704356
P 2.1352974224663064 4.063581616336981 3.6821349318135552 -1.0084283117275408 2.1569838026276913 0.8566815460381311
P 7.805316602503538 5.925535845717729 5.156455842303799 1.1700267734000493 -0.1314885296610058 0.8054417740265483
P 5.5951440374864365 7.4314440954369 8.746379263775458 -0.12386418034652863 1.4423533922577612 -1.8283171144173544
P 1.0651746166037523 2.415909142146715 13.615971521664893 0.47941252343905816 0.10938167045963743 -0.17047725221937737
P 2.8612461754388723 5.062034886249545 11.269710705957369 1.2681164158856353 -1.2027327482735028 0.343610196894047
P 0.41116936712205837 9.043230549221052 7.8058235356404095 0.7873257811521279 1.3759168579010819 1.1476784876118362
P 2.5036253483484114 7.1150302229649345 5.664553807155334 0.2453156374865065 -0.2291706522955279 1.5611807815113306
Ni 9.031703411531527 3.393507331906364 9.236296593516029 0.9650550869482284 0.03491069583425601 0.03772399691333503
Ni 7.061876792584134 8.677250916546514 12.725347775649313 -2.7885328709954105 2.192759160455088 1.1794421531766783
Ni 0.8523092922368817 1.4295980390970855 2.3177961473272313 -0.5291546278591919 1.5741972483756566 0.43646558756388704
Ni 1.8318830302505158 4.230030875359046 1.2564272566995516 -0.38243205485725107 -1.0544245759519968 0.4365771734410868
Ni 5.417736076829058 2.0205292512583926 8.652721503013664 -0.1388259438626835 0.3325200005181564 -0.06375307398724506
Ni 2.0902325575782363 0.01693659882838451 6.417057842483469 -0.1638152668181695 -0.06409245960453477 1.0267373944493736
Ni 3.2397314013060887 1.4311262934067719 0.4716807828865688 0.025787393376749134 0.1273994471932967 0.6227666941893985
Ni 3.6326977686199675 2.9364474698240515 12.074902240474328 -0.2184021009251142 -0.4002343731459946 -0.43336586559264073
Ni 7.594109993180107 4.396014203189134 11.013780293378394 -0.03923426291027437 -0.07320444920813199 1.248240502897315
Ni 9.180605701863717 0.4935515930379957 13.001123129556992 -0.026209825626148407 -0.439356793068753 0.5006539493163378
Ni 8.058177460389762 1.172077869291085 8.513892645052028 -0.20088877463169919 0.490643102047555 0.7051427825944694
Ni 2.925637866170172 6.3320794479658336 3.737521104466312 -1.4698765373786944 0.4275723988393152 -0.4812593468398099
Ni 6.948655512933585 4.0889375918044 8.829998071074904 -1.250439824541479 0.8468846145523673 3.549024305563514
Ni 3.7871819146320487 0.3726051742244592 4.99472739811885 1.0612002041129336 0.023615582536410943 -0.9347199262997968
Ni 2.8984927149255593 5.3676018805722725 7.078060446606282 0.9521054687660959 -0.3847681591895954 -0.42348203082002545
Ni 3.1837730651495826 2.5517933149750527 2.7822633834996036 0.08427201987620325 -1.112939284358438 -0.26583638314767766
Ni 8.706949370723164 3.0230174852934835 1.6346180140534379 0.8445251131812552 -0.27559114854159633 -1.3914296088247005
Ni 4.955606883378031 0.6470759207946036 12.26738587077933 -0.05596417407044556 2.329892032886065 -1.575869750982073
Ni 8.473079868221946 6.808643189744327 3.194863159381033 1.0180856323116465 1.9030354291668516 -0.40296231360011897
Ni 6.511854339078457 6.538291274911264 13.681982789219507 -0.42588884048930525 -0.24200277106318963 1.6448539914612705
Ni 2.85091182160081 0.9368385290854516 8.51026490479129 0.10244817656459775 -0.24411750341334731 -1.8991013842197677
Ni 1.2207490416050615 3.391392004294786 11.200753821407073 -0.9644609050076551 0.19620191067899115 1.964198373829417
Ni 1.492619892123971 5.352049097384062 12.78396657891201 -0.24180068235471258 0.8036723408309515 0.4075689591341949
Ni 6.605506508665948 0.6112402209572251 6.624612483124181 0.1258418728981897 -0.45381539169624424 2.9942023548452044
P 4.4648508774919 0.6297181201686715 7.101914259910766 -0.204071543235055 -0.13866782101826441 -0.30560620684644785
P 4.9841311909508965 7.675536128290107 11.804991096548877 3.8215208743401865 0.5645245227180535 -1.3339333143804446
P 9.023866448882465 6.798010639943399 10.08566306434438 -0.07820550196714918 -0.11820312540600934 -1.5396866161932967
P 1.4058635041777483 1.4047639065646813 4.509106885830697 0.33766323528199266 -1.4941112415563431 -0.2096382386895551
P 1.0233805886833647 7.605264385916049 2.379020437815467 0.848921442476738 0.10025631111960154 0.6544586259760407
P 1.0617919561499953 4.497931992122306 7.79575849003131 -0.9893185874812832 -2.7813710631396487 -3.598952300742208
P 8.450808357245418 5.426262617642248 1.517856589206244 -0.328142440275751 0.553266176195415 -0.21628376903053073
P 5.316107165234913 8.02271077805643 4.1529444233711255 1.4656172478817082 0.9229468449242685 0.7459181647396185
