# total energy = -340861.4284615196 ev
CRYSTAL
PRIMVEC
9.35335572646653 0.00000000000000 0.00000000000000
0.00000000000000 9.35335572646653 0.00000000000000
0.00000000000000 0.00000000000000 13.68958155737259
PRIMCOORD
 96 1
Ni 5.914005314403655 8.950011091846939 6.647168113211047 1.8742102774050433 1.5536695607359499 -0.8457397023146467
Ni 4.339695223426216 5.1149294168758965 1.7617532130117544 0.2216730583669021 0.9396808698494978 0.2864031515554358
Ni 4.778105719129478 3.9955010812649197 5.170719378552831 -1.646442933214945 1.7083129312468643 2.394686917874263
Ni 6.394159837294226 0.3143915443959084 4.268206589279826 0.25224116096174626 0.2512751975040511 1.3617701340870547
Ni 1.012051810378996 7.8317799857855865 10.202051306790585 -0.30383883053337996 -1.4983533046621484 1.380488022211532
Ni 2.854251366440857 0.024170942204223594 10.551203662891384 1.9388066732291902 -0.6431028346435891 1.1159569881388394
Ni 9.186192680578015 2.5500334672100036 8.779484449214586 -0.6781564838136127 1.7946999405835415 -0.9372411500597536
Ni 9.335397413200017 3.046584422916923 0.7573936024890983 -1.050735300025868 1.4094908372017856 0.3859719496897095
Ni 8.907200782091993 7.398467069024087 8.37690104778385 2.1984328138010976 3.377081524542203 -0.42921019155305434
Ni 7.287349201449527 3.681883059398339 10.616831484258125 0.6405106484363807 2.5903226716371384 0.1974794918398341
Ni 0.3053777153570529 0.32816529623010837 9.157358155143768 -1.8693125829931097 0.9222886425149793 0.38458663930640863
Ni 8.398780417803245 3.897945579682204 5.2969232737882495 -0.8738251476969531 0.1427425053082703 -0.3541468347593127
Ni 1.5344460883172715 0.6056877825110842 6.091453440369774 0.6218477819195548 -0.5147410235370232 -0.3746423836095032
Ni 3.006196632328796 2.2729215932511253 2.7951250627299298 -0.4126381461269861 0.4766663281524887 -1.6481038658571359
Ni 8.36938282034644 8.877971545040603 6.19060649513277 0.6687981825271644 -0.6687842985700934 -0.278173821667108
Ni 3.9340869467115054 1.7220931135092588 6.796288665630341 0.9751106714120172 -0.8072829410003451 -0.29113603825473083
Ni 4.690408654619455 5.535063455235666 11.824362820023294 -1.0261894923657036 -0.7809419891129713 -0.25408849858313015
Ni 1.1696839166276531 5.278154829926708 12.610910832716929 0.7840144573907077 0.4807482115313463 0.8602738913750797
Ni 1.4532963729067598 5.207873714021384 8.887796310032213 1.1234682089142198 0.5316108027091684 0.8420008040975047
Ni 2.8815163987623924 6.808672508784273 11.42038296256319 -0.18834539074904982 0.47890267368217515 -0.9518406451404833
Ni 2.103897099569319 2.768864580827376 4.933903632294687 -0.17130540454762752 1.2230454916889257 0.3408676011519033
Ni 4.098387995685807 5.971266558956806 8.585681045197887 0.0013811966182427826 -0.5766174493268457 -0.06350033454649065
Ni 6.750915536370728 6.962890640145328 4.933013192817152 -0.8343448302141437 0.9734032018026075 0.9158662839284032
Ni 7.767690791457229 7.077291535625499 1.0633016531232116 0.7725522223873792 1.6072876031717223 0.0066172482062015064
P 1.1858745756151585 9.279679472363178 3.2222123858333798 -0.4797645074618382 -0.19930574641529544 0.015580628047076394
P 6.411809619795338 0.4379259918698976 11.943256132321316 0.2236900887969309 1.1220186209518868 -1.4262503160483113
P 7.621797146808409 5.386176736712784 3.6719292180959107 0.6126193213427514 -0.5578383689471297 -0.867712349930996
P 4.062742356516898 9.09158348609008 5.415379784367774 -0.3306585218293854 2.216704872637408 -1.531347243089666
P 6.0648468843005325 5.959509390645256 10.17769797414716 -0.17876494614946634 0.06596088027184124 -0.11232275536583236
P 3.6290646588769975 3.8027377704194567 7.6020989793747376 0.4513504750955194 1.7540477142798176 -0.8000596837790286
P 3.4235714307109144 0.35086682622928456 0.7769477282425811 -0.10450942996900064 1.5912014962431371 2.5216281944842183
P 1.0795830396625243 0.7797153862405029 11.501534548644875 -2.906731625526046 1.8350947994608202 -3.157218008580214
Ni 7.511128240314959 2.3150397546726946 12.784043320290888 -1.894236857038615 -0.5116844960988864 1.979049579909637
Ni 2.0195391831000467 2.464974049051498 7.67974586301701 -1.5651413088209754 0.2023231930853806 0.9458679724968161
Ni 8.412773038164485 1.7103827119769903 10.891376797369995 0.5422731675190209 -2.6820753161611037 -1.4615790732565925
Ni 5.2830185749720595 8.317331395005327 10.947531539925329 -0.985301238791774 -0.7179455907860925 -2.41603478742242
Ni 8.865129387449706 6.386630385829789 5.97755575543468 0.090395873385754 0.4328184777296029 0.32651416064370864
Ni 1.897823963340136 7.6250614680023086 4.654499250815394 -2.4431552977882953 1.499189941630831 0.4194312577894196
Ni 2.3075664233433955 9.358967869958256 8.31373783568528 0.3348499342029136 -0.1807387820463855 -2.2636601583410236
Ni 4.653004584549534 0.17121692029455712 8.590718762662169 0.40256610660296477 0.2805721466959555 1.4236100502119868
Ni 9.116940433816902 0.8399790580235741 13.238044924871254 0.5185624541656424 -0.9044829817921262 -0.11045819135326784
Ni 8.059160066655748 3.0106675364281763 3.0602786712263432 -1.1079755125952597 1.0800247930186044 -0.5000880495105386
Ni 0.836420106120197 5.362494039684267 4.261512392493369 0.7224740747840654 -0.9628300542724515 -0.36281916572233
Ni 2.666333093929033 7.167354999167203 2.2543177684526574 -0.6306818352714171 -1.1902780674499178 0.4207265795620754
Ni 2.1118006852680145 2.203603872999016 10.318810183282164 -0.6133073485487115 1.1800818436432063 -1.2024609826693549
Ni 0.5631917455129147 3.0977098660282483 12.050281906708681 0.4786666464119691 -0.5123308714336339 -0.1321181928252047
Ni 7.782843227944669 5.727546165405435 8.27410673158594 -2.166720313189165 -3.9473164673814733 -0.9903966510368105
Ni 5.268642467020705 0.4761307092011304 2.0495082705996803 0.365502368981448 1.1269523108080783 -0.6853008081678779
Ni 6.899718074690902 9.053945582123749 0.06657905765734246 0.3273950205867652 0.2637833572733908 1.838789217593272
Ni 8.572818310224106 6.485813371331525 11.704455603950436 -0.44211455831954827 -0.9183126885863669 -0.5541712045081876
Ni 0.6303638059315557 4.510150780554059 6.9406174938443765 -1.0907835741970053 -1.3321260859683766 -0.2277336627386852
Ni 4.560041580692333 3.0727831726708237 0.640651562038059 -0.686858639573301 -0.29150987665438177 0.29948646710195514
Ni 0.16278486998997252 5.4652874205465904 1.786052296191211 -1.0966282059032402 0.8767505488738643 0.45321066823270983
Ni 2.0754067776305893 2.3071548756857116 0.3867565879860473 1.196914598929829 -1.326571988919367 0.04476959090620677
Ni 2.473981330741254 5.752893759776399 6.5062064931053305 0.6391302231490863 0.4809423298200233 -0.33473886254634605
Ni 6.266177869110497 7.513990367207032 8.516220218601175 -0.8442780301674557 -0.2589196014231864 0.31175859960108887
P 0.23904371562314927 2.3904558629432056 6.336537553205015 0.21649768481354972 0.5035852640305197 2.277391648994504
P 8.281629635701279 4.392878404825959 12.962651262383208 0.8337424207434544 1.4714233130405239 -0.09675344017266563
P 6.184850439938715 5.929709598886625 6.691782685310701 -0.6876312560732674 -0.10704093814160276 0.4889857689497901
P 4.973235429006621 6.982224026700599 0.7381107240554525 0.15729032121545813 -0.7661206078294225 -0.47551010306085856
P 0.8921829430651471 3.2027854657195443 2.8653528645068707 -0.027251379516785326 -0.24490837474575886 0.30245814813576943
P 6.462860236059811 2.5908702188792394 4.958421584001184 1.0573132103537017 -0.01129948417321925 0.446852844335482
P 3.010255988770493 7.586207627774638 9.227243624096365 0.0021751532744478668 0.19571828617435327 0.9243074727172209
P 3.004382081292646 4.726391014599196 3.688261112756848 0.7124645130668633 -0.12243181877537623 0.0720155711063534
Ni 1.9529526427580193 9.283664001958023 13.019202587226854 2.030508667020877 0.5729433429093681 0.18334073844560683
Ni 6.149925009170751 4.06910263849928 12.751065258212236 -0.7175961778664738 0.9306827801159455 0.6058187534811502
Ni 7.406800909092179 1.5959818164968191 6.908474686443705 0.7391296810628755 1.5177558775584763 -2.2931851643833348
Ni 6.323607474069067 6.885996701649499 12.498464788610756 0.7890990710024668 0.4535238285977544 1.1008350448957362
Ni 7.601893205545896 8.539389416393174 10.342588284540419 0.4435106673361265 0.5243291814460905 0.16060627296256857
Ni 8.674620235365646 7.307870464198565 3.608683696465805 0.7450221352879104 0.9607942547893453 -0.8674716946750997
Ni 3.766456103052309 6.671692612266645 4.2904385808150085 2.7971298686358024 -1.2830612101209258 0.3477188197457818
Ni 9.201990498619551 1.4695992721645426 4.5194788823496905 -0.20348713148649472 -1.036045559224177 -1.4069408170864222
Ni 4.303787690293326 7.500474767994469 6.600034682379253 -0.7111018283913817 -3.09195929658172 1.4581736471194695
Ni 2.1098645406057304 4.517259331004957 1.5779429343920806 1.157934875232522 -0.6678602440939272 -0.3612083695917844
Ni 0.757602182324697 8.567299830268803 1.0983411948326236 -1.2431049814429624 -0.8846150392236055 1.7460942637606962
Ni 4.673553907366142 2.070683332923085 12.183631765818422 0.12547574780802262 -0.42729086304315445 -1.1261079605299122
Ni 5.402030674889457 4.050077912687272 8.902376321141238 -1.2894336893061729 0.986176699418192 1.7930266666461767
Ni 3.2688201580660414 4.257862713038184 10.337824620402731 0.12370142951641921 0.03327958798873623 0.3493211312358952
Ni 4.4755433638852145 1.8109967609247626 4.4848845603790455 -0.256701510725945 -1.906980786967845 -0.10304184428453868
Ni 4.403279336538326 8.595734032072395 12.999339800730109 0.9479197128195223 -0.004759111951540191 0.1690322922427347
Ni 6.493015455340988 2.156369425923972 9.19080201434407 0.23737195715939766 -2.7236248574681157 -0.38485120582170496
Ni 6.619238992623704 3.7362915304152757 7.1385691111834095 0.20167913174347846 0.760395275309871 -1.8191200212991188
Ni 2.557628392165436 7.278285799624633 0.0415859554733374 0.7384848483900249 -2.5317377721143943 0.1267924097369171
Ni 5.9147722895838815 6.703653029228115 2.7463491826097433 -0.0996767844670477 0.24615818799245992 -0.6158257440951911
Ni 7.259831628519868 4.944978940964302 1.1936864984264606 -1.3118753061391406 -2.003798761829859 0.588609074471083
Ni 3.4203725830080103 9.10103037550509 3.2540268904434897 -0.4388857669696054 0.5368854208445464 0.5166235852717167
Ni 8.822356491118185 1.0915646885146297 1.8800451045282065 -0.5259062961252233 -1.5772704879843418 1.0749916014700711
Ni 5.540067500618863 3.449592466703543 3.1404584436345413 0.428739679674539 0.21042036827121827 -2.1413831199759574
P 6.511282559328623 2.482062630201222 1.394024156844472 0.6479599056255744 -0.32449738732399597 -0.3607039191515401
P 1.1335051361749262 7.9088609913985435 6.701022865561283 -0.8006551512711824 -0.77848015783604 0.7120737053863478
P 7.077300888981355 8.68211227340666 2.5648117694631853 1.2489048759541912 -0.6807571546612533 -1.2069331595080957
P 0.6133416336084125 7.629541725457545 12.776965635914314 -0.08779031744210687 -1.3054804583563904 -0.014114842134827305
P 7.407689477898541 0.17853685658781052 8.319159040739676 0.2211387831299869 -2.0130385352605717 1.6300022711604185
P 2.8595079524321787 3.545819791754642 12.522709622326245 0.04374294941390531 1.130166446870002 -0.5928146279119983
P 4.263484079907908 2.109060152002076 9.924303404633468 0.8553510001521657 -0.5957662543411546 -0.18851122690295274
P 8.965275768604656 5.122571108610612 9.874815734132605 0.5421186442190276 -0.43101819129607066 1.0703065372895761
