# total energy = -340875.242648164 ev
CRYSTAL
PRIMVEC
9.14602391507973 0.00000000000000 0.00000000000000

0.00000000000000 9.14602391507973 0.00000000000000

0.00000000000000 0.00000000000000 13.38613049398477

PRIMCOORD
 96 1
Ni 8.459724370856208 8.161902401209682 7.874163922689134 -1.2165688828256467 -0.6868511833741332 -0.09712162214536176
Ni 5.615557943718371 5.1060604016276825 6.299459182483066 0.20393373210561005 -0.5821275805117975 1.2949294223134213
Ni 7.860650672676766 4.224841018418432 2.8401751023964508 -0.6024770907024269 1.1146850634049512 1.6503759497207642
Ni 2.7598309426274836 3.538870949093468 10.080813170241786 0.04631148147202992 -0.2639548498542486 -2.077820050512331
Ni 1.2632945231528578 5.479629739533047 2.3071795962233423 0.9169152940182079 -0.19912448364242483 0.5041941012591123
Ni 3.1997729745022254 3.7164775832661765 2.668551796926342 -0.033081870155633346 -0.34953324724670126 -1.0903377449088385
Ni 8.146463913209088 8.558510572807874 5.454205622860032 0.5709769632116166 -0.11602642946966468 0.9995646906893236
Ni 6.658469879867492 5.06095221275391 8.669500314178494 0.5358695779855223 0.9175259310190135 -0.5349342106554464
Ni 7.938620524693984 8.228860440695668 0.8130751044497582 -0.656258912409573 2.040680979568189 1.581708469151037
Ni 8.898504857721427 7.166595518403624 3.565275519506806 -1.178649482072054 1.0607515466112893 -1.626364674407831
Ni 4.1863179666065236 6.487265462282707 4.742371513122224 1.3906225395423728 -0.023974508537726452 -0.26856535204306653
Ni 0.9629848350607376 1.5718813626907937 10.325190350414692 0.08141578137433075 -0.5383766606780921 -1.8467583518416777
Ni 1.013507469963155 0.6878093346904375 6.234710822322281 -1.1997548965921014 1.4378596181524657 0.9310131668721707
Ni 6.2120250251441576 7.251159653506402 6.78629928006909 1.6371321973369803 -0.6649063036719258 2.9120216702803914
Ni 4.995302054656598 2.973600954498265 11.26963619544154 -0.3767157211987641 -0.5524331387711582 -0.13771368463511122
Ni 7.6331341871893414 4.586090662403891 12.206222862305529 0.5489927456310416 -0.32741096142636517 -2.988881971073556
Ni 4.009369846140002 7.077833358423906 12.500182466144798 2.1774662388517596 0.6916267503859057 -0.8708053870340229
Ni 7.973229078363561 1.2410605395453675 8.637735259276324 0.6308962652750684 -0.1606227280228008 -0.10292305931848726
Ni 2.681504395686082 8.367944023056468 6.128023370498747 0.7041871035494195 -0.9626359359837744 -2.579377742589861
Ni 6.247036003856405 0.5099685623110851 6.837515183567744 0.9877134477776927 -1.4771704999369462 -0.14401263026994554
Ni 2.3735029016647564 1.606069199270308 0.9948815927041447 -0.6740437471968198 -1.370530653888504 0.8523152986496353
Ni 0.5996279472154816 3.123815247698356 1.9762078636869151 2.5537006495387313 0.20145544576844657 2.006950677195279
Ni 6.809726819769044 3.594734861834953 0.6254151610292698 -0.5547756708614059 -1.1693228053544893 2.177806138689682
Ni 6.306713808479554 1.5979932603458267 12.948001968229796 1.1783589474148288 0.6755650689373527 -2.805063264550266
P 6.5085665514731 3.803108719724485 4.984003971583652 0.10834834409911663 -0.47589988230010943 -1.6978403138503144
P 5.86656141805978 8.11080356681435 5.0486462378695505 0.3319150199443058 1.294930707865002 -2.7686204483421997
P 3.5561935179756508 6.729964347107209 2.683410427024544 0.4255232296197704 -0.25769035700177556 -1.1877727845295607
P 8.336993878865705 2.553167391169297 11.515097179422547 -0.5854430180382756 -1.2986636925448731 0.09608675312294421
P 1.5199593861627303 3.8207696914834584 4.030055407935584 -0.062150762497131674 0.6223630309930765 -0.43087369529840636
P 7.870930803312233 2.075095586501619 2.2639966453377953 -1.138442313725549 -0.26248186485314795 0.5539045811103622
P 1.6292909534370779 4.121847645566129 8.138325781323466 -0.35683749421759836 -0.09728180187230988 0.4954045279919404
P 5.805978157090624 8.64511427119509 13.068638020793678 0.04919317389519915 -0.8051391551844649 0.08829682476488018
Ni 8.236360180127237 3.613840905338058 7.65654526404664 1.407368905762776 0.8898022398514999 -0.04054526841221405
Ni 5.969408454532929 2.6909796762362093 7.186103072347028 -0.07391818744570496 2.1779737746157974 -0.16164319886751513
Ni 6.7820966821803035 6.0004774970317545 4.433432551671953 0.43128404336294757 0.7615461010848625 -0.6577216129980286
Ni 0.9194314702154606 6.970577938528786 6.479235253476711 -2.6216263668464275 1.7145378291106537 -0.041241523148290264
Ni 1.619934571195012 3.3050985833972724 6.12394058552039 -1.1141363899903327 -3.194727575489898 0.5144322340473527
Ni 3.836848401142844 8.549126752494718 1.1034778196732506 -0.2600999948845327 1.623587111662694 -0.6416853854707723
Ni 4.083315447730524 2.917206572382352 0.08104657438889944 1.2772003804647745 0.6414434446632953 2.020457196322146
Ni 4.890918486202346 6.7977089446311405 9.074698431232942 0.39612112230856944 -1.682643037284586 -2.7416459766358847
Ni 5.656797364568298 7.497754744425841 1.7634887299389224 1.5915431958532718 -0.9371365061610892 0.7284673162530229
Ni 2.342150332431322 7.031060593237273 8.26783622068058 0.31865326983839315 0.14028427357576484 1.4981599577044198
Ni 8.944619109201874 1.9771965488485646 0.2997298301897281 -0.8695728001785024 -1.5700960817230896 -2.4294965693542805
Ni 1.8948091673856797 6.750570338496626 4.217487615366016 0.7593827748849566 1.518159026534166 -0.6853455453628843
Ni 9.126387184156732 5.32104683465017 4.854185311227948 0.32620639959530273 -1.7097445214870683 -0.285165936714225
Ni 6.042713834464659 1.0651093356618224 1.5882911584080128 -1.0964790819198857 -1.364885796897901 2.2395354973786787
Ni 5.4634687156603885 5.356990707779515 10.695718635440793 -0.26044683670099017 -1.973027542085273 1.634272102180366
Ni 0.20209877103099644 0.46972239963465545 2.5430034150347827 -0.08807082479700315 0.30402986349826344 -0.9876471133161314
Ni 5.611286750651856 1.8150558407475408 4.884505294385986 -0.7820581049952854 -1.494733191411058 0.5096934338107867
Ni 6.2764587620897645 7.465569887035977 10.889081124636382 1.2803633515737887 0.8709285428754484 -0.21645988959707882
Ni 1.049524511282076 5.5233202947337805 11.312859388831354 1.2562291775297463 0.8854228798368815 0.69209931914695
Ni 7.040142594768429 -0.032580880215945164 3.5683540710832276 -0.38308382950863706 0.41863730113321446 -1.6290897866484781
Ni 2.090762725094639 2.4758469068345694 12.204630539579876 -0.8133286329737928 0.06226646213938954 0.32459354658222805
Ni 8.832946159861084 4.846980988361794 0.7492568948989622 0.046952457490138495 1.476584288416173 -1.2906320804896483
Ni 4.064328302535481 0.8058744399930831 12.43227506939906 0.41112530902688554 -0.8848513236041277 0.37177071848866294
Ni 9.17693725713024 2.144495614314715 4.493040846515004 -1.3365283288011305 0.3180696294207812 -0.39324997140836143
P 6.264623807425802 8.777063955072206 8.913998221864203 0.42980977281026617 -1.0664208290819248 -0.03888536421128787
P 4.881525519865492 3.698761735365021 9.066921567283355 0.2787271230674167 0.9116923550563718 0.3586586065867371
P 4.093055962967865 6.5136243025775595 6.912583916868261 -1.73666474291668 -0.16446704146955543 1.0968629476218656
P 8.174898900883166 5.933117032503098 6.656280321794422 -1.6667965571706327 0.08213954691423273 1.3701814980792015
P 4.088867084114623 0.9270592539787871 6.26897914391033 -0.07743005725370536 1.848332381197017 -0.654051620345609
P 3.9741027787642373 1.581804798402076 2.556617271307818 1.3365954345936402 0.3573429730991072 -0.9752461685486172
P 8.050769067267018 5.9800086959977925 10.547079287521331 -0.39402464479085686 0.05387875229632656 -0.5846904561429672
P 7.6654196508398735 6.341514428646768 1.8781140157291132 -0.780543725233288 -0.32549703223310394 0.7341065168166712
Ni 6.537971017659065 0.6419237338024166 10.826876273665743 -0.7285963856317195 0.8797196588045172 -0.3250918263748853
Ni 3.8041788044970377 4.057743165473616 7.241079820789901 -1.300475291832315 -0.37845455826674174 1.4083652082377747
Ni 6.779663839876892 2.9145542255102117 9.73725833830298 1.8154662265966155 0.3930715368489682 0.858645097522405
Ni 2.1937012218047593 5.352454280025786 5.966613429691115 3.002558183009068 -0.009234117003758289 0.121349641454791
Ni 5.335131711143603 4.958955756484584 2.2784665694288733 0.5818779263948366 2.960734819215378 0.020014752559030045
Ni 8.690140145855592 7.218444326742111 12.446182513032769 1.0770957922972675 -1.3968098993000073 -1.6596182942546387
Ni 2.7202926821852045 1.640229597778731 7.9508926592906635 -0.3476843669634206 0.26412839931763543 -0.04352723385867342
Ni 4.982351285101598 1.4593212490513932 9.048073441648507 -1.2409840784452175 -0.13826698603541993 0.6003564448149983
Ni 1.8851143822668233 6.979275807064665 13.070887028020778 -1.0901783365128386 -1.0831653955301153 0.12720712867683254
Ni 6.507194647918545 6.473336068192124 -0.3593664777062401 -0.2038298595378941 0.959481706625509 1.0728920386285652
Ni 2.2892771694387677 1.690432121851752 3.8389949729045383 0.003664593335780786 -0.7676524710929167 0.5323088572174574
Ni 4.113972919162983 3.875792170044816 4.808525617125243 -0.06966712547883486 -0.23483787788363425 0.15684423481697501
Ni 0.20652453189799133 3.8393086815173465 10.102887098434577 -0.891486055311826 -0.8573019532309493 -1.329925221662316
Ni 3.628995866604044 5.380029541472345 0.8153735002048229 -1.174616706763577 0.41319196174792705 0.9253166307080257
Ni 1.8059464011452948 7.902365686758939 1.840472640601599 -0.92556937014878 -0.5154138812343317 2.6214610449131563
Ni 0.3161103586311165 7.62962211408968 10.078926345553086 0.5943940565839764 0.7691064299306237 -0.30257384777802726
Ni 4.1465784936429095 8.644464903512603 7.772883600075286 1.2011026688692477 -0.1592818977241902 1.667401023523851
Ni 4.075788270227864 8.436511762713135 10.171611235096462 -0.5509678670795414 3.2683434012038357 1.893148766180759
Ni 4.360394235632176 8.833129080335025 3.6131842208366107 -0.26445518652943484 0.07805406399094944 0.3965150153128784
Ni 2.0115032837361397 8.76548508907176 11.499891000423856 -0.4208394509908558 0.18593832396945395 0.6891224959068131
Ni 8.6367639515597 0.2640960072637129 11.518282739476225 0.40422523947294253 0.1774356858150815 1.4166896689430697
Ni 3.3580906446978886 4.6536797775249745 12.025965710465421 -0.9664442539862712 1.3223260691588195 -0.9687358782339252
Ni 5.807907968090699 3.0259345020926953 3.0030977955235705 -0.3767586586215576 -2.026177129525059 -0.46536632975863723
Ni 0.1323914368216801 5.729252164296204 8.618820367668487 0.12020884298212846 0.17296350897634083 -0.5831390524954473
P 8.122483039075464 1.89215682051354 6.454671777633585 -0.21618966665482764 -1.306075411627912 -0.13852075391743887
P 5.40271168024099 4.695065534754055 12.8895451577702 -1.2216635237397346 -0.6592367640909743 -0.3249840971524274
P 1.0481251696564298 8.855244165634454 4.321885817458184 0.3897008206045224 -0.5668984222668689 0.5260003985009264
P 3.052741497548703 6.635924931454301 10.525353822831395 -1.035621841423197 -1.182438516800841 0.4237993049501282
P 1.6465129160585934 4.1872417149999235 0.06532638885843693 0.6009570545134747 0.8235279421042978 0.789051505593983
P 1.092757765297957 9.20373510656255 8.403008963308528 0.11753232459122984 0.015600425541418295 0.6951360490907448
P 1.039902894352796 8.966505543908877 13.615166898231287 -1.180663170067973 0.9470303682360334 -1.3326996990836597
P 3.1383391333292465 1.3889608887501086 10.643311919656787 0.6608812416729328 -0.4531235078355422 -1.9950755230242478
