# total energy = -340854.1886416814 ev
CRYSTAL
PRIMVEC
9.43773365547126 0.00000000000000 0.00000000000000

0.00000000000000 9.43773365547126 0.00000000000000

0.00000000000000 0.00000000000000 13.81307718552197

PRIMCOORD
 96 1
Ni 7.884301601341111 5.247332743801968 1.3244339760886896 0.10388516612144044 -0.41499147685051113 0.32754414457011977
Ni 8.56459232129135 6.310380191344421 5.801755240828864 0.28505229395449616 0.053676920698165626 -0.7369514424646341
Ni 4.598592367582391 8.225088727207252 1.0469485614115028 -1.2533508275406866 -0.9805151302570403 1.34015846935455
Ni 1.8292687327537411 3.453380010521795 3.4623307571548074 -1.550086214260066 -1.127771207164948 0.767237237932369
Ni 0.7548686353537909 9.204565042911529 8.440439878353121 -0.11497613382827941 0.09901292563080366 0.5367185562493788
Ni 5.138845995018248 5.378366238374665 10.460325349794067 -2.0562124995448845 1.8907800088382662 0.4114220143316979
Ni 9.38749663505375 2.8338966087458486 2.04166964834765 0.66462245388292 0.08815464276006107 -0.7829489922406709
Ni 7.269678632416284 7.971128751302851 6.890639428125151 1.1890071711572943 0.17222148860399372 -0.39249432418925956
Ni 5.37657306897328 1.9241557072880175 6.555907552195471 0.9612241432379123 -2.01613877145245 0.588417013064935
Ni 2.0802841357463957 3.5425477184390264 6.286262062895808 2.5993158762746846 0.5352933937670781 -0.8450817570156737
Ni 5.576360453488507 2.0933553969091143 3.7299178767363554 0.7140526834895896 0.42912894469315777 0.2784934097900559
Ni 3.2081688137494093 1.5909659570435286 3.8693056531727628 0.20248003037821904 0.24066579741932098 -0.6410698633739605
Ni 8.074122739078122 0.1986595753390939 0.9342138886932431 2.2331329362864447 0.25637678039667455 -0.9397482327523236
Ni 5.386926262832849 9.335154964000726 13.119577640352194 1.1076291849994342 2.0513171191257964 -1.0033028175755172
Ni 10.089692334901946 7.326880736320426 11.161008180931516 -1.1518141070467647 1.9571584362635002 0.6036675114661022
Ni 5.549897048217559 7.259806762974982 12.097409736294448 0.05558905011921394 -0.25150016903066363 -0.8168322752516771
Ni 0.594729170076528 2.0409099107854844 4.9591156821441835 -1.9957321827716403 -0.3136049087812083 -1.894867548644079
Ni 2.1846277194395483 0.9304614457775052 5.881636218793666 1.2736046926937161 -0.6293026955357034 1.378068357026446
Ni 3.4263031525609002 4.270121484183648 11.582666303026695 -0.9860414593919083 -0.820681216684122 -0.6762489823782547
Ni 4.159407430248737 2.765086092401169 9.599908875928087 0.5165297400063298 0.7469113818908233 -0.033668338786722665
Ni 4.485452816088766 1.8541749119655926 11.626204456092294 -0.7733250959976617 1.644756803761774 2.5726779619721825
Ni 1.2852022609065197 6.0139598515619905 7.073732405513494 -0.1291205436494615 -0.7514961730480283 -0.7027274882847574
Ni 7.518032594507937 9.518520691892753 8.660233370747576 0.8893630954315521 -0.5649317854588013 1.1443615074234614
Ni 9.391073536122827 2.120158560592956 13.043205611773892 0.1693130567079471 1.1954079324773155 1.3535940260341657
P 1.6275843637665235 5.146802004520178 4.856194364918339 -1.1407953873387577 0.5617130214111875 0.13279336451535842
P 5.210468956002994 7.533670919234742 9.615669891192882 -0.8166394425145806 0.8031514353304748 1.874256043041314
P 3.6138309210108774 2.6757390675437995 7.6032977995437365 -0.759321325519402 -0.9173377262676071 -1.5275034438635435
P 4.09894930822103 3.5863765537023227 3.233599730954508 -0.3466857504955771 -0.8647851489818719 -0.20586900145510997
P 0.7990721486446393 1.938142428618811 9.567103313616457 -0.0004453150675347169 -1.6385643017978169 0.7256108206408342
P 8.092790576319896 5.452292006380133 8.39438656925874 0.04223756851297242 -1.067421502432297 -0.3050436494747585
P 1.9249956655865605 1.5242978062468178 12.197499733412844 0.752079299245008 -1.4140540310924354 -0.9094436682315111
P 5.161572057747365 4.272981117492171 12.775549596736395 -0.34667880851704164 -0.6055140777565378 -1.0353791292847716
Ni 4.4318464887210824 3.4436402693521737 5.335480232707148 -1.8453326751387447 1.821273577307012 1.0688469220249142
Ni 7.880913454945865 1.6433736922323923 3.497443845354009 1.6404517486285168 -2.457679716656716 1.610555989510349
Ni 2.8748941239016967 5.180136079918533 2.7243254643609776 1.9486935933255989 2.6749479610877027 -0.878929558803054
Ni 7.389924797379604 2.1989447614495443 7.81498333492383 0.5898457750916616 1.0403932946699115 -0.656120844169812
Ni 4.872022388092343 0.03492055843189536 10.611993505309844 1.4525964101420081 -1.7439895587128675 -1.700278490978162
Ni 6.578723273394656 4.171987929259498 9.532308277042658 1.2021766186597167 -3.693130266878214 -3.081161177524952
Ni 1.1147851036392205 5.9705462765811195 12.927175282450563 0.7788038597240458 -1.4761256036122 0.595791194041819
Ni 1.9399450357538863 1.609964114964505 1.027921146516083 -0.3113546792944509 -1.420230849327109 1.3797210621385205
Ni 6.7060760518276705 3.1292882355559057 13.587813809535003 1.1120296280599753 -1.3782100248106328 0.10712604165624132
Ni 6.818243516751072 7.6958489349893675 1.7684746274066163 0.6699654633623882 -0.6418098268637785 0.7000201166559235
Ni 5.31496354343521 9.085640160665019 7.919603444214143 -0.6046213907389394 -0.07836413903220052 0.6021479894977824
Ni 2.7121781573266563 8.84311871799471 11.410872180413808 -0.732412674054016 1.2646603390162348 0.9343496874445715
Ni 6.079268968707125 6.410495670343783 8.12900976690774 0.6956806087403051 -0.9148327004575665 -0.21710523649056157
Ni 3.1236539085420842 6.586858599836724 11.503212854398118 -0.16986661521857196 -0.25188557739454037 -0.4693877922132045
Ni 9.22252505012644 7.509038434299944 0.2977246345785945 -0.9899240822757662 -0.49364923586373044 0.23267609434562508
Ni 3.607894586518928 6.7148531441607595 7.24244510807611 -0.5534312410183694 0.6100266209149107 -0.6925716307976781
Ni 6.242305818227677 6.953873187631526 4.2490819444652015 0.5356111821178131 -0.9357709932721303 0.2821073523935593
Ni 1.0616884138908775 6.020292570868983 9.464720890984395 1.1519994835846934 0.05680801012797959 -0.7100592460594805
Ni 6.159348139079449 4.429638059037273 4.196895996018088 1.0130915215311649 0.630139589614702 -0.8384745361118011
Ni 9.525315860150629 3.9831483158264036 9.220091058607405 -2.033685264976646 0.018436609438632765 -2.1101429310147535
Ni 7.447136339017438 5.511306155153042 10.961491659373236 1.5560493738220362 1.1560965364722025 0.5907271492553504
Ni 6.131648390694915 0.7968297431195404 1.6720040011589072 -1.1663578091888944 1.366493764814969 -1.330363080530683
Ni 1.1854265403200497 7.382780432975143 3.687028095975363 -2.9329260245332263 -2.313852977145331 0.428871577266713
Ni 2.8114064893590194 0.3987952122275374 9.23788213038924 0.3837597725297391 6.097231793198157 0.3452587882410635
P 0.7975111474920663 0.4722245554408339 2.9850891024835757 0.001478641428055518 0.7487702894764331 0.2784023927381463
P 5.2585730846285355 9.51597250379605 3.33845483981374 -1.803330619675346 -2.2628191504969672 1.6640146235501214
P 4.001174387177157 1.0466635418540198 0.6911667642563167 0.41873885970808533 -0.9066326811452773 -0.3260392778898191
P 0.4981537849848434 4.166259224908762 0.2995215790734548 1.779459469484703 0.07751798898182134 3.0831854070438323
P 8.920923394547382 7.5155315950796915 8.594220198669056 -0.24973536382075703 0.5699683194414442 0.23473066288180866
P 7.260882664615812 3.109997507890493 2.285760586130855 -1.5014224305057755 2.333821192737142 -1.8399752674815733
P 7.662401606786714 0.9466613156589541 12.684106451226144 -1.274923668615456 -1.0069028762219496 -0.1526620784148274
P 4.665666340927835 6.525636021380005 2.764024347360876 0.5392027561238134 0.5536641829647819 -1.3089180232830298
Ni 8.920253315455286 0.377106356431116 6.667392668972977 -0.3679348896823405 1.3351813278549327 0.8847086273786764
Ni 8.88925036027873 8.938987216832901 4.741104033870682 0.18704698365260045 -1.2431072954358073 -2.1234625309417945
Ni 0.6007721509591912 9.374179992815051 12.954455995459194 1.202873387616425 -1.4490763128038915 0.966858201595238
Ni 0.8385190441549749 2.237469590378221 7.533403831371273 -0.3788132271577412 -1.5022837500648063 0.21069290520631453
Ni 7.311940803886792 8.51776228671416 10.92328488206996 -0.5717770905154088 -0.7147363398201755 0.6810500033113239
Ni 9.071030548910587 0.5371070870231139 10.962555291960266 0.7563185341373361 0.5983386430540211 -1.5311117300400923
Ni 2.232873414070464 8.582759958647475 1.6751948989200012 -1.044143248630647 -0.3120645608772819 -2.1206841968657093
Ni 8.638574715698969 4.334590643030241 12.669851698258512 -2.032884366341906 1.9371061455983152 -1.7049792388879412
Ni 7.049383052589441 4.406543924694188 6.503059074843215 -1.2145845054057662 1.3005850779373018 0.7551129438650093
Ni 4.687637384961633 4.572789603669848 7.8021782178512105 -0.7871023522874122 -1.15825112092136 0.42412609216192765
Ni 0.8378282020487576 5.828263003448162 2.0331464310508616 -1.22763233972866 -1.0602918333660512 -1.5998787123021607
Ni 2.29433193586947 3.1984479480471704 13.345311242332077 -0.1824871321960599 0.7180070401516474 -0.49315352717423455
Ni 5.76625709309505 8.857813269352365 5.41693636842506 -1.0971737939940653 1.4325824289139262 -0.06882277520066857
Ni 9.340893106085154 3.8790784264103038 6.19096643449269 -1.797470304239827 1.198789961575671 0.3543838904707832
Ni 5.316917154309349 4.067927477577091 1.4792288527764597 0.7028604143181959 -1.3321219722033186 1.9720070712405586
Ni 7.90641421138028 2.720105853627511 11.144252428535639 -0.8494719156635693 -0.30658811114374296 -0.8682967616795562
Ni 0.9784287272645213 3.400094566099622 11.127221094315969 1.339982091677686 -0.39309699077026494 1.9437383062028526
Ni 1.743545797633905 8.05414305685323 5.970149891766077 -0.42616780518230474 0.09339455100276173 1.045630888919767
Ni 3.2693819544724363 6.665909057236675 4.58652150619097 1.2009324618399706 -0.9387190201568607 1.3444028464532007
Ni 5.666830568655165 5.85062099456331 0.20720449942337216 1.4546442938099722 2.4864848138138664 0.054996410840537545
Ni 8.782745535570225 4.574356267462635 3.900772001073571 0.2226287374119521 0.3868605229422499 -0.4407765562344151
Ni 3.5204256706661656 4.83232728018592 0.3094793318913497 -1.2289762553510641 1.8779059810890755 -0.02530659708558867
Ni 2.9611078211734903 7.887491555328836 8.996705564769968 0.013713750041666703 -4.538323609771087 1.166998528096687
Ni 2.7006735599567255 8.728601257382126 3.80843132708926 3.3727013931966363 3.442592718871136 1.02486280313448
P 7.323502027658872 2.6180933901561567 5.391520551593868 0.45344232462754164 -0.44813068260664113 0.2905292579086674
P 5.179664193233958 5.9402889023661904 6.138337856335445 1.6146124189679096 -0.6636472344538442 -2.2942768547856165
P 6.328028753347512 1.71520428335835 9.702871719182175 -0.3722384021537008 0.3686098042621781 0.4930887353745702
P 3.0086739989786184 5.045761627619048 9.36214499481166 0.6992603556717635 0.3587352254609435 0.685281267783852
P 8.552323267492408 6.771498421777104 3.1949371111139353 -1.2888019692594448 -0.17763571764102953 -0.22559501912912763
P 7.716640262311727 6.828860967154003 12.59798241242442 0.26950020515251005 0.5494899969824343 0.903163234539438
P 2.552293510859063 7.514417942504095 -0.38379204697817004 -0.025315853056969304 1.1447073207986542 0.20014032650144886
P 3.7141351546840706 8.97891826808161 6.532881369534965 -0.23574496307893594 -0.38277786823244403 -0.3176124872787046
