# total energy = -340864.7508729843 ev
CRYSTAL
PRIMVEC
9.28019822598033 0.00000000000000 0.00000000000000

0.00000000000000 9.28019822598033 0.00000000000000

0.00000000000000 0.00000000000000 13.58250816053566

PRIMCOORD
 96 1
Ni 0.6587214580819363 2.5330857705288 1.1321275670119486 0.6803012980707573 -0.0795455609348114 0.8130005602104128
Ni 0.9490951466087976 7.6324711408215995 4.379475853624847 1.511307036609339 0.5488073690931129 2.1902505351006214
Ni 8.605184391762215 2.693735280975994 3.407959748247611 1.5084567116447376 0.8610804464367751 0.12614397751964082
Ni 4.21764590197097 5.841801223552313 8.405765925457809 -0.19125947907205124 0.29960988005369693 -3.6040374285745993
Ni 6.599148915660509 2.6796757807548914 2.1619010443944577 0.265776990664652 -1.233530964601282 1.3204975005905129
Ni 0.14521282881829475 5.323771281742321 3.4336037198390112 -0.8076953459474154 -1.380355610398726 1.0024800645639056
Ni 3.0308106387521447 7.610504911763283 10.004047126533242 0.32778865648075806 1.4395305780969856 0.31545096085101154
Ni 4.178437064720702 4.402238323685783 12.648303174948937 -0.2201031427766209 0.7726730642359597 -1.4934242427916473
Ni 4.549180981442172 8.02299115983427 13.56961804834858 2.5019399720266717 2.167607858000441 -0.3053598951635967
Ni 0.2517689921771831 6.60121839985147 6.795940157864193 -0.9233242828683453 -1.379169817620741 -0.9896823985786053
Ni 9.245063335488425 1.5827656377621246 5.987807509313779 -1.379769398877953 -1.4659941716051528 1.8566853811474024
Ni 6.96036206886576 3.7524945293093874 5.034655060066918 -0.1323022838115528 -0.6812500351372719 -2.215684916013326
Ni 6.78147696902288 0.31985038196071375 11.966461031156868 -0.9857223854895927 -0.3895185293903872 -1.0202546149385074
Ni 6.920113849420929 2.220593657693705 13.395476985808031 2.444138744747488 0.6909042703975844 -0.0989080246218232
Ni 8.37522108121508 5.980753630687997 0.8081874017195915 -0.7117731434267935 -0.5085441506976919 0.7590930115586798
Ni 8.654638567787464 7.403640014450684 2.9324229058187443 -2.077825192718654 1.3484037400824778 -2.1872112340536654
Ni 1.0226035962796551 8.898614977564872 10.768918275294407 1.8580295538801228 -0.3102390776327689 -0.7254182450140539
Ni 6.0874016680087255 8.396036565700843 8.767644468871545 -0.7666823938701636 -0.654057276772564 0.06050268537074742
Ni 3.222298247704105 1.270644732853659 1.4941304650811045 1.3017207342036419 0.11314936503218577 0.02965381831069087
Ni 5.761267663869987 4.104603808114043 9.877254563054132 -0.5464085298436331 -0.25273532698934537 1.2867417442963065
Ni 7.907573335246912 2.934046012477933 10.137047214565419 -0.4571429134075804 -0.37989694714022315 -0.15804673976550845
Ni 1.4314148858770068 8.120813728699376 7.87913138390854 1.3408891768729874 1.6241129022591771 1.4977933183936205
Ni 5.413585039590391 4.247741584622478 1.2395245163246533 -0.9825614712631079 1.4309577488263097 -1.3705152272695365
Ni 1.7059231476197123 4.874943777654281 1.7751524979163456 -0.3266026065924569 0.39745783884212194 -1.222272103858011
P 7.7545335872956285 1.707992631810673 7.6986064730497725 -1.2659039816153488 -0.7101816305699576 0.06475246178603687
P 1.4283617006804772 7.100752906717135 2.0680865931171355 0.03857323228750777 0.1310334444014582 0.1981677761561103
P 8.313247917864242 8.257251202132142 11.149663461579099 -0.9189865747249398 -0.21997355917729214 0.7517064892866215
P 0.5030043729598359 3.9777249387919924 9.939122860165698 0.8185531145975258 1.9953079507500282 0.25972229983013984
P 5.3942265462166485 0.4597029683184748 1.4550264940701092 0.5821615190735264 -0.48808151196796584 -0.2011206881368472
P 5.105213334740886 2.779122384299004 4.048972732189674 -0.23112623336000193 0.045138801320167427 0.4338536038623367
P 6.321448265748788 6.154432539359894 9.199459513682143 0.6988260963478223 -0.21937423503039638 0.7440183766137444
P 5.994237758622822 2.4942667016014934 11.324008688479296 1.1328128833539135 -0.6223167511361734 0.36318091993712287
Ni 6.342412233405204 4.043076094275161 7.72267466699263 1.126131614678996 -1.3286725802021375 -0.7013177524214245
Ni 5.100656757441505 1.7330955678490105 6.698988071587032 0.6971106563186124 0.6959438897040208 -0.8087276438666718
Ni 8.24792460297557 5.294612899105553 10.957471485586359 0.08536319605785299 -0.028814353128531024 0.28080200331857447
Ni 4.797945973473104 5.279987306796341 3.266702139887556 0.9496256397670355 0.409218836032792 1.4055076841843213
Ni 4.17785241223626 7.007477634953243 5.857375252114064 -1.0005039146741415 -2.643759194189724 0.7645038981616059
Ni 0.3839180860375601 2.6441326217800922 8.139249770375443 -0.41667966318621147 0.03203671672057063 1.2001886416954104
Ni 8.445017451619641 5.140821455102845 8.440890547495334 -0.22684560370677706 -1.3977118422889865 -0.4553428840843642
Ni 3.737739014225854 0.105490796609461 5.711648300317387 -1.4919630848650884 0.2745130849860692 0.43401815446465897
Ni 1.5256552982501363 2.2396551847261432 10.674845834508078 -1.1609872889056008 -1.0058615794416288 -2.169850631288031
Ni 1.3692375581665226 0.2686738011559023 2.4193977748795374 -0.5070254000603204 -1.2369813850437277 0.14443557673997706
Ni 1.812775349300088 5.917379157414131 9.060361407435257 -1.5102600834020634 -0.4686521995987607 -0.04601914704259172
Ni 0.2621637421426329 7.817676055615351 12.96374360674129 1.0638368704048324 -0.17598275541863886 0.05804599630013874
Ni 6.490737640688288 6.462368074895609 4.657957896222124 1.5431020696327489 -0.5117644574072026 -0.35881852920336915
Ni 6.354680655380316 4.3583337061636485 12.524213005175692 2.58237102089023 0.7607125494399738 -0.8827818426696087
Ni 8.59420591733214 0.7099175273028958 9.582988759416558 -0.6646792752627843 -0.5908603323991051 -0.7337900140175169
Ni 6.411336265182183 6.65503426901462 2.1041345948721513 -0.45463403094279764 0.11876953943244062 -0.2667956617371534
Ni 6.00324883104176 8.68048391967906 6.172855588758529 0.2093417904950588 -0.27158305582346776 -0.30538637752615794
Ni 2.3125325809217303 2.384212831553936 12.683767452239328 -1.1560163180535705 -0.3178739684702074 1.1299427608949701
Ni 3.396218441528312 3.6385986572212117 2.554123051750725 1.6453964942283017 -1.6157285348502237 1.9473856731474524
Ni 3.9185822358817064 1.9919666956824376 11.155177755329184 0.49861712139196707 0.6126224066665449 -2.5844551571127683
Ni 3.0848863534639346 0.01716094244809368 12.162633284142894 -0.8557703470777714 -0.9604741524457652 -0.05990181856195489
Ni 2.622713924413555 4.253560268872399 5.181400977622194 1.278009506629631 -1.474273123784493 -1.2753761827718422
Ni 1.9602655387482564 4.101049492216563 7.274411398953068 1.6255797166126906 1.9158742328027327 2.534128126723442
Ni 4.536717675305578 0.5718680834487389 3.6551072017382538 0.09409183418010247 1.3761436291999072 -1.3517330615660268
P 5.870671920045942 6.200508723252812 13.62515725031111 -0.13877066514471584 0.7102513074656284 -0.5535166016433243
P 7.877440531802741 5.019158057149943 6.225610731271334 1.4606660745240199 1.7447855722516015 1.970732318293193
P 8.264526877494086 3.7553899511370994 0.7162642548284481 -0.5919497088085418 0.33618279408172425 -0.4337039656583498
P 4.556957787505065 0.03826875317607825 10.316458501644295 0.0180915673943882 -0.5170689003392515 0.11768607656027473
P 1.5787473119563575 0.7380615842801475 0.21729676807071072 -1.5606135961539511 -2.101371098359394 -0.3877971758239063
P 8.080342784498567 8.169107879953907 5.234766757174304 -0.6156928180617526 -0.7149649108912138 -0.8134834133841023
P 7.101597404750217 4.81585675593299 3.0323353753107765 0.5550705763940054 -0.19262807728480374 -0.10725511103493787
P 3.7501280787771227 8.260341508121336 7.501877408173801 0.34112599701961255 -0.42830413479901724 1.967817458639243
Ni 6.549880343598574 8.667398840265362 3.405814166431691 1.530292062352274 1.081519118175944 -0.36482925417382334
Ni 3.394733609821793 6.303630285270559 0.5293211589182526 -0.8380608456131503 -2.6619947433611446 1.1045819135326782
Ni 5.858459179259824 1.5009050097420973 9.05805249413162 1.1741922176316488 1.0439079926913895 0.6227877772353209
Ni 0.8493469366242989 5.255320540071794 13.221145679205081 -0.6555559728052774 1.6991132670254672 1.106534666383675
Ni 8.048186897854263 0.8860677527463311 1.433457457493287 0.24360893920804494 -0.615935530200178 0.7810890562137967
Ni 2.104396296460425 4.5819215205709165 11.641336712578562 0.17469874649989267 0.05765904527436522 -2.2041267788620815
Ni 9.071365866420194 0.4471088113877437 4.1799079761299724 -1.7188549684287686 -0.860612248551105 -2.6490168430442376
Ni 2.9673990446856164 3.9333099103707423 9.58971226298764 0.567922492656009 -1.1925583788436622 -0.9657461994779818
Ni 8.22155955998669 8.592322037104493 7.291688343878232 -0.07434987566648485 0.8673521383780998 0.8988964888432842
Ni 2.214515127895143 1.8642062075346408 6.644603326276323 0.6666171157154456 -0.3381242340788112 0.06021472181668339
Ni 0.2500261709616564 3.654514197075463 5.93516187313933 -0.5385211566757565 2.686341804746941 -1.8609611257046208
Ni 3.4629894673308397 1.4197589569808327 8.670475225957306 1.9619643422925759 -0.5830161537643378 0.2110564591933204
Ni 9.083123877496192 1.0230954467824396 12.22541196869452 0.19198350172226936 -0.593315478807817 1.3070331475554908
Ni 6.943592750780261 1.5154192396733208 4.961975332092262 -0.5454847324777832 -1.466010883775701 -0.15841800706199816
Ni 6.212489459084789 6.768132044060541 11.396878660516352 0.6368190585174065 0.6404936791555162 0.14895557609751767
Ni 3.7350384765596227 7.76246815672734 2.3017192940190054 -0.4377436829453622 1.8733433014190577 -1.277997165334457
Ni 4.817462230215663 1.780628742853951 13.232460096808756 -1.2388320650992213 -0.8420069747450918 1.1005036296982467
Ni 7.398229658920056 8.093186578759957 0.31744773865560266 -1.056034343641278 0.30920857948572555 -0.09235505399465385
Ni 4.930643527045077 4.351475639719164 5.927134501725961 -1.6095427177544859 0.3592954688397877 -0.6348773614100034
Ni 8.852455271888461 7.114162793066635 9.38286407003174 -0.12076188727212105 1.8315952709479941 0.037649692031973866
Ni 2.727969932009423 6.189920017145699 3.680574849564505 -0.29618208531907053 -0.2906953511728865 0.16520186275305096
Ni 4.200384733382687 5.6902091865148865 10.499835217399395 -0.3276739852797647 0.5000312281306744 3.6540983497867323
Ni 9.267725579409172 3.3193691205177864 12.4007752333335 -0.7124791683548827 0.1718273384893686 -0.9406897707299865
Ni 6.324380808369163 6.303398280316416 6.960424246193471 0.33653066433944623 0.9571571722573903 1.6341849417831984
P 4.233097431916934 3.2942105032904547 7.919770299696149 -0.06896315743327477 1.3183010071598265 -0.5700796482083278
P 1.5405778569006527 0.9183359297884394 8.872284271309207 -2.6652140216293905 -1.5526763435847453 0.35954820828054207
P 1.5466099857083864 3.5202297296171485 3.5475339286603997 -2.7999483119212036 -0.6327202058576844 -0.46213291042300414
P 1.738301759019993 0.6528823573960502 4.918701768045397 0.9667622994473221 -0.576036122902079 -0.7627519484675057
P 4.819392511434138 7.644999408345353 4.034031613142827 -0.506812769828882 0.08844954829266058 -0.24970631035503443
P 3.345947608064477 3.3248815582282383 0.5193106091568647 0.36546380243402865 0.6725111126023773 2.6176627542129887
P 2.0356300280522626 6.1237429240257795 5.73415463690895 0.06072868533862445 1.2161829602411378 0.8675123181050478
P 2.3506834755811035 6.70363466680862 12.345997007620563 -0.17379397529743618 0.9366767929158514 -1.624724824811563
