# total energy = -381171.19911148836 ev
CRYSTAL
PRIMVEC
9.14040172545285 0.00000000000000 0.00000000000000
0.00000000000000 9.14040172545285 0.00000000000000
0.00000000000000 0.00000000000000 13.37790185116139
PRIMCOORD
 96 1
Ni 3.4633804747068875 2.932176888441939 11.493891547662933 0.7858535674819757 1.1457247063195752 0.09274071946884674
Ni 2.7947692294096416 1.9477647637749158 7.875343613384949 -0.21665863587144624 -0.13221255231122392 0.2602756012304485
Ni 4.248047400622312 2.4774419029528962 5.88246365480849 -0.4654966846889144 1.173335011837676 -0.992952841799761
Ni 8.051258870816579 6.232748527741172 1.5518765985889282 -1.3955269188225257 -1.6029514376902136 -1.296505765661606
Ni 3.2828026983587164 2.0741308175314184 0.5363039304238008 -0.5197963265727436 1.4118665365228138 -0.9593426099444833
Ni 4.035843834328571 8.109117613693877 11.235256568720203 0.44606377277528336 -0.9832893505680679 0.31522393244187
Ni 6.2714672694201985 6.474557855200722 13.131708031288344 1.0615197922358814 0.1474280837093977 -0.7645077548163479
Ni 1.6634342875214956 4.1439382250500465 10.038991869185422 1.7972916125701175 -0.5605925346534991 0.437487343960182
Ni 5.317684630911443 4.292963334666395 4.312205708363914 -0.7900084701906136 0.7023757613722936 -0.3760469772665137
Ni 0.20947515638080674 1.4294217227277173 4.044675290468862 2.7125380035263347 -1.5127674232049495 -1.5407381973862628
Ni 5.716928237568244 3.7105277967699672 1.7836890686890943 0.3064369302778594 0.9803132986588795 -0.07264626271181682
Ni 7.650168903012665 7.241519822987659 5.914210098056742 2.6075259228893026 0.7977297500942713 -0.4416522739711491
Ni 6.524985451480984 2.8867765131067817 11.09928395275769 -0.29551771226219425 -0.5483543407160943 -0.19876710030300607
Ni 5.84473847479625 1.4854249640561867 1.2508073046686523 -0.10118833601556768 0.17994328272828364 -0.11304266425099242
Ni 4.72213261654915 6.008214559529346 7.893229551467461 1.1160354067852587 0.5401468652046374 0.4225942288984335
Ni 0.338108029763466 6.165731102342063 12.623080323227606 0.577609895147102 0.6519654272405416 0.6078704938038564
Ni 0.4326426345357358 6.088595252240716 10.360623410811352 0.6133358877938018 -0.11401454124595849 -1.3563245375914512
Ni 3.8666001561111814 6.628454798932963 0.3541375522569762 -1.9232867232167197 0.34865033042111565 -0.2223456589538945
Ni 0.28019718659637194 3.0069088128913544 11.809664091787383 -0.4578463672325082 1.3649495602563009 0.4211991483231198
Ni 4.606524815615172 8.217614182090962 8.960746208557929 0.7590942971102604 -0.6831696207574879 -0.6821964582109412
Ni 2.2965533529463 8.608274951534213 8.363074535037146 1.835483550258807 2.5110697022420823 -0.5996586474170255
Ni 4.519279681213304 6.876141404697427 5.006933823491066 -0.13545291362539252 1.1211079362121597 -1.3235964512308107
Ni 8.926470616154203 2.4442896659203583 6.129727974013565 -0.3392460063880802 2.7773174618955654 -2.5319437174776134
Ni 7.223028790311391 3.808741413233882 13.21390217970064 0.07362688145753125 0.5449661409701517 -0.2518264420218308
P 5.130342957291675 2.8705340192532334 12.9918288076314 1.080419714464178 -0.17433416407162233 0.10163776484816045
Ni 6.751886783737868 6.144141473483267 3.9390698311352996 -0.2668900212231726 0.3392822589426544 -0.009001946388294175
P 5.638869206893341 4.018541053875691 7.239184450348614 -2.950002263289223 0.5911035587581627 4.244711856282355
Ni 7.606651450431493 1.37862851037872 12.86388237841779 -0.32343397905648813 1.196015227044011 -0.3425632436867713
P 7.270586300452083 4.062488105337628 3.463699474726859 -1.4499530589818899 0.1065457436727391 -0.03779907312564458
P 5.08891865670401 8.112280192688434 3.0996729218507753 -0.9646881905271129 -0.92067810349475 -1.3550294729291115
P 7.7478615165786335 -0.001985295253230554 8.204559860356783 -1.904009877264979 -0.5569089151543247 1.7833868295635673
Ni 8.051149185995959 4.772587634034567 5.510144015453327 2.302820373480253 0.22686437275985447 -0.5133713968830061
Ni 5.846868188396631 8.134847844531098 6.711786927359196 -1.8615313963857938 -2.4452162940823823 1.806543984406321
Ni 6.529829864391722 8.79398049324639 11.941623157355359 0.7610272524669152 -2.440888613241306 -1.0827213660141612
Ni 5.193256342319235 8.420604223452584 0.7176010563872081 1.2957028101443362 -0.8947081617935495 0.9893664100000831
Ni 4.298091100030402 5.4235944656222275 10.3047298543035 2.499324903001328 -1.4931931006174477 1.7180047046133315
Ni 8.295344158304005 3.1839309729710785 1.8191273201913971 -0.2850162985102382 0.37157839997219877 -0.21945393922839626
Ni 8.129171655063988 4.108765959237749 7.733082401040196 2.4004564733681883 2.740061662867901 -1.3181657671335427
Ni 8.805022098522185 3.225373554362181 9.697574099959734 -0.9896379184939149 0.13883802804754153 -0.2475255006536318
Ni 9.007070678506814 6.329207187075159 3.6026418072076707 0.6240208783114737 0.832675670041837 2.886371573812455
Ni 6.202411534437893 5.666144165620966 6.157459952827107 -2.24065444147447 0.25660226614391934 0.5784889553179458
Ni 8.042502365970378 0.8712411548311633 1.739019925491407 0.920352344724215 -0.2962905858724768 0.45428333247159824
Ni 0.7698530768504576 6.452008484161497 6.051119605195388 -0.84781355412454 -0.34156925520461817 0.7496748035685734
Ni 1.871451549828222 5.2199737365420384 4.414426476941163 0.12889171546810707 0.2736080566732965 -1.0447860244209684
Ni 7.602629673675409 5.069486162650749 11.253250363542989 0.375653855593153 0.6885843640151561 0.38219937002115467
Ni 2.9501743394254145 1.3896792560562328 3.973625119831608 -1.8193005127410409 -0.9910080593685642 1.453804571517496
Ni 2.1244852905979337 3.3305521569354952 6.14618252518698 -2.325583892429014 -0.32135009994426594 -0.843814717377792
Ni 8.317473070864184 0.9834523824865941 10.433318853757912 0.6298140879544831 2.5550504786984063 -0.020597621645693558
Ni 7.3555828960312315 0.6244612769171619 6.243145734695821 0.8512241224679856 -0.10542037181904425 0.2678986649933451
Ni 1.963349148704741 1.3267841518321102 11.920566413916742 -0.48610999006389183 0.33488284432337806 -0.939129368221402
Ni 2.797931808404199 6.491714389226107 9.346190550740504 -3.0049395387570508 2.2570290261777517 -0.7121464676058122
Ni 3.543249304922029 5.04914876882737 5.792952614820637 1.8561981570983388 -1.093028404367124 1.2041818220152036
Ni 2.445532760554057 4.435114862190528 13.275360412774633 -0.8515452532528301 0.2128330914777689 -0.20343108143757865
Ni 4.733823190346948 0.7956737976646886 12.471963889698094 -1.378043931546414 1.8880487259500323 -0.6821617483182638
Ni 4.657418572383071 4.890553658611885 12.664846474839536 1.0150789842748391 -1.114832130505777 -0.899401967724793
Ni 0.07113700445357934 1.4961740764769933 7.945884663646491 1.1415865157814855 -0.49530656896149533 3.6813204187274793
P 2.6157910233621857 6.424185101330769 11.64915589549224 -0.5075841007772677 -0.21664603746595593 0.5700958461582439
Ni 1.6327773801580734 8.515710103332252 10.615164403824421 -0.1510178579431851 -0.7822087716405368 0.49986719174898425
P 6.327397387534921 6.842806359630522 10.605719626728826 -0.1670502288156994 -0.16874175758550938 0.003913990342425517
Ni 1.9038085719112612 8.119226897994398 4.569035457967265 0.28640135178322285 -0.3902590071008376 0.10031107561693693
P 1.6533798456312856 1.5083399511641473 9.750470518744129 -1.4461815077545996 0.5954492373213681 -0.24190455492242852
P 7.596139988455365 8.209534066971921 0.5840113431526753 -0.8667507573486751 -0.38372506263706174 0.1783718244761057
P 3.269539975465358 3.4625395577487974 3.9568488265177066 -0.6346395343675844 1.0214841164702344 0.4131410539053336
Ni 7.21561592451779 1.4385529840443716 4.209356994188612 -1.2417232706040873 0.7988399524393145 -2.020733075691352
Ni 6.526877514636687 4.654914102312238 9.32335417108732 -0.9942414787041972 0.5905294314222475 -0.04394298123985335
Ni 5.146978488419113 1.0218603505071964 7.257899422866982 -0.0007913855530437984 0.1878216570350959 2.1619504026043477
Ni 3.7586611522189184 1.1093614161571783 9.914657726730915 -0.7020353473137393 -1.3429661140066742 0.9126261797245508
Ni 1.2011493302130771 0.5734112192798785 6.206021993116649 0.4170265050026689 -0.40741392161356926 -0.2612801312355629
Ni 2.8058473962923096 7.1595669811807285 2.6182296825406475 0.9349114734853124 -0.007849577951405836 -0.23305404651033412
Ni 5.093488857563196 2.1167342299407537 3.5397658978271567 0.3877966616032741 -0.5972268980470812 -0.921416010102039
Ni 5.229278665491341 0.05642369980751478 4.819883728686115 -0.6197962987071648 1.8600874648504158 0.5325392280607086
Ni 6.032674274527711 0.8413054251633207 9.698443352163151 0.6607642564790942 -0.5535137734298468 0.09114072197157852
Ni 0.10699114423406816 3.7370258213515304 3.8449693954446524 1.8477754802522823 0.1682038828041684 0.8540212255971485
Ni 1.6861573261933702 2.857198173146127 2.2175208694883906 0.5061203717475478 0.3912486247076165 0.8102520509309981
Ni 6.5748006408461155 2.9785918483678357 5.927534061641614 1.8451388139603837 -2.2643908658594616 -2.143676029775192
Ni 2.4973679786989487 8.725336076341412 13.147935900499144 0.4398792412311263 -1.0888146233960927 1.2997564113884195
Ni 0.3667577049095334 7.926867143831244 1.937066837603732 1.2561379033675206 1.0867418000274638 -0.37207385155137856
Ni 4.657080377519491 3.0971702798602845 9.420170220128496 0.5681765176483441 0.5950800269074075 -1.3541943786223258
Ni 3.0427757492342487 4.546618622752956 8.1238647378263 -0.6767652598930408 -1.6353758767675062 -0.6677257753985919
Ni 0.5621959463714351 1.9075652770175124 0.3327206769906571 1.2529443361308872 -0.6256113627270451 1.0426918608961009
Ni 0.0804748388490689 8.630723778154536 12.694251147167542 0.29056242513944797 0.624693478898466 -0.5584880867159866
Ni 1.2689619705616844 5.420861485508434 2.146952398021694 0.14860487762631824 -0.693445034541567 -2.014124569235899
Ni 3.7127306335840955 0.530679841246486 1.995086451551275 0.31348278138104724 -1.9612891706024222 1.1192246031465176
Ni 6.925371608352583 2.458338463361497 8.29926264852067 -1.1671548511688932 -2.0949667374949468 0.6144095804739548
Ni 7.34873673514417 8.310380119130727 3.1809301790869364 -0.6848500937837044 -0.36929063237928655 -0.044915629565767806
Ni 2.794111120485919 6.9505625554884185 6.881526015349721 0.6306499535922171 0.6987726174020675 -0.4461951561468251
Ni 5.460649654188511 6.1907301010418125 2.0956884549842005 -0.5552168721638825 0.3953076252683385 -0.6918306388665957
Ni 8.372416025593322 8.046231649871475 10.452890281917291 -1.4588076811590425 -2.7031712175994542 0.5889471745367922
P 0.9913039875626762 5.323826980866189 8.20302153074758 -0.6629818329557033 0.3094451209765638 -0.21191212232539633
Ni 7.160225090104451 6.891872036054747 8.38599135022545 -0.5032821309678043 0.21398288881149596 0.5836152208009174
P 0.3457941935684456 4.40932064854128 0.3933288527048429 -0.8996529073933346 -1.269271098315369 0.21304700726078793
Ni 3.5902583909596193 4.6564039877923316 2.169587688837072 -0.42976940649063405 0.1320631712175532 0.04021950964167912
P 3.3459720146343903 0.29447266600012645 6.276818060586134 -0.22683917594887384 -0.6300205475383344 -0.35897948026126564
P 8.879488951321767 8.494248440097513 4.736084525732073 0.8758506627674141 0.17322139062341782 0.009291452604254966
P 1.5371596377821763 0.5956132550538059 1.9773741811014123 0.16767937775926606 0.45810322043832075 0.13339911642015737
Ni 0.2826934303056596 7.8870698347494494 8.418833727639734 -0.21857950704324292 -1.7012871347483345 -0.8504566481743419
