# total energy = -381166.7237255255 ev
CRYSTAL
PRIMVEC
9.26984481704246 0.00000000000000 0.00000000000000

0.00000000000000 9.26984481704246 0.00000000000000

0.00000000000000 0.00000000000000 13.56735490001338

PRIMCOORD
 96 1
Ni 8.242226896999124 2.539937478943523 5.217367150132251 -0.2236237543353697 -0.12065647204250833 -0.1376740896464274
Ni 6.259944742355908 7.736519783034581 6.976007809754488 -0.4000078589574853 0.6026709518807879 -0.2818816095359984
Ni 3.750050830453466 6.429100870515622 3.524609131569675 0.11799306627773228 -0.26629558217228333 -0.3241086365260096
Ni 9.194712721447758 7.913091787045223 6.48089520142748 1.9534830442944422 0.5629008710717015 3.6307524759719403
Ni 8.217003649261148 5.683573601376816 1.1683054244158437 -1.3535019805409916 -0.14226916521627755 1.1325287764545915
Ni 1.2876834129106707 9.168052647763664 2.9350256807776693 1.1492291199284077 -0.31362162095175666 -0.26427803752162227
Ni 0.8331727248675035 6.258786011754201 2.243077187677351 0.7631754091581695 1.0311797464914434 -0.3200244391543069
Ni 2.6606586679518496 2.4671970066907134 12.983483693687893 -2.4177165460002166 1.056817758774522 0.7593928021872858
Ni 6.054849425853626 3.0305440157066106 6.553276930686001 -0.9587813381243747 1.0599236513933552 0.9824393438629467
Ni 7.750674836065042 7.494261658674324 5.005024668954647 -2.4760942146081613 -1.2041085455751068 -1.5441847611739663
Ni 0.9618669074000612 3.257784991468733 7.8861332243581295 -0.6017286425721766 1.6206745660015893 0.10890241683037373
Ni 1.9890769508916293 0.7586162900156974 11.056525826861577 -0.11333139913600483 2.0153381299280255 0.16099450953992273
Ni 1.5995209924422769 -0.2039161922419848 8.673772471500923 -0.07133525720987714 1.5830732107090477 -0.42638814872322695
Ni 8.784670405960211 5.036797989037956 5.821955698724132 1.0261699519816778 0.10152103676463807 0.12070455167162436
Ni 4.745947338164482 6.805994220949511 12.830159533485434 0.9815880516062451 0.6520788128899544 -0.5980573643681765
Ni 5.242143591350208 8.91415159831745 2.0273558480651674 -0.4289001165118033 -1.01817639225324 -0.49515230277181815
Ni 7.1630686431717905 3.5377713842205947 9.967704686800484 2.478156496453829 -1.1348594814702972 -1.3659870003818797
Ni 5.888613298810217 4.794428626539936 2.4351363214181805 -0.3755394415024758 1.0266435491839867 0.3405300153068264
Ni 4.105994331608478 2.093677879768997 11.406902786205988 1.534770666948918 -2.5420088150230993 -0.4435847151071715
Ni 3.453823669588067 0.8654410546638626 3.9464723531636046 1.459480538856351 -1.1982214906667106 -0.21287551467993016
Ni 3.9444302063511545 6.008518741474941 1.1140925909921013 -0.5886149880083541 -0.38173040080453613 1.2580104377998849
Ni 2.5946851824130137 6.651669844491658 5.711029027745922 0.6014213957444029 -0.3916088362605126 0.4351666662468054
Ni 1.6540740291706806 2.186543185112268 4.121436966083559 -1.9188127466057665 0.8724856029499232 1.426313050965447
Ni 7.292725962580489 7.735036607864394 12.513795488731315 -0.029508550982078212 -0.49668236626309953 0.47736386844014556
P 1.251911081774747 6.3414359481128155 7.401059857964317 0.3162099505042232 -0.9638497537862174 -0.5548749154434315
Ni 8.466269776300532 8.100898842970025 2.7018167789245116 -0.7327268628603252 -0.12172270852349358 -0.880097096748594
P 7.955056374516673 5.262055218009955 3.7371824318831393 0.06032193681850901 -0.15214091580403477 -0.6634492595104251
Ni 4.67125092865599 3.597005692579898 9.4509108384388 0.8393564244961221 2.4509655378613338 0.22943984679651452
P 5.5155483942843695 6.005255756100532 9.278836563131744 -1.1428185884163737 0.2167979896627879 -2.327001341601831
P 0.055521735511431504 3.983307935499655 0.4076349367894386 1.04824467239353 -0.2994522714299101 -0.1508193687791338
P 1.3852485295744683 0.2444217061397644 13.185270602576178 -0.758779594083319 0.6286416649129367 -0.37020491666343985
Ni 7.291854597168004 3.037691066057944 0.5516809093179027 -0.2919863020701681 1.3232748062253339 -1.10542060738389
Ni 7.859576972935949 6.3826774876888 10.127731871787702 1.3448157656209032 2.28161108639249 -0.6382851015399718
Ni 3.188511441176233 1.77844753703559 6.367552808890829 -0.2183519644134691 -0.09474875103781101 -0.10338045857088003
Ni 2.550755387841067 2.904733681895583 10.221116288440538 -2.3089725091245783 1.0796627816934954 -1.023602705475134
Ni 0.39872198100110207 3.0755769218113826 11.989756329663273 0.1869657367927038 -1.193787623265073 -0.09596462572278312
Ni 2.808086279868338 8.009229347607716 12.064132929525694 -0.7348382527763732 -1.0150226771156068 0.15495267422121703
Ni 4.682365472587571 3.7654016934648906 0.7617476435937527 -1.0112992055174326 -0.5601698452937837 -0.07050581933004632
Ni 5.65037828709909 7.627840122439201 10.681958280491436 0.04986963113693347 -0.4420016868907678 -0.497173446966905
Ni 6.286864371694785 7.039826056374149 3.104156780356386 0.8686790847196395 -1.0859267603253364 -0.2104820747470891
Ni 8.00604979083663 1.0520810371266247 12.254889650070204 -0.6896511147167735 -0.023386754355056497 -0.5761981024012399
Ni 0.2108046139230174 2.181324262482176 9.654760287798126 -0.6367018162132518 -1.7538875345528697 0.9254423576526126
Ni 0.046165681141001946 3.605710076859927 2.6170746385914527 -0.8512822293994307 -0.012747272363339337 0.5102325941437084
Ni -0.04027932968432626 1.6312794807738844 0.7084182263807522 1.9985238865841646 0.18868451925602342 -0.21470202636570765
Ni 2.2849240481196675 8.037854628392306 0.9266433510771065 -0.5827143062532029 -1.7628126049566413 -1.0354542054970812
Ni 7.033735768331572 2.9453726815586796 2.8694007414038274 0.9505008432831372 -0.3523866575350963 1.3194132663873988
Ni 7.185928080482283 1.9476222048849308 8.262288695144852 -0.2350098846851243 0.9848798349836394 -0.4521068936455698
Ni 8.36319837181742 9.393782638821161 8.486272247439453 1.476569633128154 -2.129904944133029 0.36116260395551353
Ni 6.397194064666996 5.219580789073754 10.952043551997825 -3.653926857205875 -0.6691583940800605 3.9927545451096145
Ni 5.010100835974608 8.18992643256044 4.547695948088126 -0.7930449430240923 0.8844864840655413 1.5345480094151507
Ni 2.902286442864776 7.146067747783533 8.827966143146904 -0.11803471814894509 -1.1461471385689745 0.23147050407329814
Ni 8.812470670556385 5.259468931306944 12.208041708350917 -0.23603909728058703 1.378935847233064 -0.0297998569702519
Ni 2.080635208116174 9.024323703927829 5.676187389029289 0.872565050037607 -0.042323186248243244 0.2512536002374963
Ni 6.826471308142892 0.587199246705932 3.876301481893142 0.05742481777637207 -0.5054796528397553 0.7124686268319214
Ni 5.429607663016905 2.4482216343571466 4.42295813532204 -1.0843812702150875 0.022073691970587794 0.2620110958643165
Ni 0.5288826529831813 4.473895932573115 10.005869564882815 -0.45413935069456624 1.0408049282860334 0.36546097422055124
P 6.391771205451003 7.218140791209759 0.9365277866019148 -0.070161291506434 -0.2741665002799278 -0.6114584682654307
Ni 0.4345388073921312 8.488406165715558 11.385263260472973 -1.7911520753312828 -1.3636210712528645 0.11845226530233793
P 1.4524827140079624 6.407233306600192 11.23850493135203 -0.342812640693416 -0.8012398201300588 -0.04150968920801239
Ni 9.250025885450883 0.15181132152886928 4.800957378242199 -1.3065760054134141 2.308410465973521 -0.35987191016854797
P 3.4729566292834666 3.1775452147616705 3.549138994915589 -0.4554927793986671 -0.822996237970544 -1.639804601962821
P 3.8299105435231686 3.719293485361734 7.0039842014021225 0.5697909133233154 0.8023338245251859 1.060592909546238
P 3.218777484492841 8.247825883266575 2.6819950697594566 1.644339513718697 0.698095645939701 1.8966248976548172
Ni 7.968117585859123 6.368550244192779 7.681849946261524 -0.237858666987829 -1.6195962453357462 0.7350735087156308
Ni 4.481293268734418 6.032675957059345 7.1129706938608335 0.43052119705499403 -0.6178502307243876 0.594059298952377
Ni 0.08616228055851151 7.481738098331066 0.28297406373530537 -0.013431442914557513 1.035309709499417 -0.8476929693862756
Ni 1.7109630667921272 5.056375901284412 3.879449521191862 0.5546784831619092 -0.5135493172217672 0.7844078361743845
Ni 6.470852251556358 4.827948385386141 5.255233539211581 0.2525219254269586 1.1245007639437925 -0.7118754733326127
Ni 4.126304561595213 1.6432653901179501 8.680868537705782 -0.2057201345820715 -0.7056042956119202 -1.4389016862637347
Ni 0.5130080437397841 7.07207584648088 9.25794233292175 0.5427706759807298 0.06812086403763752 0.19814077957291684
Ni 4.121938464687977 4.086833562378637 12.140842749327716 1.0393949353123841 2.366126589738067 -0.4849699629221777
Ni 2.0538917058287574 4.207869926110629 1.6713761945153818 1.757537215490315 0.17756012720808775 -0.15270038785193057
Ni 5.4698758688874545 1.386842942882418 13.26137046658946 2.8609914431764536 3.001591191110108 1.497840369581472
Ni 7.1109628454741935 1.0584308808239835 1.5143338995581626 -0.2119910551924478 -2.4185714378013445 -0.21901865146319052
Ni 6.008565090699009 9.274201640724915 9.012196892942596 -0.7741465634576925 -2.014336171026073 -2.2567325779832554
Ni 1.9611747180025054 4.8347895308586235 13.002640754979808 0.09813977899723099 1.181818623828655 -0.8232788022079692
Ni 4.943042778592575 1.8914284056245088 2.0838101299648533 -0.8162465779515362 0.9199846769721511 0.6611362951065324
Ni 0.5804545076195112 1.4492938873920627 6.800636250647215 -0.23354409877287519 -1.4312392846224706 -0.37154317585888913
Ni 6.0415379287012065 1.5451162732308916 10.458463249018516 0.9299759838569079 0.7995732310609133 1.4590071987643585
Ni 3.713499832353195 9.108503164680696 9.921616872355916 0.594167542395467 -0.8704449183708105 -0.04138987580069646
Ni 4.220875518384197 4.602756045327838 4.852486591592387 -0.4091347609594179 0.3176502824951755 1.2610158002851122
Ni 0.7914028041371404 7.346796967378582 4.4607967148669285 0.6267513898687593 -1.9920999853356918 -1.4763418333880638
Ni 2.539548145461349 4.79048894249413 8.791578294315352 0.8137024713734439 0.4465383984188568 -1.2912254910992729
Ni 2.205407319308071 1.8497882627215367 1.8259221202642812 0.31347866761598914 0.2772950186065805 -0.002076680023370617
Ni 6.406769814359509 5.14316018842992 13.334064589618201 -0.4292577569615382 0.15049669533239243 -0.22520961076525084
Ni 5.508299375640085 0.8442779989542712 6.512873385081171 0.17681759261510838 -1.0935264270494651 -0.11627711202789007
Ni 4.749747974538084 9.178091889696862 12.049330841327238 -0.26634186202918647 -1.6224401425424446 -1.1196246667984135
Ni 3.5093500400219058 0.6662218927889606 0.35061982927852603 0.033625401363929185 -1.530345798408345 0.8846950005319215
P 7.739513942909393 4.014361915625424 7.690044489076802 0.8259815458511129 0.3611402353580103 -0.48043119451155963
Ni 3.8492103604252135 8.57101902269492 7.474093257313238 0.5419975452601311 1.1018565441817152 -1.1914409774097676
P 8.794718917738221 1.135648688121792 2.8820865240313243 -0.34742699953697587 1.3933121705593938 0.06678157640092369
Ni 1.9215646711137255 4.114633826974812 5.933479347708343 0.2928633053584827 -0.16091763355540029 0.6486283924475087
P 7.586969376655762 8.7270583204433 10.52240663854316 0.4006994857078712 0.5765485437621233 0.02904575241304675
P 6.525980018663208 3.072712539763961 12.071228068746072 -0.36411268772277294 0.11571995397283942 -0.09374910612870306
P 7.668896265118912 0.46234277992623046 6.317163786452722 -0.22143497421416705 0.01257166601742351 0.10729444891330554
Ni 3.7290824414849615 6.058455395486141 10.790374677494107 -0.44722411163197173 -0.5128399498595684 -0.27566082543726717
