# total energy = -340868.56178416463 ev
CRYSTAL
PRIMVEC
9.27797435838950 0.00000000000000 0.00000000000000
0.00000000000000 9.27797435838950 0.00000000000000
0.00000000000000 0.00000000000000 13.57925330552341
PRIMCOORD
 96 1
Ni 2.7602067105011057 3.913876457551569 11.338364063863851 2.9654378811180027 -0.18781420083592815 1.5334498912549657
Ni 3.7373908254120067 4.398121783924201 1.3447505609752615 -0.43074565436097423 0.6718302844852687 2.262299787658388
Ni 5.640581747543669 4.4512381882980305 2.781194416760327 -1.8156441469353761 -0.46795517353173605 1.3936749532154513
Ni 6.793666982196656 6.579939560160753 4.807870541339761 0.3214436880993367 0.6298912210493216 0.2545453836148906
Ni 4.31462001285617 5.211020803246035 12.742798907406172 1.742104940095645 -1.6751688403947278 -0.4182328666059442
Ni 3.290600682350668 5.339706310436431 4.215000544377098 -0.9489910915068301 -0.4994401315138947 -2.1996263198885666
Ni 2.753767796154304 4.812810134997163 8.247346531327619 -2.2709592631055986 1.1394111053967215 2.4196477015846583
Ni 2.5644043353211385 8.786399636836936 6.865371808607686 -0.23249611712433507 0.9150892965530627 -0.6505438643026666
Ni 6.460318634118519 9.238125662365851 3.67588991542549 0.7106621697508018 -0.5225070406356872 0.27935755756256403
Ni 8.52175469039866 7.674360161651167 3.5901781308165264 1.340604298642717 1.4604734988972397 0.06083770011266297
Ni 6.136814217051844 7.48249164768596 13.004443356870736 0.4708242675494149 -0.6640717235857724 0.05236745785812271
Ni 6.004222682570376 5.175374824974549 11.055834893657716 0.21230241578527953 -0.12883875074298454 -0.980216368069699
Ni 0.5207439505064673 -0.04037310631139244 5.69735274609791 0.11387133079987487 0.8028135923750819 -1.3643533214331987
Ni 5.044119318830169 9.302097296978525 5.880237397293653 -0.4954276679203919 -1.1263187909891377 -0.8907419780569498
Ni 1.7284588271845285 3.2619224629760812 3.4778914436664334 0.9870110223940292 -0.08790370309151957 0.12529628480736485
Ni 9.283541347852296 7.035942731963264 6.162944704611401 -0.7796312407213476 -1.25849226253231 0.937583878111153
Ni 9.065156382585709 7.513730588039967 10.294418427389148 0.22027489246779483 -0.7239100358996435 -0.41930501662420044
Ni 5.173500674112799 2.800361784410265 11.720688056268303 -0.150367883064012 -0.9971630232263665 0.6730965527922022
Ni 2.225813931614841 7.911718584899324 10.704715513101387 -0.3437626633115112 -0.20582837802516166 3.4742964777323198
Ni 6.833488049021543 3.5347598609535873 8.905002769069597 -0.21826351846472086 0.8093778758561609 1.0240670467060622
Ni 4.158685094373906 0.6216391404879676 3.1462585930850153 0.13754399182646637 0.3639771905861731 0.6164878031592221
Ni 7.35596790856877 -0.3032478152030261 9.52029206376657 0.49479517654271554 2.251592942763845 -0.03489526921528829
Ni 3.0977023132089556 6.89129910852431 13.124022532027437 -1.6583887927229117 1.7741743098263636 0.4725991000616507
Ni 5.16626385395357 1.0256244201049214 0.3450812747106528 -1.8648018396069497 -0.9349461833779897 -0.6155794324123398
P 5.80553485730128 1.3960939444100804 9.767828425110462 0.26795497215257724 -0.17947328507040058 -0.22966533254375932
P 6.959167492453492 1.7891831707001127 12.962497633870896 1.1546505480542955 -0.6384146851393004 -0.14397072128841656
P 2.7127127587125224 1.321703144363029 8.24210447569946 -1.6756241827645917 -0.9836745018216283 -0.013981658991072695
P 1.0386599743660971 6.769488580485181 12.285150750713619 0.03940035617449343 0.004786108534733692 0.9800587594459123
P 5.505039817151131 8.649085613302843 1.726683950650605 0.3395018311526282 1.4481103493461964 0.9158007207977905
P 8.579510082054048 8.712018114764447 7.4892710636992295 1.3053531887499068 -0.5339327659741255 3.4168616326536188
P 1.3765823639038508 6.892495967242952 8.868325080026693 -0.9607929692377646 -1.2068992209463667 -0.808852342369994
P 2.815874557879792 6.3527683529828955 1.986997938562819 0.5541038416053619 0.5871461167723113 0.2650521966834854
Ni 4.345125993219691 1.8004187978960442 7.138070036966746 0.6530509469952366 -1.7335598787391113 1.0445602815634074
Ni 0.7170575420848616 5.772273318492516 2.8746876386353746 -0.35149191363496884 -1.4521341257936087 -0.6319432184823438
Ni 7.331696727111662 5.948610503039069 2.635068172986187 0.44475508126618885 0.9565375363955205 -0.47240935264834766
Ni 8.234759103237842 6.089700662220349 12.015399207075808 -0.08689480221103099 -1.7505733825779721 1.0734839065762931
Ni 1.0723946898775811 2.616472328569337 11.787525657223522 -1.8650826040721622 -0.8811461068383986 0.5720956501970922
Ni 1.5229609685861072 7.073342247427178 4.4613279856354175 1.325136542024421 0.3147714182854837 1.1890981882092038
Ni 4.441746820319965 7.144485756377139 11.079191266822901 0.6662728450021492 0.12781879411890243 -0.5456150874080604
Ni 8.96297804872213 5.126247949662857 8.846014334594772 -0.46167294006745 -0.17039574824916462 -1.189089189348139
Ni 8.068275127677316 3.241204745776647 6.973136410955717 2.735470443952792 2.1045009022376275 -0.5961532053669281
Ni 7.277717471103463 5.684652126718463 6.946589342338277 0.3637792156427542 -1.7129481160260307 -1.1971876500855574
Ni 6.2216612944315255 1.9000735226784562 2.2812470462370804 -0.13141088234553494 0.5693687381842323 1.0122679971886053
Ni 1.3933291079902723 5.306110764543393 0.7213383995482826 -0.3111883289199157 -0.6406098930184063 -1.7452391148492523
Ni 3.274624010152985 7.800327222294572 8.74469978016302 0.9944237699183325 -1.3503009571051907 -0.06783572869705091
Ni 9.376877771957227 1.528954540153879 0.19196314930575015 -1.2230192664366808 0.6757136787000749 0.32076594530602176
Ni 9.583683824969048 1.326008124560314 7.692172017217435 0.7459747290091668 1.5550818677024443 -1.2584830065609296
Ni 8.399656545148074 3.728780865017436 13.029212765561883 -0.8367066455781009 -0.025855013389890952 1.064516155860044
Ni 1.3502143601954795 8.878362920706527 13.48508140673323 1.2632441753949988 -0.8704446612604946 -1.7085918959398638
Ni 8.467645542746578 8.51924963726662 12.40517805204172 -2.148533614977809 -0.7036852242123366 0.7860517995357108
Ni 3.511611314418617 3.8159659919870226 6.569398853259598 -0.5465411987667554 -0.9992890684304337 -1.7427986237285598
Ni 1.8257105565550942 9.1606916866621 3.521657505275557 -0.28458049652440026 0.8415284924467765 0.04671668733024858
Ni 5.80878214839837 3.318211934650497 0.3209038007966329 0.12342606436784549 2.1614657496584453 0.912964536900576
Ni 8.740269547309133 7.196785698989415 0.9903087377278826 0.3091059924695902 -1.0262416857598777 -0.6085729191875198
Ni 1.201544095796134 5.267746339724916 10.548676681304018 -0.17869629769505999 1.0933212530171945 0.4840729050292051
Ni 5.227637655688572 5.251398548544708 8.302912320986112 -0.7038731718534265 0.7046324186169542 -0.7320483487360618
P 5.567424918113511 7.101473066302541 6.633763873993748 -0.07696931556720293 -0.4426629746238505 0.3454410794551986
P 7.8022570410037 1.5511752892325381 4.74620726679839 0.0714121331943996 -0.5649880926180334 0.2789567225797196
P 3.3459345226450825 8.277771793312441 4.923470393206341 -0.29092906445024735 0.4414864378172461 -0.7629226697174151
P 0.46867595725826905 0.49498087073961106 11.533253486346807 1.4885219203940234 1.6391291731623512 -1.5871057289072086
P 8.67013733758655 3.983247873359976 10.954981454561748 -0.19337266876031214 0.7995336360722295 -0.568732133041498
P 6.981638746845356 5.491679533780246 0.46405459812838173 0.276552226903285 -0.21111713722792674 -0.6898837995528699
P 8.808202877060255 5.341357789908665 4.5987227275482105 -1.0042960347267222 0.4665742340238093 1.0305418557971282
P 3.891748488218541 3.2499909876879163 3.555687260378148 -0.027344967671856128 -0.2530862825708609 -0.7760358100606054
Ni 5.053619964782798 5.075413927031554 5.512606933204807 2.595625571907291 0.04688972257300312 0.19519532379134769
Ni 8.705458586748327 1.526291761454265 2.7429005045485284 0.5023372505560316 -0.08805976905340963 -0.07225339814877234
Ni 1.5089605049703676 4.679819647609481 5.5376064356651185 -1.5377654879111837 0.24451962394777244 0.7537903683988438
Ni 7.31846633538466 8.82650832087328 6.003931354169095 -1.5101307569130509 0.32263205198048306 -2.655417861474575
Ni 7.046315507524826 6.8115827510780305 8.77958496452033 0.06818591294761804 0.10329818326971887 1.1107109092485516
Ni 2.099846870971436 1.4521236327967286 1.7194462026939195 -0.14735789259309462 0.627092832368578 -0.38568887123165185
Ni 3.266672785952396 6.276206506888076 6.534743762671454 0.16876566884490934 1.753526037448393 -0.5526177439781387
Ni 3.5773921540710982 0.7070410407465233 10.089440135366262 0.9934282387742825 -0.12219167774011212 0.9949436469775444
Ni 0.584750841422481 2.4625414525927054 5.30136786394673 -1.4991331202509666 -0.6363169220700073 0.8262890497892027
Ni 4.630674216348663 3.3087112886978676 9.619379904303175 -1.4079106371988592 -0.5227934615278544 -0.9666825952493223
Ni 5.195257524463303 2.474129642822035 5.000967459137124 0.23343559821946894 -1.146816139611541 -0.8287657934644695
Ni 5.325334727838167 8.515519891492248 8.29958523930778 0.7622680668525517 1.047234485961461 -0.5529455596312025
Ni 1.1930825829945737 9.130037258705569 9.127662097217412 -0.469874759151952 0.6304260105068691 -0.09878306900818472
Ni 3.289329599835521 8.526198840214393 1.2703068764732002 0.711882158200832 0.02333918894657271 0.5474541974993281
Ni 2.7840418271537466 1.5164849423410534 5.215153213116445 0.29941396199280695 -0.19406583817259482 -0.4417355777135747
Ni 5.860831585697442 9.388846359143646 11.64267513495181 -0.019896481813610895 1.074432900753124 -0.6401599499651813
Ni 7.6443923038123085 3.8394299896571393 1.9445354323798132 0.7784426197298852 -1.3886083373258213 -0.49039859013691667
Ni 7.481860745415669 9.298942785627066 0.9674728589356891 -0.47123358717269165 0.6097633399511951 0.3819635998612647
Ni 4.755954706874398 7.098383500773023 3.6556843424219396 -0.05348460218170143 0.943524154854988 -0.041327140883561084
Ni 7.206843023415832 3.6622206755016538 4.8406644702305455 0.6769858605442792 1.1682208305395623 -0.8130447831847868
Ni 6.9657455764187395 1.5504144953183627 7.596411258359161 -1.7806509186896433 -3.273196872641395 1.0054466033913974
Ni 5.253291255355584 6.663292883635773 1.3472862314233607 -1.779195160079723 -2.7152947403358656 0.3304299507583471
Ni 1.8505755283842407 2.705475938553293 9.598196432780673 0.13308544183448046 0.08638880910888992 -1.1586884655690948
Ni 8.685167656378795 2.351901605927566 9.600518709813821 0.13529684766350247 -0.6807700101770598 0.42047461145226944
P 5.676227725815155 3.389401833473274 6.948314117809561 1.9088543498414736 1.9136191182199689 0.3495910970678302
P 3.7280850169252027 5.324694547593312 10.069301363779564 1.373513133555596 0.996948079002083 1.0084504232147276
P 6.762836272723428 7.297247607558819 10.895530976953681 -0.1209593479949078 0.5725900733350074 0.05924978680025279
P 3.365446103151312 0.3111795556570327 12.5836361815734 0.6146065269761093 -1.03677523830135 -0.03666084575614331
P 1.0175989721078273 3.5312806204924194 7.69308125872462 -0.972642412377183 0.358648322174092 -1.322199056662652
P 3.3922965615369653 3.1275773913021845 13.378293775106695 0.226437569635081 -1.0943414667515927 -1.8188238302149387
P 0.4941820371297269 8.860280148283017 1.8232324095492862 -0.9625696015222132 1.280478279885098 1.2194017242887514
P 0.42352654964178527 3.4256879919896144 1.880441328502906 0.27977459049532466 -0.40268849111344196 -1.9955005263768084
