# total energy = -340873.6116802655 ev
CRYSTAL
PRIMVEC
9.16565155357940 0.00000000000000 0.00000000000000
0.00000000000000 9.16565155357940 0.00000000000000
0.00000000000000 0.00000000000000 13.41485752692095
PRIMCOORD
 96 1
Ni 4.0561307118753875 5.1570445995489065 5.157248077010184 -1.4924127708079975 -1.2426797209800857 2.2481682333530117
Ni 3.7295035582689207 3.510893606515979 3.4478330082578172 0.7189946008758973 -0.20571987747175538 -0.8061184883785989
Ni 0.40747461498868015 5.440345718945649 8.133682467658444 -1.4268897494045232 -0.7268799171612449 0.4122031154720965
Ni 3.7784573024436923 1.9900279025908862 9.72326306019583 -0.3757795825377399 0.1555172884754354 -1.0233635928811344
Ni 6.374013965361529 8.543202856041583 12.196707582523583 0.753059146659774 -0.2553434540361538 1.572082773135815
Ni 1.639863356166443 5.495669590849583 2.1419769882122623 0.46779653646668473 -0.5290972922586953 -0.314815898370174
Ni 0.5122435099829016 8.39001732404515 10.084270572236964 -0.7954327265299785 2.234993643644267 2.1238307129144904
Ni 5.037506173874433 4.522011607336806 8.308022323106547 -2.7616599578639662 0.7420363131867092 -0.9774125800723168
Ni 7.40616713616571 2.4938362635822053 0.3641971587314219 0.7488757047060458 -0.4407986677216022 0.16284210427162277
Ni 8.98534471435403 3.964474197786694 3.463394451219796 -0.8634301776158744 -0.050740463777661005 -0.3234643180737913
Ni 6.241936928559722 4.0831785491829615 3.892576078440101 0.5930722524487593 2.2257829236792763 -0.10554712720489566
Ni 4.974437326530004 9.318534474369248 8.83146992537165 1.6977541818944115 -0.31043242459049764 0.037646349597864205
Ni 1.370915646875991 4.177190635683734 11.51454847702764 1.0040224693503612 0.1667568659449967 -1.0373244259366006
Ni 7.473360526644131 7.691686343203398 10.380913213824456 0.47020591723912575 -0.010111120292072909 0.8216410094942301
Ni 8.023125463799522 5.13755842465365 10.440662262228594 -0.6056652586224214 -0.10203834272068878 -1.1344707306723105
Ni 3.6510730791632264 2.9674987970897537 11.855983657050274 -1.5959282122948448 -1.3836044563533267 -0.15502723621289433
Ni -0.03843799231337521 0.9671228740582538 1.672604896129206 0.04368921335783443 -0.044043254263143504 -0.31186761437512744
Ni 7.918554546875731 2.890241521364394 11.344864772495242 0.13947489030059207 0.06522194522328767 -0.9823290435373276
Ni 0.09782316435658034 6.292632146502178 3.9622121150189855 -0.6284105227387371 0.12343300634638098 0.9158207754024486
Ni 6.566465147993558 2.422399176501478 8.459020014111681 -0.3808019754529958 -2.277139423774381 0.18950033028909943
Ni 1.032263158621088 8.692987931365327 13.170787186001169 -0.5499065156945626 -1.3396805012768669 0.5425606168524527
Ni 4.286674341762677 -0.07217767171456402 11.511852858948291 -1.2197444523401508 0.6004430909915336 -0.5892657342184755
Ni 7.208528194836261 2.338505969156097 2.8125323790245775 1.1342380458362145 -1.041138143255736 -1.2498878086927507
Ni 3.763948076263452 5.059760375495168 12.797760755267582 1.8051293634469814 2.0305490333405096 0.5847552479426317
P 3.8369891523407316 4.764085626696453 1.5918610066079129 0.3117866246255469 0.2464566930694852 0.4994221337917657
P 4.62078983257019 7.225154686491951 5.436572220260617 -1.599495103710497 0.5716408220478607 -0.12740870316467737
P 0.10933247283069752 3.328625462599204 1.0556529844513816 0.31936263720059194 -1.610502253454278 2.7637754615450723
P 6.623200530214459 0.6149702978432271 10.352594100666474 -0.5263156157484999 1.0055309355750877 0.2328370454035216
P 1.9599645659697948 4.618241781478524 4.0477588058785265 -0.13413445192428514 0.5761700773767819 0.8070751958649133
P 6.104406329169638 0.34939004888039354 3.189221404061147 -0.3621619917543053 -1.4769262451366243 -1.109157705828819
P 8.666224229251426 3.2884065842170855 9.232225201312488 -0.3089057035333261 -0.026317811958922414 -0.2300008615063071
P 1.1567602017077598 7.6043743478825085 1.7117358116890917 0.4263477824035947 0.8634165507691196 1.2569902240654867
Ni 8.795854037127066 1.0340412949944087 6.626469918072003 0.6388659137441062 1.3388544058311458 -0.47947422991492905
Ni 6.489812805261184 7.523652455924598 4.532544773935879 0.8109850724422808 1.1432685314695987 -1.158842988869088
Ni 6.016801033003666 7.6236038845383165 7.22670459814519 -2.9531878601060555 -0.15684526325823955 -0.2944386202654026
Ni 3.427321196969909 7.7945157863595025 7.21873598081032 1.234480215888429 0.23664819161949563 0.2364671859569411
Ni 0.9541076490576593 2.947270204430379 7.61891473727754 -0.2638394073223069 -1.209415559610317 0.152819172817982
Ni 4.856163760749954 6.022410411665893 3.3246714005814177 0.08489834060629249 0.2334050020918496 -1.8966832616965787
Ni 2.156879420837943 3.865228524331458 0.4433755549920803 0.005590092493267792 -1.4459053712750776 0.5090254612094847
Ni 4.849078712210898 1.362162449780521 6.766185608757961 1.0332412570061624 1.1409360266816801 -0.6237198021312871
Ni 7.448237476132421 0.6039256878955395 4.74549218624842 -1.0110624069162781 1.567030041203256 0.21232786970657624
Ni 2.484688943476154 6.908169798167614 3.9585898495822005 0.9862762011105336 -0.67922657694934 -0.6101621180515104
Ni 8.803718166035877 4.561075613641407 12.964896408708315 -0.429297351950222 -0.4612661915473346 -0.6113250280113601
Ni 1.3491197278256999 9.012933325094727 3.754496456530626 -0.5578360549542845 0.3688872262932808 -0.604106912996366
Ni 8.609892135692517 6.305372401960506 1.290098432143427 -0.706299779017048 -0.2826169450401262 0.6286493782224205
Ni 5.979790132614651 7.479629832207799 1.7520206827613543 0.16659488644583567 1.0032719643375818 -0.029743292700703614
Ni 5.603228510132665 3.663162573371525 10.219223790450876 0.43991832199917785 -0.6516044443566972 2.721850282066196
Ni 8.51030733313515 0.6919269402023754 11.58776736674225 -0.3734213667182085 -0.8572158212750463 0.7103618649015637
Ni 2.9722649358223654 0.15695994724660509 5.698054506478544 -0.46938419266877873 1.0554908124329823 -1.4010681603557291
Ni 1.1165504889770501 1.8187585403647544 13.02665823416184 0.17096910425413137 0.7902645520654777 -0.7487630903875814
Ni 1.0347378845014825 8.724013661384348 7.8706310219193165 1.312505740634288 0.5057030817044711 -1.0667478734040403
Ni 1.6847750480699029 7.186200668004256 6.006891130700396 -1.6897235982804513 -0.7106071481431504 0.18583753672553155
Ni 1.586280958030193 6.078632517407898 13.25881593526223 -1.6947328785695843 0.679732570051481 -0.4762508378816249
Ni 5.934337667278068 5.4041963897890675 0.8530893386199472 -0.05408392632859718 -0.9443823890902252 -0.26649535688791526
Ni 4.075855193707275 8.51987627320601 3.275237376272822 0.8917776184103158 0.28613112884097175 0.45108488013895864
Ni 2.0548657206572276 2.617215097196995 5.190973091369118 -0.15715122453443256 -0.7441471888821249 -0.14217480573025837
P 0.47985393103423923 6.274979101888696 11.250933343726867 0.1977898239914013 0.6347392931702424 1.2062505316187744
P 6.842305427143479 0.3597417355815706 7.198358904598121 0.4389706133739279 1.5148664718258233 -0.13308595605511273
P 2.5667673518425786 5.665105822793941 7.483410663413956 1.003946107586471 0.2058641163591035 0.351584216238459
P 5.6510365478813265 3.4754133699122463 5.931540310468081 -0.3204478998449707 0.9752999046046882 1.8699563872246958
P 3.142645229861837 1.3321082788108385 3.7025143811303645 0.45947284709233766 -0.2778154098864248 -0.22707957409445406
P 7.832049128878823 8.786450078781566 0.4329487099493506 0.8038343203301124 -0.4448095886532082 -0.3766704697831255
P 8.563028160038968 6.207547404473645 6.4131604625288094 -0.8906671589549564 0.01606013878665621 -1.4028982715859322
P 7.177392477000332 5.895053685339654 3.0822105907323163 0.20218383929403888 0.22804502333151697 -0.801923990681277
Ni 5.991439675555324 0.5532442184301967 1.047575295864745 -0.7595840922624854 1.3050665107474233 -0.3903644223304503
Ni 1.1597390384156423 4.711044001993327 6.021043813040832 -0.32564564199582624 0.632817136446865 -0.8457011357672273
Ni 3.2984979664182505 7.462040947154178 0.972827575495134 0.30181280124228665 -1.0098943547501058 0.6283213054590405
Ni 7.105084653035763 4.50828146152632 7.897622032188155 3.3583572086598226 1.4333090226673058 -0.37054918737673603
Ni 8.021200677003659 3.574384073825217 5.712341007329549 -0.04203265159101793 -0.3538331601736358 0.22099660112516778
Ni 2.8641285805005254 7.052959593473523 11.642338738665517 0.6712587282525149 0.9355758465421887 -1.1175058206831978
Ni 8.51478017102268 0.9565823749380541 8.884821349092396 -0.6682361393761073 0.2688661711129369 1.2361696877757096
Ni 5.425277388029468 5.985069547826161 10.927581993933929 0.4614677660351794 0.8159899818560399 1.7671917078609436
Ni 5.660577990997959 1.8561910607185765 12.190925889614869 0.760243323113039 -0.2408905118356174 -0.3644196774402304
Ni 6.285070484089861 5.767348664259878 5.954371948127575 1.0385873518094242 -2.3831850878822505 -0.03325927627376207
Ni 8.157897202115535 8.14456117931563 2.7999488562053405 0.23944298075581344 0.8567674208837179 0.021777500886407654
Ni 1.5223047111962855 2.6532452728852602 2.6100484743604 0.6160838828525841 -0.8303251675317893 0.21745490652049645
Ni 1.5969681075729347 6.763169192879302 9.47815979304555 2.2218599344757863 -2.561086914700473 -0.7410155852316787
Ni 8.878152421127304 8.295611114533797 5.31770288713899 0.8032293397562618 -2.4443403192353323 1.3189694939817607
Ni 2.271000946529775 4.19756587876565 9.108460493773386 0.7713237492969168 -0.09940090509784172 1.1091569344978705
Ni 4.031997551715834 6.755653358724029 9.036462468826434 0.8832382134807369 -1.6963385324938074 1.364716361199572
Ni 2.864220237014614 8.730548770838872 9.4632692757667 -0.9443535927348188 1.697844427615373 0.6605187161271915
Ni 3.303300767756498 3.5528906212714184 6.990723903842159 0.7972924054465366 -0.334286862610592 -0.008438103465024178
Ni 2.5819640018784837 0.458852673961097 1.6553267266583465 -0.15405947298298628 0.9590934700481545 -0.49363740878918855
Ni 1.2191324595451152 1.9853442547209539 10.279523694504686 0.04533883314611547 0.09981331004491198 -0.012685565887468475
Ni 5.162250689549144 2.9465094553634428 1.2781940840935873 0.4214128069958226 0.9945998904848806 0.7825723256275425
Ni 7.651421636564235 6.3913645434785185 12.578427633618482 -1.2781966829397728 1.8150371094789968 -0.8092174390188968
Ni 5.521865022576131 2.054049977681838 4.328356974674792 -2.289060086471367 -1.6440705763280266 0.7455684947096837
Ni 8.013272388534988 7.672878426512399 8.11170965153596 2.635231616334687 -0.0977721112451671 -0.391435543907442
P 9.278480577712488 1.816448796209719 4.5598840789582535 -0.6900406368457084 0.2340269519465647 -0.7017813223214042
P 4.856044607281638 7.116367569920081 12.93797230769476 0.32075360401084757 0.4980267961061358 -0.23233156652201278
P 2.9157128666296415 1.363977248759477 7.634985790457851 -1.4618464679853664 -0.15332979390581333 0.7256424452097181
P 6.411868105680159 6.456064876773727 9.089142966864053 -0.8519890256584682 -1.4515957367916357 -1.5198760092252728
P 3.6663430544104028 4.750676278685277 10.686087243743323 -0.7366927894866087 0.28563567726179195 -1.5361824596947802
P 2.082390171838062 0.33761585308056 11.48922194905465 0.27775164652802486 -0.06298585680391733 -0.9345178375913196
P 6.520957688748521 4.10012583863796 12.59093049870532 -0.013214441807744986 0.0854405862630077 -0.7514763755536864
P 3.8220399748928653 1.7612349121226905 0.23350963468319977 -0.7276342788287662 -1.1479710791515907 -0.12291107240463994
