# total energy = -340862.0903459145 ev
CRYSTAL
PRIMVEC
9.27909706496111 0.00000000000000 0.00000000000000
0.00000000000000 9.27909706496111 0.00000000000000
0.00000000000000 0.00000000000000 13.58089650007853
PRIMCOORD
 96 1
Ni 3.4553872378741066 6.433838171719332 2.9155200983440697 -0.5153809711138673 -0.09032208272502508 -0.859298671946004
Ni 4.865281065440021 7.499533177097122 4.594933647951123 1.8962060649498438 0.728673775836874 -1.1276225974022258
Ni 8.467129569540939 4.429748091992996 13.123872210172207 -1.3381697210592953 -1.1160408061018972 -0.8286894317005792
Ni 1.0678570349666687 8.065261159821162 13.0217845134603 0.3277624312285129 -0.9019684429003885 -0.624041447136764
Ni 4.925984917673663 0.3277627577641781 2.9637593396474986 -1.5107786749096948 -0.05206612456762001 -3.205155198581125
Ni 2.712474898928517 5.959667038580945 8.25886858973093 -1.0093446528942231 0.10034167174455623 0.3014001391849003
Ni 8.728939289928007 6.340703875652523 3.239546163767299 0.3641533111527212 0.28837287368729697 0.07986206373396568
Ni 2.103394975263546 1.7838321554722922 7.422475844402372 -0.7022531197515002 0.12643708328002742 -0.2380710401089513
Ni 1.2352241066172638 1.130824986855616 11.557424242629171 -0.20920655046877518 -3.4354864468436572 -1.0234808351852889
Ni 9.452987224778367 2.027974475270419 2.70614284317122 0.4359968754575846 -0.07479159118959378 -1.3179292256427044
Ni 3.181097132092015 0.15267547745286908 12.376257224893385 -1.2251882490635415 1.8642428817796861 1.0421529576734956
Ni 2.3401140175032946 2.645813866454276 3.3442273680761656 1.3359102356011574 0.43212633675858475 0.4458064053488387
Ni 2.319338119436782 2.4455616752200635 0.7065540533743461 -0.24016880317824443 -0.6670128084919674 0.19079873738554884
Ni 3.696977806011541 8.88880885124464 7.484432374723991 0.04719876917298968 -1.0491551000229413 0.23845644847282804
Ni 7.18389541531486 1.8488971832714811 8.724218085400878 0.3272302128741268 -0.31197457226663694 -0.3186098181949674
Ni 3.8969980198220546 3.6762204661389246 10.671624017691435 -2.5444058545003663 0.7820807307031047 2.854002927673762
Ni 6.770010575047458 7.120222252057868 10.119873138700127 -0.2788453938128359 -0.48365535787581226 0.8032429666030166
Ni 5.494125465604174 3.176104977934005 9.512168377202846 3.3100834612550996 -1.494013282525898 -0.959514102525341
Ni 4.460953695029031 1.8471155966574704 7.609077556116422 1.621661355394891 -0.46550876887377246 1.0368629129191498
Ni 7.116000262946541 6.704834198084893 6.702226771842512 -0.060693204114998706 -0.13663304997642275 1.1212341773773786
Ni 1.1214623780351107 4.649337921266786 2.4475223484051702 1.885341097210882 -0.26486064949796967 -0.48150463008139655
Ni 1.4171871977670214 6.569405778129222 6.171715745765117 -0.062302457583647546 -1.2560859670836624 0.6807589544334663
Ni 3.7514182678053007 6.180583778718295 5.841415154985668 -1.1363905734028428 0.4033065843134151 1.9311473569117195
Ni 1.5451830610673658 7.566398349704219 4.028990390177891 -0.1792920222975299 -1.2440927992775284 0.5823152710425713
P 4.712519292385536 2.9297171166744684 2.992904055251388 0.5695975663655868 -1.122768354633718 1.2860562881935078
P 2.807845457359787 5.517935628372675 10.60145177493208 -1.685896254114561 0.24073316032214667 -0.25090470153850986
P 0.7854254495224248 1.6108605092651211 4.754182437681936 1.6333495903660966 -0.3164058685651131 0.9660804428889491
P 3.5035179137432446 3.44644218841626 8.672352573010182 -1.4783249252563635 0.43495686422884444 -2.4541634759733415
P 6.565647743865293 1.9900229687532078 6.683688991959852 -0.3818337591516198 0.390935721452888 -0.9904958956188362
P 5.617964293471827 7.557406904761633 8.162023582794628 -0.004621043711779138 -1.7522142606155051 -1.012043282772309
P 1.29512995651338 5.043708820652601 4.61200440260631 1.069902102762306 0.4154108237761168 -0.46475980652288995
P 4.367476072375147 1.511611288309598 10.845662760047624 1.1954765809317218 -1.0620777216218804 1.0061338592664093
Ni 3.1717438023684577 7.781571328830773 0.28749704446814256 -0.7504623324668753 0.8381922289846919 3.953538794142101
Ni 7.297100398080136 7.934982638671616 4.323016207258628 -1.63640303248044 -0.4400697599753776 0.4870726110874773
Ni 3.7934154605918278 6.605733442680538 12.239918525527116 -0.47384197132981626 -0.1984500832832195 -2.954007527793874
Ni 8.856211383666409 1.5064149940187328 7.022722140877038 1.6833441771166686 -0.7433311207387328 0.7441330478147378
Ni 6.884570305967137 5.52294634072458 4.703104720622123 0.08109207948632485 1.978912025890508 -0.08660658154665085
Ni 0.5157266409101898 3.519375890427331 5.98819747796688 -0.09874321690918479 -0.5804499356990585 0.8881389932164641
Ni 3.8012841348037094 4.248184002012001 1.5610428935708416 0.6418288530271721 -1.8090091581173622 1.766262511178455
Ni 6.657473687262438 3.450441479200837 4.765115069706038 -2.4583551454571855 -2.7467794412077087 0.5953343090100586
Ni 5.270619857418341 1.6270710916332305 13.140060522707643 -2.7443343221013254 -0.5623475696713928 -0.6168120192678603
Ni 4.289141935940356 6.860361142029874 9.868993266608078 0.26159534848313654 -0.047399315219569985 -0.9962225136899681
Ni 5.870337172262806 0.058262521826629846 9.047579767482633 -0.7556958129516728 0.9180478649607545 1.6086014368871395
Ni 6.883234116006629 2.784731226862385 11.761830685566993 -1.3789631009265737 0.43855640865464474 1.133237886706474
Ni 5.826075879820973 0.6201888585310842 4.804514115347133 1.545453857694377 0.5929822638381143 2.965788836699518
Ni 6.8510078123063165 2.079807510821798 2.876161880729546 -0.5539968837138524 -0.6102549348756329 -0.11101226408452494
Ni 8.034983466479925 8.209755257495003 0.24586823183044978 -0.014593581543458738 0.7923198919326097 -0.5808294305256643
Ni 8.786877971271153 6.72105405954995 11.915769976024174 -1.2395260058424522 -0.839760087692444 -0.66604633081364
Ni 2.6848603064113483 4.007985298416764 6.653987530539084 1.2002377497657908 0.6788892482145792 0.09420316294698615
Ni 8.77745968786896 9.257476652084568 3.3343135808969504 2.00599756925339 -1.2782555612021662 -1.3121753538780625
Ni 5.735279916185054 5.165079408732092 11.541657201095175 0.18853410972108822 -0.09811946728225682 -0.18151216987730032
Ni 5.438552953982762 8.398250832896133 0.25999658484343396 0.46059153407781317 0.9304349257711975 0.4386893346880832
Ni 4.971146282519449 5.935624898388747 0.37867159525953914 1.8156297487576731 -0.5435754312702122 1.2259382398556886
Ni 8.776708081016174 3.9732258012496553 3.9732675571859213 -1.3967674760978461 -0.07916323789472818 -0.8163231968257425
Ni 7.964276747736368 1.4678881834907476 4.891689375353954 -0.04531106523197358 0.9119543504685068 0.17562202964511045
Ni -0.22533637401366916 3.3689710079976307 8.368358222078237 1.4517142646473706 1.6379562359001727 -1.6128648401491836
P 7.625385569002485 4.831737129973097 10.4928315939688 0.045032614759606314 0.19005620279256946 -0.2635902674259783
P 9.285777897775889 5.827560535332649 7.689204414081561 -0.5905471720340604 -1.3179518513505237 0.9094182143102143
P 3.385710498891775 0.6327870884573477 1.3219484025124124 0.6004736871191529 -0.19770060671170467 -1.9680953948909778
P 0.8875001554986055 7.674945225801611 1.978288622752801 -0.37201343062708836 0.8345525753495755 -0.6820882147678511
P 5.614326887468222 6.096143996491738 3.1165851384709247 -0.32366974921637803 0.22421459384183323 -1.0406087531148271
P 2.6715355231940587 5.683084995852704 0.6772701513162371 -2.0111837414400204 1.4951219422090445 0.5577509514396459
P 6.977667485646154 8.957585517823018 2.1783218272990412 -0.7888530164299318 0.5044823219234925 -0.2116619539878032
P 8.46900394712443 3.5211203606535504 1.6325049308059636 -0.04951147646656635 1.451818394325403 -0.7973350857590139
Ni 0.7913019016195764 3.0008042783928928 12.279412217957082 0.33369525177318016 2.783612807985974 1.3443218567036204
Ni 8.550465139230688 2.7651152159143693 10.385257167231554 0.6874427942115451 0.6890795584840198 2.079648619080638
Ni 0.3993379999820654 0.5246039529603159 0.5961281601449893 2.131835071276206 1.412579246319122 3.204530677623249
Ni 1.671443733238439 2.786503534379448 9.817588925335695 0.13158726002239918 1.1799080370695034 0.07097118900223906
Ni 8.90419359398438 8.158636712408617 8.047034229686258 0.7973353428693299 -0.4036094602658145 0.8942641322775954
Ni 2.2794751189482882 9.503001557327943 3.074932200181167 -0.49908069129194693 0.4564199191986268 0.30638833642811103
Ni 3.335445630724603 4.220550851300937 12.808387553489588 1.299297726584446 -1.8399955791965474 0.1318605682884439
Ni 7.469942136930036 4.159364486026001 6.88254003955492 -0.6490626517714498 0.4231089637513229 0.3058296357111636
Ni 7.1807498014494975 9.170494397294267 6.81646915764657 -1.3648585432043914 -0.668999499904693 -0.12360809847166454
Ni 0.4937101275817335 5.092739568925691 9.896276595364203 0.28751078279731773 0.8801945415584067 0.2825398119452876
Ni 6.4252550070424554 4.379789434025107 1.969175621640196 -0.20450194590425427 -0.7531164822602706 -0.15192160070437705
Ni 1.9202441597044482 7.842470042100322 10.629971079401676 0.02353690677967559 -0.690244011105766 0.4690216671230374
Ni 1.5350874035879707 5.483046223848294 12.416932146364825 -2.169667825853263 0.8532601790614079 -0.6022320645711563
Ni 3.9795541453681733 2.216312306023434 5.441036968235736 -0.1854315595363645 -0.27096701950602364 -1.6795690263449525
Ni 4.749273795396458 8.5662117667514 11.233275693126227 1.7690009931555406 0.4347028392365094 -0.5532934298889246
Ni 2.724658353221206 0.7725005953835926 9.59809467076047 0.699547290784563 -1.0582748029360225 0.1621831305313852
Ni 6.882018554306445 0.19002848221693577 11.905896088961835 -1.6208583998776216 -0.3581662403313509 -0.4363023225131454
Ni 1.2645553320698077 8.89581456944036 6.257615129941591 1.5843142822050005 1.9916739535418668 0.20114562783751164
Ni 5.783818872319903 5.26993320424419 8.673616386014494 0.420305947084889 0.6543745509026665 -0.9561629266649209
Ni 3.936053738876074 4.496882358411583 4.411360633480892 -0.1047742535946131 -1.1520984710564028 -1.0456596852751734
Ni 7.031022293097001 6.690999064535466 1.5292768330791497 -0.824308014803432 -0.4381949115501679 0.7467020940934946
Ni 0.007209858328575291 5.918235870708244 0.8722657341294229 0.9599023391026953 1.9161459984068807 0.040929648334826284
Ni 7.283088961688697 1.8034574455172558 0.6013253823455491 1.1975797433176536 0.10362599892278282 -0.11599891866583893
Ni 8.421996041985997 8.709889303893817 10.430875063647182 1.8350168950350334 0.8570720966083303 -0.5324818924602119
P 0.12365046219960843 1.1642761313530599 9.360048717657161 0.44030090214957723 -0.8246615414881088 -1.4327683196724872
P 5.209368538464769 4.654840425756934 6.2939437224026005 0.6696584736449306 0.20953847988689722 0.22784010640956243
P 8.587674317992061 1.0337656327798146 12.614370915404413 0.07295222398800985 1.464608861221852 -1.9356825257779116
P 8.817851596883488 7.848232361305013 5.832926637097662 -0.8351801816312454 -0.3814712336058785 -1.0618211255263843
P 3.94037779805383 -0.13460258032730138 5.36581225718821 -2.2459982222848867 1.585880598250856 -0.0990466070822165
P 1.8473846904689615 8.319267159674984 8.535131431524162 -0.18889714948746175 -0.8138179139053855 -0.875996187206343
P 6.636113206088202 6.999065083208181 12.659636206136016 -0.3564626273766829 0.03528916221959729 -0.5713698277746612
P 5.507710063536008 3.747604558959684 13.31530833139615 0.15273432641365955 0.4861837807246207 0.649770733582068
