# total energy = -340867.4803417279 ev
CRYSTAL
PRIMVEC
9.27126384085542 0.00000000000000 0.00000000000000
0.00000000000000 9.27126384085542 0.00000000000000
0.00000000000000 0.00000000000000 13.56943178480244
PRIMCOORD
 96 1
Ni 8.745341842315222 5.396913760491436 12.858827174263977 -0.16733587837691824 -0.10639559124812 -0.4731732273975658
Ni 3.890787727519097 1.831241431450902 8.365473142761722 0.5955654511842582 1.0474481446341637 0.9932341204856054
Ni 8.892560236031283 2.8404462813264835 13.480510823661993 2.2537493269852154 2.6504029247584873 -0.05908240798445309
Ni 4.302635796393387 7.147365401474315 6.7685814397547315 -2.0269466607012316 0.9203196917140666 -0.4857099264119958
Ni 5.123680352770168 5.869692573335872 8.480459988788766 1.0973817962398134 -1.7597691901446275 -0.8119870313442339
Ni 2.3809624603951924 0.9979680784678183 3.2047466751473803 0.8973903366114029 1.0739906710093825 1.6836660792324616
Ni 2.0296835562130764 1.9350239554925661 1.1393882239673652 -0.05492364862107316 1.487813067252457 -0.6378570128636176
Ni 6.986406995195296 7.183486244217419 9.101343528143474 -0.3008488946671206 -1.917569618227285 -0.7183160867516338
Ni 0.7473602622840946 5.888513238317521 6.609032265533452 1.067761402270219 -0.4075910706213819 0.09267464211760168
Ni 3.2262977272408992 6.573251678162182 9.612421930662387 -0.5088251722732204 -0.30242163847087916 2.8432127790367936
Ni 2.386998052958273 8.006320154456988 2.80989005095874 -0.17525719010652396 -1.0236836952247144 1.2817872285045089
Ni 4.3452557948764605 2.0865813005442977 5.632290744935331 -0.8960662184833407 -0.19007265785280167 0.8272041054043043
Ni 6.176274716002457 1.5918481356424503 13.08454164784882 1.4242836792402438 -1.4183364605178734 0.42395382825012146
Ni 3.0726450766296343 6.8465036284105265 0.7581983693597338 -0.1327594259536294 -0.3322078685943763 1.5902123928569902
Ni 7.639345001105447 6.40201144061979 3.2988778138462385 0.7497825327910312 -0.6102217676448524 -1.2593283852803603
Ni 3.3402230135928708 4.2579668486684685 1.4427968131249749 1.7658099970220686 -0.37704867905815065 -0.3630073704737361
Ni 8.047011730124208 9.009062933646751 9.582053906944461 0.3177040185512464 2.5283122913726137 0.6560084869616637
Ni 8.654715241233637 2.665859117646961 8.938062670348247 0.025067998712221345 -0.803395690130797 0.015317347083360716
Ni 8.233864775464184 1.2337455814965443 11.674337961690833 -0.12064438785765028 1.1443221695450938 -0.9453756062414299
Ni 5.660838819620795 6.922685600900285 4.791719053295323 -0.16697515260338985 -0.9952619495489118 -1.3256211949703234
Ni 8.638713040367467 5.013945677537262 1.6579262851287597 -0.1413600231384469 -1.1530618634109369 0.4554920080677188
Ni 0.4817849182450142 7.1004435367097205 1.5154343815642481 -1.2361578607011678 0.6356404648282731 0.800560534674847
Ni 9.068157967436422 8.290818147376632 6.3062847174660845 -0.6232734586224878 -0.4907953113547031 -0.5644846706190536
Ni 6.47798017404818 8.739584387658274 11.421281604806788 0.9136178542138589 -0.9764471308352538 4.718792683095854
P 1.333560004744048 4.171058024265524 1.0658086951526555 -2.0070769183604984 -0.7684860227378054 -0.386188950796522
P 8.112865515032905 1.3052177521091213 0.7416139331433921 -1.3068971361982589 -2.1711744923057767 1.33149693702481
P 7.370756496416596 6.9870930686970905 0.47566124867832493 0.2722944800681956 -1.1783545765394545 0.4553590820342803
P 6.552261537512698 1.6648686072658332 9.982460309486802 1.324940366853215 0.7240360199545466 -0.01660366999495205
P 7.245974560461909 1.214628236081687 5.316163836456625 -0.058594412604441024 -0.4392138397329855 -0.04998250256571392
P 4.628956459131858 2.863503913744888 2.733290871609783 -0.44700608208389464 -0.34786691528787184 0.4705473597389444
P 1.733160734484959 1.8277090800430162 5.224733416826315 0.46374164967102066 0.7199852469239406 -1.235420725424827
P 0.21958524126003146 7.3432393862365295 3.8670032280393327 0.32888266087588525 0.6581170486642344 -0.18011888907419948
Ni 0.4724886222957041 4.093012527804676 4.8267690650998185 -0.026250191945780595 0.18722156155725175 1.3126332673510877
Ni 8.000599784854192 4.825451618551103 10.350531326188506 0.6196335478770554 0.7218122728303504 -0.5745613381287653
Ni 0.28614364219759675 3.242448268323674 11.367384041356384 -0.14495905334361486 0.22778431347096254 -1.0832684967668829
Ni 3.3888229770577984 8.727142351990604 8.771416343888813 -0.7810821142352613 -0.6922978083110013 -1.6011848327080942
Ni 3.824266411635683 5.900992359039344 3.290573543095469 0.7467967106898299 1.6563517076882248 -0.4235326815523028
Ni 3.6451456000861966 9.026975014801701 4.981474004122618 1.503506309617998 0.703370264075079 -0.44321601891384316
Ni 2.550839822197534 3.370234093664594 3.8298495665381207 1.3079343192135218 -0.13741183712397625 0.005190543062003964
Ni 6.835934387977482 2.580897258586946 2.3014975334867143 0.5455667506686281 0.12803579522571498 0.1894900458764543
Ni 1.1743724098007415 7.392710848474006 12.95328373431301 0.7256825544190341 1.5528812605067 -1.5494994885186604
Ni 4.050781922390188 2.121830644514854 13.501502818564184 -0.5963306114850568 0.3292176756178008 0.6304506930972175
Ni 1.9888158265386386 2.7936820280420314 7.3715260112902286 -0.8682486820504401 0.32732508658077825 -0.30835548745681085
Ni 2.363384144727603 3.4749530153235715 12.549321802203936 0.09192542265640297 1.5357571992319035 -0.11953881349829736
Ni 6.330863764231035 3.660758407883781 8.98092835731507 -1.3961779221429633 -0.03044803207721208 0.9959178379653556
Ni 7.750312754388873 4.777398659634904 7.531699141547599 -2.626835164740876 2.362750217066666 2.469366666076341
Ni 1.6661202278434306 4.530365842671339 9.976259688432751 -0.017702816596401768 0.06830675479619848 0.20172309760753646
Ni 7.863496339657824 5.90919742727026 5.576330325347778 -0.2669435001689274 0.8743738211115716 -0.8612262279860199
Ni 1.6199586066889329 5.418209852837666 2.928880228581389 -1.49775680872873 0.7442135233436861 -0.3929162422180265
Ni 9.45974832548071 6.677126914839223 8.936149081554053 -0.4515258243311192 -0.20983184275759992 0.3278328794551322
Ni 0.47537754801406956 9.685781730531252 1.925678521846506 -1.3350327180922104 -1.2341338882926036 -1.2507699541873878
Ni 2.9872381969198067 4.846580828153654 8.075127763928814 0.3866689757567341 -0.028622034612066836 -1.492176229317159
Ni 6.343435597588235 1.8339857254580783 7.513841760847523 0.07642964101364902 -1.1691916790932637 -0.8686885978013362
Ni 4.280950310978571 0.46988525149430166 1.8938039178036936 0.30991743262729204 0.11981752108098073 0.13286689806577115
Ni 8.291708188676257 7.223538102700535 11.099794978876902 0.6746996356132637 -1.679194159504037 0.9274192788733253
Ni 6.117606160335524 8.738889042892943 6.024203742950734 -0.4452906420546847 3.7166324637652117 -0.6066029399453424
P 9.157727644474702 0.28572736246475144 7.988296818139586 0.4729508269741145 0.9049231546533382 -2.0617431995551265
P 2.6264562476114888 2.2031952533222188 10.28845094553968 -2.175481861431879 1.9583406294970598 0.48940922964045397
P 6.479500661268372 7.0340983748335235 6.956477502242705 1.3267925895706052 -3.2385062632377455 1.4143029138784482
P 5.321909238470973 6.613238637800532 10.430414387082537 0.2255219997993471 0.2085519476039118 1.9485020461400828
P 2.4152290504307463 8.97855120534399 0.9472783722014798 -0.6161713003600678 -0.05773026483193284 -1.2513775058643999
P 4.417330597618992 0.4092762203689157 12.222610819270527 0.9950871145339443 -1.2188072852378622 0.9178123519111806
P 4.279151685852246 0.24617893359173673 7.039834505584334 0.956123074565921 -0.5836000512922658 -1.2689268276020726
P 0.37915110375567834 8.865015312060605 11.057240806364947 1.3190288864647863 0.22008488794417583 1.5225988074730745
Ni 2.0042617515925434 7.5916072651495305 5.2040668432742985 -1.313721358208944 -1.1529968145009561 0.6855751448751871
Ni 1.9657674653837718 0.5028427391183241 6.878114001442513 -0.16572225403289523 -1.5036873152805523 -0.10590579609589502
Ni 4.521335631985562 4.4854187570402875 10.811281601719056 -0.27417935579573427 1.6281886149904474 0.46243424371350683
Ni 5.284944710745932 8.096993111856262 0.32569207107061143 0.19769675005696277 -0.22262385231594564 -0.5989731913142265
Ni 4.736187893209569 4.378743598774843 4.973726009184114 -4.134978201799936 0.519339184430667 1.658953149866814
Ni 8.275437121167492 8.682176723832477 13.103877795083168 0.3190253084658312 -0.1738248285353716 1.3484469346155874
Ni 5.953773662359801 4.918831784903403 3.3457607393039734 1.0289012348699118 -1.4573766051394708 -1.6580668906071185
Ni 5.509782122800103 -0.23770963434999473 9.713527840920701 -2.743522624833307 1.1889297809521395 -3.9615729773004875
Ni 7.478238254609825 8.56459855964663 3.7331002230161996 -0.08037319904242933 1.0495865311334054 1.968732000033713
Ni 0.31796910854365895 2.6238695650844543 2.960578678616984 -0.47614825086548956 0.471064151474363 -0.7506093995677008
Ni 6.875198189059888 3.901162271417848 0.37953122556072644 -0.17558551998022018 0.08301629309223121 0.7976104509075876
Ni 6.73156777433294 3.4492623440604433 11.774141259422091 0.032474318478621485 -0.6570001614509717 -2.2034143261760892
Ni 6.242740404304644 5.799388581929053 12.526715680319821 -0.06799410865178612 0.8152898704652217 -1.8427281476363617
Ni 6.70104677476664 9.340519876385143 1.7699148045276936 0.45826262883432045 0.5502338171269944 -0.8779682233310493
Ni 1.4231389530458665 0.7313487901543865 9.369217218413565 -0.6974531272596955 0.08028706708652625 0.7250711460872803
Ni 6.6479502484859 3.6858093619628036 5.685279724559033 1.4737583889316037 -1.7661892347383583 0.9379687722543976
Ni 1.591403114992638 1.1834953331218954 12.40034372266841 -0.24924993954390617 -0.7324851791631642 -0.5474066320908443
Ni 0.3557504345863769 0.34347806304144657 4.162911364994896 -0.4319872400775593 -0.16012393400951133 1.9149779462407086
Ni -0.2837739072373458 1.7976794574442176 6.280272333358196 0.7834336451865733 0.4838775011889473 0.7684155745111864
Ni 5.559327755145882 5.6383930905958835 1.2282523578504225 -0.7525711512797619 1.686157735306064 0.1653026499969734
Ni 4.560998097400091 2.200738368484713 10.856576359732774 1.8432603659907483 -1.1746796987910286 0.5871977959458532
Ni 3.8870884933675316 7.029416386746957 12.295559902164667 0.31214066553085595 -0.42201650201809254 -2.3829976544617932
Ni 5.721000048717308 1.186156185757232 3.9038435208329676 -0.7990811219158431 -0.31529463777880534 -0.5917831013236905
Ni 2.9402977896281377 8.823739646790505 10.973042899420443 -0.8288946057328499 0.07497388240372894 0.7584168114272616
P 4.820528577612554 4.177844589175163 13.136593302728855 -0.304946718885578 -0.07899997284398652 -0.4196834830095417
P 2.0399004886316856 7.0478013023423305 7.971701256406999 0.5154974420870735 0.3380995514884629 -1.2309482914757703
P 0.11806212414251904 3.8675724836205507 7.220199520700588 3.0946957216762767 -1.4366820529045965 -0.5284154357003222
P 4.722382981801846 3.6352531618914083 7.198922898007787 0.23029576703890658 0.7702541703818219 0.6143697283749548
P 7.788844125651797 3.9889982221745686 3.894575965800625 1.1824107488866993 0.22991138711629436 -1.4591655787190934
P 2.5230631166384105 5.493974618468226 4.9894389466279065 -0.08117101235337633 -1.1031510946234226 0.4070994756969441
P 1.3850989587504452 5.649221926407985 11.818608093601886 0.49956894378227507 -1.3526038942067544 -0.9229530155718556
P 5.370518473199439 7.7527140116451525 2.7292736331188725 -0.5593440069583786 -0.3484623827800257 -0.17317356810461787
