# total energy = -340868.7001509223 ev
CRYSTAL
PRIMVEC
9.23964712389303 0.00000000000000 0.00000000000000
0.00000000000000 9.23964712389303 0.00000000000000
0.00000000000000 0.00000000000000 13.52315752365939
PRIMCOORD
 96 1
Ni 3.5215345005910943 1.7294125071277926 4.031429057562991 1.2691746819468206 1.3335738741584968 2.0302052768478456
Ni 0.29751664358382307 0.49350157470337425 7.166786954782283 -0.3539773990609839 -1.15662335550995 1.3800766457057263
Ni 8.88138923122683 7.98398848563432 0.49078789028658637 0.9788572829386432 -1.6807257656572152 -0.12279845808617562
Ni 1.9061207620514142 2.1366037643557143 6.6679984538845405 -0.05934157518311071 -0.8421468427570658 -0.5899506761006421
Ni 5.454570355274797 3.4294152168479046 4.587082043903973 0.06223329490860895 -0.872483031846762 -0.5443105096640238
Ni 8.012945540323503 2.1163504574384553 11.752949653778286 -0.6632240308734965 1.5129376302342266 -1.0124214920473338
Ni 0.4883301441004591 5.641469941188261 0.49299247013624786 -0.4794364346984582 -0.05458709121726083 -0.5851555687048439
Ni 5.107224293714341 8.967345670210069 2.9751756754855467 -0.9640382156479398 -1.0421866391249082 -0.7084353373028122
Ni 6.247738639492489 4.2973137685595715 2.645967965571657 1.023377219727889 0.20361491531361064 -1.1206243117075216
Ni 2.437104814022692 6.464075741755583 13.316726699326273 2.0653602274824236 0.353285772310598 -0.589912623773855
Ni 7.087400829005642 4.010006935260224 6.178771140029672 -0.03784355321033483 -0.9369323605700832 1.1195521616892654
Ni 3.0923990809870365 0.6896047733085736 10.596678937431706 -0.47870572718002075 -0.46063395727997447 -0.11643112110725108
Ni 1.0400609001556846 1.1542537013374383 4.42154544655045 0.6725782183948869 0.6480141559022775 0.06293649162322065
Ni 7.056401812259563 4.336388237060068 12.249992785297986 -0.5941595719756669 -0.13939261499943092 1.2881345108787752
Ni 8.445961611800394 6.406143153082584 12.044887398312547 -0.37866590294659946 -0.5683796347980856 -0.07078067025798777
Ni 1.6794167754994676 5.910075728319482 2.588345829048485 -0.687888366389396 -1.5201835131633625 -0.7113381127719041
Ni 7.384242978335378 8.602305684038962 2.1832593634792086 -1.5136961056668061 1.622863346122792 -0.18981400487477632
Ni 8.51192345399123 0.8731013971154571 -0.09052174872220724 -0.23006076820996507 -0.5176031755761666 2.4641879500888786
Ni 6.463530602563924 7.932874756680727 5.167239498892427 -1.0062598433213121 -0.3044461251000757 -0.6926060835800394
Ni 5.0317178958458015 9.289264222356156 11.953402878339984 -0.4614713655796053 0.0924211313458989 -0.05083739436684148
Ni 5.4591347410490325 6.265451043397775 1.251720892947284 -2.2108810668667798 -0.3946432522114623 1.5197577384798535
Ni 4.043666970433388 6.8289863728642635 4.879655476173592 0.08078534687918346 0.5545833523449416 0.5258227352724815
Ni 7.448255254942481 5.745305097728479 0.839440437977562 1.6982578610037073 -0.7733081267167973 -1.2884044767107101
Ni 1.9522635607488554 5.656244137246974 5.915096552671143 1.869254990282297 3.523039194353662 -0.08460549195622204
P 2.780939809602965 3.606197388950056 5.214137176775608 1.334725728374753 -0.5776314924136569 0.08770341415525541
P 1.7312049987071485 7.817979742302937 1.3344804139590947 -0.6824412272318957 0.040260133071627444 1.0468074257263713
P 7.610032239803013 0.3885382572258404 8.7641150076651 0.6486759578559924 -1.7112316475555562 -0.7041135699990068
P 7.698843729806979 5.589349090677195 8.188569984616928 0.7386794808993343 0.6381082096424753 -0.5529715277731315
P 2.624808249252672 8.568229864736566 5.017158983569558 -0.2385325531264021 -0.039941316279627985 -0.17870863899023415
P 0.9304786829847486 7.5475260257084615 7.769608340672811 -1.116492291817019 -0.2676443828906939 0.624069472161222
P 6.4511494751601255 8.02211127046124 0.3645040866267646 1.1864332397825308 0.5116274176087059 -0.8514236400733015
P 5.522038259978184 3.3550268163046324 8.083129901337873 0.33394619144172166 -0.7566622906300001 -0.5146546344708041
Ni 3.767235202025288 4.677248066204503 3.5207001604384356 -0.7405473873460084 1.6179813354401427 1.2592743921139733
Ni 1.3840160111510698 2.6584682844258354 11.53501039667055 0.08978780748810988 -0.3352615678190355 -0.36547974327362864
Ni 0.20480787034185527 4.341174374369895 7.70595548634631 -0.7140750520870928 -0.11775806744879075 -1.1021097978431018
Ni 0.19554419994256517 2.8650575587702676 0.27218707443100654 -1.25734066542637 1.2778300436289736 -0.048338539204387715
Ni 2.581289510393051 4.114969328773026 7.47376222532377 0.8758054113517756 -0.014635747635303828 2.066149556152938
Ni 4.056722592091274 9.007510417093885 6.649971901970502 -0.5594818180878235 -1.0885783390155703 -2.0669586823177952
Ni 9.22421710524963 1.8443814386841126 9.758756573508208 -1.2785139570698756 -0.09931245914909348 0.39397965048553435
Ni 8.329431179847624 5.882070357303875 5.977627713813448 -0.09950297789334477 0.3684563094034493 -0.758273600981178
Ni 7.1344121545508115 6.450447261964089 3.085767786108151 0.600093935182231 -0.004085482923283287 1.6780721300844519
Ni 4.350608054279804 8.306710887096921 0.5476930301780165 -1.528504117213916 0.9300533740620628 -0.3712246161772058
Ni 2.03592856719766 5.967989837697849 9.129970854694236 0.4670288050627247 0.6265480156087015 -1.6509138245021049
Ni 1.933350002692455 9.097735573137241 13.105522221147366 1.4318828317437404 0.001586884871145654 0.03312532179905908
Ni 4.541868753726548 2.32471374406761 6.410477471638646 -0.4773749241837391 -0.7323157434648355 0.5335159901516812
Ni 4.279675281832816 2.9604753966053647 2.195781857486946 0.015058694105335356 -0.2053604372498076 -2.092123611619197
Ni 5.69688010614392 1.1275511205934243 0.5601064963474223 -0.2403554652677538 -0.3528653969437278 -2.006110697792487
Ni 0.08536972137865631 8.052371115422018 3.121618541660002 2.9874362397659646 -1.3751740661977865 -1.087284045684179
Ni 8.229402758001708 0.15558549719390183 4.4506337042315245 -2.712210444983587 1.761984195518075 1.3060620418914732
Ni 3.557060944522144 7.022492306608861 2.3686214720792464 0.658702231743743 1.0535915385277403 0.7582224360282684
Ni 7.842723517815902 7.837299844841253 7.047783069242949 1.1294036005620485 0.48614907083194336 1.776498072863534
Ni 2.4925981358041964 4.84317365271004 11.24374807035511 0.23161885672570434 0.35411983817611914 -0.219473479612422
Ni 6.025774592013788 8.13780089450823 10.147737409840497 -0.3674872606219607 1.1887390050975721 -0.7636065831583172
Ni 2.200458966958441 3.9348793629316505 13.591179335279229 -0.11917654506287215 0.5797135717536662 0.48780640392970825
Ni 0.6810183690575659 4.1008326683791365 5.256897340590563 -2.5587981186662967 -2.9795583796797844 -0.9630285434365027
Ni 8.909163611059531 4.468626069450493 2.2770427077040583 -0.17545182261583334 0.08200739221174264 0.6078026166803984
P 8.98870773480528 1.9590731808209447 5.853809972022339 -2.222512480458121 2.4262749770931893 -0.33627458246458214
P 6.737929648562445 3.1015093732408765 0.8018757278485436 1.0733023866931064 1.022834974071174 -0.03595019284236389
P 4.938415937246129 4.9644625030306875 11.036871442979141 -0.30646161286820767 0.3315128994098807 -1.018032667586524
P 9.107640475060279 1.0290841991439585 2.390014951475333 -0.28474736111956767 0.6346981555196618 0.12814429577912123
P 1.3112075902988796 3.335383326110247 9.248392642452645 1.9307917733445137 1.1089376193982128 0.20728002287002367
P 5.759127610113616 0.9148036213127002 4.546796257640313 0.558641067354083 0.8912865377065101 1.8422926027608402
P 6.0134396628465705 5.68390764131188 4.943079187246649 0.9449200067612501 -0.25111501777710304 -0.7543416129166235
P 3.5801231042235484 1.1026687503707153 1.3837573010262143 -0.3979288649412695 -0.6801760853468029 -0.20613922439736113
Ni 4.654804962873288 4.8928367570349796 6.557230789962928 1.0233921321262245 -0.7377325436050327 -1.8183975413107973
Ni 7.497012873830426 8.48000971216084 11.931279466805915 -0.4473159000148296 0.6644769294439911 0.04846863702434879
Ni 5.453239846061254 6.5840248432153725 12.453665102984672 0.02442856535600954 0.21648997150406588 -1.390778862614579
Ni 3.7937807087649253 8.062340694876271 9.087791864695474 -1.2518369619993217 -1.1036516884089251 0.5965977491035144
Ni 1.2167506757846738 7.197749936903828 10.986470090833633 0.7131540829347202 0.2768777285635038 0.9840763652457374
Ni 6.31173243680496 1.768625570338033 2.5360115426844123 1.503762391492862 0.6762839493812481 2.7745355282750537
Ni 6.527570598112977 3.6810385322118253 10.047733011077606 -0.3923086905410147 -0.7017913496237334 -0.5183773347380298
Ni 4.505252031412178 5.168852741313847 8.872570911828184 -0.833803355888377 -0.5442737428888176 0.9494199515141325
Ni 6.734723490943701 0.701439837555981 6.716506602294946 0.2882769715393809 0.25414814817647197 -1.3820299127773554
Ni 9.234768782484808 5.118866249332839 9.92073775457443 -0.7675025757786137 -0.6496092683035393 1.3426447261115135
Ni 3.305807215050874 1.949657980205668 12.859900980680091 1.007868839679645 -0.46706120096255693 -0.06662371066682074
Ni 2.4267564090284717 0.16858290907369572 3.014866428462039 -0.2896789940932301 -2.8785867876607134 -2.9671978012319027
Ni 3.9026791920344572 2.923840194996363 10.142152043037814 0.37742663122285963 0.402096623165714 0.13069277323258782
Ni 5.135793283216241 0.6347101806731633 8.38232908469799 -0.33173015762700936 1.4919026639407984 1.330281062339838
Ni 4.4068220685519774 4.193931354737851 12.887947930108623 1.0103273285224665 -0.40628803553924225 0.7145833591820789
Ni 6.386111597700916 1.260509645474518 10.19733953249315 -0.32661597632889555 0.9666548273351804 1.4544247215999984
Ni 8.475768714042673 7.456691052942233 9.675318862383383 -0.5234485786133501 0.6497061988927199 -1.1287932206715594
Ni 0.9933360036773184 9.162357666467217 9.504196898227177 1.072015806671199 -1.464662854388239 -0.34721128398174395
Ni 7.7165930923015305 2.536449501967203 8.200672998636506 -0.6869028625476751 0.23383463343010052 -1.32312696779356
Ni 1.661177711697155 2.4800044965121235 2.0905857008970425 0.07936944036826331 -0.6993932817052019 0.45090490291766855
Ni 0.5076234516615579 7.823329498099056 5.5639409845221905 1.4053518753327474 -0.03325361984680724 -0.09502411618638475
Ni 8.156076916899808 2.965936028169279 3.8312188357257106 -0.1584948830465206 -1.3831041196781406 0.7605441421829096
Ni 6.414218604837003 6.030948794510898 9.794620264566301 1.422868544060272 -0.3996646166854536 0.933956822881527
Ni 5.704715327068115 7.510733750095083 7.758640879308402 -0.5420890765326729 -0.8915086810196452 -0.14390258705464248
P 3.3834479714494723 7.444346884127699 11.435763648987592 0.6189426924576179 0.9485547753003599 -0.13300599474679672
P 5.485181306833592 2.343747417539122 11.99303911739731 -0.06884745779101692 -0.6755211030732947 -0.4245991751436042
P 0.33814060093925774 6.053678326908917 4.163942231443441 -1.1152501918798017 -0.4285951836768747 0.3975357432679089
P 3.6395709950564155 4.998492124096502 1.354086945564215 -0.4229508409069038 0.05736722506555926 0.21234509609775687
P 3.5480430487414667 6.461091335672429 7.407444656711257 -0.41294950671981784 1.3519220376483814 0.2906467573231381
P 2.7504027752227005 0.6324058126324862 8.118843910109444 -0.24412958759820536 0.6100024525451946 1.0132624998913904
P 0.12251402755478448 4.46489325193472 12.114315032211715 0.5114047600749386 -0.7416285362253293 0.650794289750576
P 0.37447828590467575 9.223671966057971 11.750001282319666 -1.001960701725326 0.48095647088741045 -1.3981633280041081
