# total energy = -381165.9140241314 ev
CRYSTAL
PRIMVEC
9.28132906195474 0.00000000000000 0.00000000000000

0.00000000000000 9.28132906195474 0.00000000000000

0.00000000000000 0.00000000000000 13.58416325328411

PRIMCOORD
 96 1
Ni 3.256159377858819 8.134221720185943 11.238082842064719 0.9278517384250536 -1.2925817480168513 0.16812854948154268
Ni 2.5721903985767476 6.465448044179576 8.442150229263293 0.028857033441008366 0.42751660590071533 -0.8086247997402203
Ni 0.8847018507396178 1.4315614689786822 7.863993969577427 0.17182271050367826 1.3320062725610609 1.7575883804432249
Ni 5.542911783833273 7.032277369932561 10.351662089191072 -0.4957066326133914 0.9466375036729889 -1.9924753663972394
Ni 0.18004478907767626 8.729015690268469 8.554477513696838 -0.3469523738934025 -1.277969140309999 1.9490640892911402
Ni 4.959561692429249 1.6122596636191864 1.0563061992088358 0.06000594823998698 0.4060885179339264 -0.12940979275510617
Ni 5.99126494467866 3.8835400941215705 4.0932340887454535 0.8327255494431659 -0.25775592013238835 -0.18437149370296632
Ni 6.192604815053945 7.093515578789618 12.434657766714096 1.4144674644807704 -0.3895902631685871 1.0739958132157053
Ni 7.1946727837506765 0.01977851213616076 10.262577108882992 0.40813948692568414 -1.264566236640532 -2.179642934788104
Ni 8.144097054260497 5.676154543207615 6.208071221728604 -0.18180656118926755 -0.562483838138941 0.43290898056088023
Ni 7.3300873741151 2.0859508526821786 11.18352904636602 -0.7033882617972079 -0.9788760519917205 -1.0161020262227145
Ni 3.9706360856212104 2.230730304025197 3.0176542816990053 -0.626702796019011 1.257164801970138 1.5005901644124673
Ni 1.3835491539714746 2.732311886785591 10.31641160158284 -0.18615301108342133 -1.5085541564545504 -1.3916229557824291
Ni 8.275771269030892 5.509582531331652 0.16198332280974156 -0.48296141713258117 -0.45213054779465356 -0.519491393737815
Ni 5.487576500231307 3.199515426865394 7.841118277948148 -1.3147420861639745 0.011590533051076813 2.0806984005013907
Ni 0.5242298818287469 0.5465839627672466 0.29006009445297803 -1.580448114381375 -0.505077275195014 1.770301714244835
Ni 2.347498704393587 6.818398424054714 2.945195874192767 -0.3971259094239999 2.8893918486960173 2.2598603249789595
Ni 7.826109440794048 8.033185172502112 5.742107667205532 -0.43378829784204 -0.34837496527254197 0.957604544207454
Ni 5.737058624220046 4.408399250057699 10.61327955087011 -0.5596283709680168 -0.08090156074207358 -0.2769612894162456
Ni 4.653556274724312 2.5902054581995952 5.520373004447326 -1.4835812885592965 0.6300670845055536 -0.27914004223511923
Ni 4.76453312578582 5.51564323918004 8.350945393407633 -0.6804465653993701 0.543091292544942 0.5003353896346544
Ni 7.805365670440074 5.771223196333235 3.679936507598931 0.4304785167425167 0.4605619663914584 -0.36684474194195527
Ni 1.5467706060721425 7.3870376089661 12.771857731246643 -1.8182173069791912 0.09931965823794507 -1.2280192907544336
Ni 0.38962555148754613 1.8225374538382657 5.7556231385207255 0.14964720284790356 -0.11482341030049903 -1.091758793626081
P 1.2279662356521586 5.601820379106954 6.383646122751483 -1.1821960617727316 1.5743569138819724 4.569716265149756
Ni 1.1186878678008414 7.118222476634037 10.495667477694033 1.2712837578700233 1.3624280793860277 -0.9188104541583917
P 2.440701810386701 2.43182885984603 4.9159867808252775 1.0512040121321702 0.5126108645678977 1.1159911838108845
Ni 0.21443861001759695 3.906502102110713 7.840371130962244 0.27624626562709204 0.1147305934763766 -0.36279731134545906
P 3.4811573558995557 6.560080474841375 12.886005084300509 1.2711850275086303 -0.7675491127458329 -0.045496698880218414
P 0.007815807165584691 1.135329290729108 10.388556300168288 -1.466366724453223 -0.8714777305106992 -1.1098130800246304
P 9.152764047888626 6.135830925454276 11.865984240885346 -0.09791429324998621 -0.911390764655553 0.4023935855808425
Ni 1.3763375613249251 0.30119119234359165 11.901574425135616 2.0681254489323866 -0.21702116141718752 -2.211029419519186
Ni 3.674506001990828 5.703023990713099 10.407153299120528 -0.1570514657317747 0.4305049991050779 1.511327091213997
Ni 5.503326915573899 9.212739995999312 11.789016035609535 0.4668724819905185 -0.14586948097302618 0.3169727968121767
Ni 8.607903627919919 0.2075667140130857 3.994776822395567 0.6001972935293147 1.17463444737539 -0.5652295192048782
Ni 7.731319227538951 0.5747119584874948 7.368784019187505 -0.4869096031470517 -0.02092003798211881 -0.3538550145505067
Ni 6.9605419779567805 4.329879206570173 1.8237960020530304 -0.42375688174796694 0.23928974300740077 0.18380765077969632
Ni 1.5373222131323905 4.899298023119022 10.035585501369312 0.5538449315170203 -0.07662813017770029 -0.34392644258288513
Ni 6.7309033354073255 1.126539872149594 4.791216018578053 -1.1836381935358968 0.6448594123233797 1.277321222313355
Ni 7.541785207673846 2.859781659511087 6.451744161885329 -0.36898261422056455 0.7122883925003153 0.41441092175669275
Ni 1.0973779363768033 3.449108926802342 0.7676234539820456 1.154098275095251 -0.029184334873440063 -0.3442087497099943
Ni 3.9901268765578304 6.542325292431016 1.4876151274465983 0.327492722506894 -0.6260793035023993 -1.526675034424977
Ni 5.233862090210616 8.528603952794926 0.5936347320882478 -0.5897519298262746 -0.22695359003955107 -0.14973436324507117
Ni 6.604612291467044 0.4297617306905558 2.037434561509324 1.4847938208101592 -0.4274412725780896 1.4354273545618892
Ni 9.184626850405492 7.868061047952868 1.6860258103839816 -0.12617148832346659 0.1463235377913093 -0.33628255288438214
Ni 1.7466904331077608 4.787662197697276 4.712970702429443 0.05549109108876894 -1.6516136787826075 -1.5320509540249099
Ni 9.272326128291265 2.1602664541248062 12.401688629778352 -0.1312062225338966 1.6434509404661566 0.3341133131472052
Ni 3.796406977305861 0.9965641405893897 10.787849283960398 -1.6724583834421003 0.1820263905095575 -0.37406568517042676
Ni 1.8682015926040614 4.804609904483118 12.513296611213049 0.4935713314379435 0.33743157888716085 -1.0847209129426931
Ni 3.549198778926395 0.6257926808678675 13.226478573577506 0.3872359040037976 -0.466261587879397 -1.9774583241631167
Ni 7.885417133215478 2.5637165451838264 8.901485058602113 -0.3780447244228328 -1.5091784203021106 -0.1367286950140226
Ni 0.2839863927439665 7.408496041654417 4.066378563233496 0.08327160363614691 -1.1303636504824726 1.197360685328312
Ni 8.763319482316922 3.941771152376978 10.555125527645545 -1.4902535583731495 1.9245216240650853 0.8150589854013383
Ni 6.598885711463284 8.181751406084244 3.9291782451661175 -1.1969968742309902 -1.036853656947769 -0.9526382013411142
Ni 5.48216548541414 1.0430914429538074 9.219245279507634 0.03504156498516546 0.4420875617363548 -1.1264105793719956
Ni 2.3810135834755557 0.14783764925426407 4.905010681129256 -2.4227849616620594 1.0391483665192167 -2.965211624039809
P 7.557452091055282 8.50435184007236 13.54429355432423 -0.10907185252870247 0.6821810315919735 0.5659219172862124
Ni 7.786886544366354 6.474729373197014 10.232366382931232 0.1227748039370918 -0.2501243717290596 1.1429962516448187
P 5.876222871507513 4.857337134631184 6.671698665737989 1.6490734288592566 1.0729648008480295 -1.6853542655681621
Ni 7.019914639681333 4.786297842331713 8.684368785162984 1.80891299885913 1.0382597932666764 -0.7315081599618757
P 4.764310373889401 4.251294193779524 2.1826901450309366 -0.24279081418212378 0.26863554315936955 0.12719041650628415
P 3.370161942180012 3.620711419005756 10.883604755433307 0.6948128614233712 -0.46007602789397545 -0.06842219732814023
P 5.653109003257316 1.3892200460011295 6.955159735259568 0.8136965578361728 -2.731211411566122 -0.11960540507017467
Ni 2.338170968731061 2.363815280806243 12.332273570056932 0.9295185846045153 0.9448945528399533 1.6943091607686045
Ni 4.400602933683051 8.28324273888993 8.35432843783449 0.03612579918827972 0.08594477959293585 1.1318476912271669
Ni 4.494446451378369 0.17004044452977965 5.349361732902322 2.78537298521019 -1.5241846639029555 0.8159095063270915
Ni 2.507573785957343 9.148039851418751 9.123721841260162 -1.217984789336567 -0.1865420189917239 0.008630679091804492
Ni 7.563568486877774 7.423782390546138 8.161080030096606 -0.24273399280225938 0.15460891772855306 -0.4725754459125668
Ni 4.0858080973986 9.106942126529535 3.0300429996714815 0.16724280444247974 -1.0358532407077128 -0.9938817813719334
Ni 1.2702519706556068 5.972730130630835 0.9098171270608055 0.702342594141513 -0.03496211789748172 0.6627836009019682
Ni 4.1589820953720835 5.103245946948209 5.344593914186064 -0.06807612684263115 -0.14421343342684198 0.3008774339122109
Ni 8.727085173832842 8.456682934238797 11.568083279678437 -0.5159589551045243 -1.2450608196177524 1.5800171974915436
Ni 2.3733750496942045 4.700937459358333 2.5934065885777096 1.1943908040667108 -2.764054940458704 -1.5825751880267067
Ni 0.6820867257573354 8.58438474018973 6.297170124030208 -1.643143436528067 0.6939551414087661 0.09497603655726869
Ni 2.3583300153569366 1.2737231877081285 1.4392009308929359 -0.22194688085357908 1.2848779516146904 1.8511608517847473
Ni 2.5051699217418264 8.347645880941934 0.8668241547862284 0.08683360995579238 -0.6152066224539534 2.1221427836891062
Ni 3.160422469043944 2.1945238395281703 8.993409197456623 0.757089865085722 1.1762275028941227 -0.35582833622679366
Ni 5.356041505396172 6.193449415994532 3.269735177812626 0.2732424458037617 -0.5406448878869786 0.6055626716062861
Ni 6.873548081076332 7.0627572544258275 1.557600988902591 -0.12300980276603331 -0.23861688531009226 0.11896957125838864
Ni 5.447833849378636 5.2630333073124245 0.08506616484352615 0.3190685029989408 -0.9243421826098984 -0.5561602099137584
Ni 8.66567990105347 3.633788811591326 4.544595328325391 -0.4987194512977863 0.5384561077657759 -0.7273352595311087
Ni 0.2934997549868406 6.118567653481841 8.657431583955674 -1.6593305878108904 0.20812257337597703 -2.559817046849114
Ni 2.7139255740020456 7.968067368115764 6.559086444503608 2.3573005068060047 -2.211964529738945 0.8796888055665818
Ni 3.0374727035499407 1.0596586152499343 6.985302707509502 0.1934372034496604 0.6280140586312668 -0.07243903179701718
Ni 3.6372600286438486 3.4928611117905453 0.5161681194441999 -0.5746258728181136 0.06798433845977324 -0.026181286381058138
Ni 5.649944070062371 7.285583401476483 6.915384599755337 0.438185141358155 -1.0933356511948977 -2.5080877367956225
Ni 8.577665057981104 2.5728308102789503 1.7295218306913036 1.4469574666886755 -0.42371651542833483 -2.4248490432799397
Ni 5.066464040052101 2.2257276676847977 12.103842428412644 0.015372882911644493 2.1853196734579075 0.9814242723348711
P 4.051662087943446 7.14292009314944 4.716394584703975 -0.4095916459911784 2.1425583712309813 -0.25327320177068635
Ni 2.656854681873819 3.8358990322750603 7.240033423057602 -0.006474809091066267 0.20812514447913832 -0.8571230044509239
P 6.76559694327451 3.6669138748545635 12.307876668601693 0.20047405569178375 1.6133908878559828 2.3308870498094825
Ni 7.161668377764666 1.5960915884708091 0.04235720123688263 -0.14167909704076245 -0.23524256952122066 -0.8439481576318626
P 9.265847760637094 4.887492172608841 2.1549640308571436 -0.8110953727678999 -0.7929999487187697 1.061740649997436
P 7.2869756008290985 2.239120625456961 3.1086131623357027 -1.9763360376332157 0.3613464378315454 2.515902861964667
P 1.1780419668673585 9.133857980680105 3.0047764376873096 1.4909351578212067 0.25234811885325575 -1.5192550878118223
Ni 1.0441402331327778 2.458206396913589 3.3292071497576647 0.6415889691022241 -0.4915213908874503 -0.3780881760662585
