# total energy = -340894.74306177394 ev
CRYSTAL
PRIMVEC
9.03968565439911 0.00000000000000 0.00000000000000

0.00000000000000 9.03968565439911 0.00000000000000

0.00000000000000 0.00000000000000 13.23049370064611

PRIMCOORD
 96 1
Ni 6.310477917793086 1.9228134312075185 11.42515278591326 0.35789601738909976 0.297906524209345 0.9251767626960518
Ni 4.504113715673403 0.2938557696574279 6.19353783378059 0.03289392251454335 -0.6732011966908664 -1.349921976499217
Ni 2.931199392547148 1.7226928727890667 5.008164773280286 -0.37508589890482497 -1.3630736833898267 0.0085453184668498
Ni 3.2725198390537833 4.215847183583511 4.8151322322914085 0.7622701237350809 -0.09713602032306497 -0.42420939590435325
Ni 4.8488692426841045 4.319369662353415 2.7832197403062024 0.27456527838024325 0.15093481131107556 -0.5935450783201197
Ni 7.0147598179819735 6.022500655640379 2.5049691797913245 0.7258162517834209 0.34825823718901955 0.9095151448993949
Ni 5.222687358696311 4.5561009471967795 11.463587720879543 -0.34390124577190445 0.296932847442166 -0.007372381204671175
Ni 5.688999537123262 7.9335805750208515 12.279261146098305 -0.3221278586505549 0.037593641983057834 0.3423830093551652
Ni 2.0058971809782293 6.487682873375204 0.5340022476966775 0.29583678616450987 0.3452888701480505 -1.7656976398139204
Ni 2.6792814360015966 1.5081449762535382 0.46294127969019766 0.17095984828275074 0.37773670626411077 0.11815170334278359
Ni 0.29289756299050423 8.923597895349266 4.706549337557885 1.5377122660757452 -0.12076882925065652 0.13495849048747724
Ni 8.640881730179101 2.4394404993334984 1.3435567097754335 -0.1874835569693868 0.8372347501674291 0.08073366770564161
Ni 6.96996817614606 0.559765351477172 4.623184453566973 -1.1903158626663888 0.04669329029148087 0.1225958551570663
Ni 0.8737208619261541 7.278700556291755 2.4096701029544447 -1.0283967844296678 0.07319930700180942 0.9824516851581209
Ni 7.5102701806934835 3.9523674692361173 3.8106206801729443 0.6376107011807663 -0.7581905543490683 -0.2934559446371591
Ni 7.698783782882408 3.8975327367685804 12.442591088349657 0.4018919633540756 -0.4484865232841631 1.395031467243346
Ni 7.933309384454741 8.727744068504284 6.815225935154873 0.33263749993262715 0.5125956950592463 0.5652158923581234
Ni 6.76951314936274 0.7313205035986544 0.4497361070577252 0.013234753522719142 0.2819955094060434 -0.7097406863777971
Ni 1.8991475344716116 6.555408197418524 9.051337691672835 0.34092493675239993 -0.4868137009991358 1.1349173312914262
Ni 9.271734264750812 4.936762105160507 1.4087961202960753 -1.056007861278717 -0.3571362564049398 0.7669076225070921
Ni 6.5248179015612635 1.7145752351768266 6.808266281259925 -0.03989323665051194 0.7028131060200283 0.2669224171230048
Ni 3.3755180160625398 4.374882371236228 0.03500166239932448 0.4292497865417382 -0.39430900880049513 1.9058929532203048
Ni 5.895601550071754 5.480806539520255 4.836724425165124 0.2518164147195018 0.5247187035750254 0.24305666624900077
Ni 5.430771880072874 2.894859856688345 9.384799035573588 -0.521932913299772 -0.5670393187201073 -0.8463405691234392
P 0.2608609174473208 5.566303885329349 12.548686261623393 -0.18737865596040632 1.1081794010759496 -1.236817605772354
P 3.9574658518789945 6.295544357285936 12.546437187861782 1.1955771110653282 0.7528945960574518 0.7214410055338607
P 2.4564893462563098 8.466235005603961 1.4597736189449673 0.10822698802990392 0.24136308059666173 -2.236546847064
P 6.122235506170273 7.802713047501476 5.986758642995573 0.40702182838147316 -0.5981530094057763 -0.7210663958032615
P 4.641724848603392 1.0054028651124143 12.726477892796861 0.6452407069221985 0.5770663639388061 -1.2367834101003088
P 3.9380666867165584 6.261546099981221 8.263012027109205 -0.2779537352365019 -0.6560218566981024 0.5153241497340028
P 4.744307200077445 0.7855369215754592 3.94598183537277 0.5640501541847963 1.015978613270973 -0.6383848603426295
P 0.08482931304790828 5.656764018498265 3.614650241384536 -0.8821557790498354 -0.861016168857743 -0.11205484641642638
Ni 1.2509749624109807 0.8450948897360867 2.655135531963674 0.5683775779155567 0.808124463065034 -0.3202023594930679
Ni 1.76405847380645 6.282048106779172 4.754853801193481 0.943802091106723 1.3941166687385602 0.15881575672104906
Ni 5.963173199460946 5.575578602690327 9.208330814362737 0.08988190986381295 0.43261818879333885 0.7115864813372842
Ni 8.527261922664353 2.328017335404244 10.221402948684755 0.6380063939572883 0.8354761156051095 -0.015608138850902153
Ni 2.2646401001042276 5.114238251308735 6.924840258008171 0.576228184308227 1.1891740357524618 0.5987968136373624
Ni 0.43922928055805194 9.235937110024228 9.289698831818521 0.8456170606938532 -0.07986566327839148 0.12769898071158653
Ni 1.418941359374268 1.3045893373310202 11.577568211847218 0.23586040561087765 -0.05536664969576271 -1.1507941504226828
Ni 4.300530957694274 6.786272726348367 1.6861734471880774 -0.6472824199425756 0.3854289327020459 0.4847773872953974
Ni 5.683810757625015 7.798943498632541 8.167527636718816 -0.7171115249205715 0.5480447798954754 0.04800455290373668
Ni 5.364438667602253 2.868753244857444 4.795537809921373 -0.6518546126942902 -0.7743080287362213 -0.15667711311149146
Ni 0.8984724248950564 7.405527344376083 7.094336169764322 0.1106530809728933 0.8711666270281836 -1.2403001650043155
Ni 5.239492134109623 4.796077479147933 7.1662703713936775 -0.6524513657380246 -1.0965251046664728 -0.15004135296252868
Ni 8.437253773772287 7.162775628965067 9.141741778791419 -1.3447538020347163 0.18375982826089643 0.082140061134865
Ni 4.874334036841877 0.31265921954297404 10.364464108025011 -1.1298936528245895 0.08238097350107748 -0.2545584962410132
Ni 7.9104209006750175 7.078950624980322 4.892822001702181 0.37074561965825825 -0.2100226186121673 -1.5193813289770413
Ni 7.432908551867705 6.267096466900948 7.011777625723312 -0.9706518643097153 -0.9632026071205219 0.5172676466136188
Ni 2.4570769258162155 5.145506523581272 2.4215509616557442 0.526745504197067 0.04675808209114528 1.307459179349316
Ni 2.48135752116864 5.410342190759218 11.354515779158465 -2.1303165777491504 -0.2995571724388906 -0.6692121301361313
Ni 1.0550849768238522 3.3099983752902506 3.637737598246074 -0.5193070456411508 0.29626975993687044 0.410520585563351
Ni 3.3805712002777315 2.2567303752593384 2.841513056460201 0.7213569304604867 0.6089678406330932 -0.9999770956363938
Ni 1.2660350785156487 3.4905660938921375 8.285782091008393 -1.064759896439734 -0.6576506505507771 0.5316992486579166
Ni 3.5722306130335366 2.7687020053337554 7.289525579722332 0.7395325729282489 0.5278425939159878 -0.32749297961721024
Ni 4.062561235932337 6.603770515041559 6.092496748690599 -0.08221693711938743 1.7094694134488106 -0.07180654041934086
Ni 0.6640941701969766 7.358231709646419 11.147657039140721 0.4207648889991785 -0.5782914945951588 1.2528229800616748
P 0.1679510294978743 5.564541146649631 7.962547343355665 0.9177588729654258 -1.6380415965251274 0.10318299784809326
P 8.671300272011159 1.5974389899881785 7.909836936989326 -2.0644567418315476 0.9860831112631211 0.3910768750164426
P 1.8858863157888097 3.3846661778259994 10.514590685580998 -0.8527580426140088 -0.4005624459093747 -0.7272303585221281
P 3.9664603389883246 6.098660006289736 3.96451771056642 -0.7895749821976209 -0.0725318486211396 -1.8120880541530016
P 7.030226719935807 3.9599336860305994 10.417465592265641 0.01947224979199872 0.4104676208382286 -0.9521111251930505
P 6.596023504536336 7.846844792293187 10.225874881119918 -0.6050775044397514 -0.043187848241383685 -0.3895486112973743
P 2.3034474701146355 8.607389695264459 5.780932235066157 -0.17257835772278018 -0.8990245297807162 -0.36217021928442145
P 6.7306244221824985 4.095718802482111 1.5646113719605061 0.6425374490584225 -0.9499094895560416 0.17184276510833632
Ni 5.28975278569543 3.099753369070341 0.3283720009434146 0.17881019756510494 -1.1161505922068842 0.16527462497251535
Ni 1.4421733512043982 1.1596018210028267 7.005546570482647 0.8902835503632925 0.0483105141799297 -0.0059791004015703475
Ni 6.905632734179121 0.7994544214282485 9.106085643159213 0.3051475220424744 -0.3120311365361852 0.005919707918544643
Ni 2.8856936155538113 1.7150091400826035 9.347886383651737 -0.36140865852804854 -1.0756919699712055 0.15715739518201968
Ni 6.240176283371715 1.8783833767930869 2.5810968915413013 0.6934141813036316 0.9598560592457921 0.11358928078308178
Ni 3.984096765471042 7.041734239624428 10.444534930606233 0.7653775590158108 0.11531346256304012 -0.8218958058175135
Ni 8.211966730818785 7.243834489175486 0.4109694156322337 0.5308970644715953 -0.7989672220457982 -1.101633886647948
Ni 7.473261708104943 3.7074371896106793 8.164312220573299 1.0621859650649708 -0.014680999050942459 -0.17354586384237208
Ni 2.957025774126402 8.419906617226754 12.330991650552429 0.5696222489559352 -0.05583124803700707 0.5798318424990853
Ni 9.19019630120693 4.92984674572469 10.144044031764636 0.2973403672932299 -0.9195625018330679 0.3149827629653414
Ni 8.687951372770343 2.1483987837837435 5.533812543603654 0.1699452909753073 0.85956658089541 0.35630656141479283
Ni 3.6740265118658693 2.700190228648714 11.504165061318098 0.7072824546452916 -0.582950333523409 0.2845355022190777
Ni 1.2356888541678872 3.5837381327221576 12.701737177450605 -1.016402588182269 -0.5713569722588546 -0.3827536998627279
Ni 3.1090823245445414 8.41113812225585 8.020298278377442 0.24661970100991074 0.2872721844239504 0.4102681032329128
Ni 5.4952790760650165 7.737545954465131 3.7330764496993165 0.08182098723254941 0.22711094155302175 0.08844466319665413
Ni 2.923660294809277 8.299904791722872 3.44925563495653 1.0964238032019182 -0.3134709543065053 2.4399157078050755
Ni 3.6115261260629437 4.331880587136644 9.421685472407379 -0.5761893606504916 0.612268622871552 -0.6762381837449772
Ni 7.312536099256805 6.071712703703892 11.216349609536502 0.3439207861559303 0.3359249124346472 1.2708404996850178
Ni 0.5817833135396808 0.12562812578212088 0.3640679111919819 0.18321012640501352 -0.5376081579431838 -0.18394237658534773
Ni 4.598117405572828 0.32995575384949977 1.5735552368308292 -0.25987836579202983 -0.8407291364739327 0.6661784855161301
Ni 5.905861593156266 5.753877360222424 0.32689220442100514 0.47501825102610445 -0.6059987307024403 -1.0724130421096176
Ni 8.051430955366925 9.03526513078802 11.427058351624462 -0.33762929672026365 -0.8559112435310097 -0.5118976405509571
Ni 0.0668412427978009 4.794450335751271 5.764380570847882 -0.7664057431700091 -0.7723269937504506 0.05269167396676087
Ni 8.00673875007192 8.743671994420506 2.3060093169958256 -0.2272217560992732 0.28855593623238046 1.3242649380527451
P 8.46675026767957 1.6579958434006459 3.3613916994738458 -1.3225906356741157 -0.21067053660881135 1.3411812541921095
P 1.8533705669121647 3.2464041875373457 1.5934940712198247 0.37336891621371826 -0.27764983084283795 -0.523916262278388
P 4.777654600023495 1.1084643199199293 8.110319082829259 0.3429216554674546 0.2155821149778158 1.9260604293071149
P 8.486547179005635 1.6897612983777188 12.52706785366162 -0.2593458903273276 1.3560085490129292 -0.09171330664559688
P 6.360087712020228 7.741107590566715 1.2986493599646474 -1.38462698408057 0.31007092748602083 0.5208563924061417
P 1.8142468079079608 3.220830917153128 6.024651196829635 -1.5809805898460771 -0.21705175754480682 -0.028308102916073826
P 6.793992617796977 3.845572624301815 6.051349908063211 1.3672028750668517 -0.12183609417290632 -0.5804499356990585
P 2.2874201076575065 8.558882742672832 10.254161865102347 0.36677172261217483 0.8384958762680397 -0.6093889873309117
