# total energy = -340859.5156977 ev
CRYSTAL
PRIMVEC
9.31552908128250 0.00000000000000 0.00000000000000
0.00000000000000 9.31552908128250 0.00000000000000
0.00000000000000 0.00000000000000 13.63421843856896
PRIMCOORD
 96 1
Ni 8.952475091287328 2.431474226012567 8.297635307618828 0.19043929716360106 0.5268596611774281 -1.0970364970852526
Ni 5.939339221325131 8.279269741778874 1.606124858767429 0.4051626636855474 1.4372749492935895 -0.24976081774205375
Ni 2.1859541381212084 3.07823278809032 8.870722938482436 1.7479084341512994 -1.8802608544744972 0.1547158756200626
Ni 0.5189821056518225 7.127618811981294 11.197020181935534 -1.2672391554870046 1.487249224329187 -2.066475829144106
Ni 2.438395664216516 6.338938162370348 10.018792047298293 1.1336076113410671 -1.767232331290892 -0.2920230688453745
Ni 4.28200410382477 0.627086959042384 1.8781541481352044 -0.6049777456370936 0.16467118706056155 0.2797200831083053
Ni 0.39485267891209125 7.528903863813745 6.2781487449495 -0.781759342807944 0.06302930844734307 0.7573289776797215
Ni 1.5135592396541317 5.059971894842794 12.02903481033131 1.0637988180780453 -3.7137186325525264 -1.5009789152104536
Ni 2.8874228032565554 2.757862422986673 2.087316657068027 0.09405532451521222 0.2600729983013392 -0.6045784533161459
Ni 8.22019065552121 1.5439651269996089 2.8297550196743937 -1.3204648475803646 0.31592687204616554 0.46084221663603864
Ni 1.8833112251065451 4.384009148687814 0.7713546968309671 1.3536163946316688 1.5660154838958127 -1.1490067195049567
Ni 7.813688907330467 4.353659154517604 4.775289322147395 1.087963588249707 1.056350075109484 -1.7541320464635082
Ni 6.943329697595395 4.272828307551701 11.316987430223682 0.14960837919016812 -0.10882965461090935 0.3058412056753894
Ni 0.2456486421944738 3.214621451272039 1.6020753982193043 -0.1873269767868645 0.404670040319845 2.9980140152818104
Ni 3.8964809274177323 6.973232546363466 8.058627706199044 2.104990954500168 0.5767393196166907 0.04522004818006405
Ni 2.2720948367375158 6.05426490520416 3.8095232568896 0.9732764464167561 0.3203167735837451 -1.7334655192530917
Ni 8.261579551806735 0.46655337569806027 6.166170494512906 0.575996270803079 1.7702178962817772 -0.2302949957079582
Ni 6.284293268017232 8.840586269931162 11.057746499357094 0.3737018740731048 0.7904874667095612 -0.70206054412472
Ni 3.456350118774424 4.628942358238865 5.255596145172926 0.9505913461144145 0.9295424958639151 -0.060141959597219005
Ni 4.9162053325257755 7.260011113131392 3.5864126060687926 -1.5805535296109876 1.306077468510441 2.659489203330471
Ni 2.0376509130783176 0.9113503329232768 3.2966586592707965 -0.3956097298897896 -0.7867148870410063 0.14552341048751713
Ni 0.13725128118667942 7.188793892311487 3.4140762472138317 0.12480237589008182 0.657752466235964 -0.6950653437538094
Ni 4.70264682535817 6.385282920196251 1.6297667403526273 -1.6358078220986019 -1.5622405902344128 -1.987884404592447
Ni 1.431964519292908 8.86919426013887 12.668997693849466 -0.30396301481607 1.2662245981795612 0.059170853933201324
P 8.836207971201882 -0.18735764970808025 11.338502576489955 -0.9370629726106764 0.9633100792326637 -0.7800341325867212
P 6.663630933028008 4.277318392631518 9.048239663131763 2.007433530368969 -0.7032586781978792 0.5086449379416144
P 2.2198999265669555 0.9956251310385734 8.105092634351772 -1.653356629615643 -1.002712749400002 0.5568744623719635
P -0.16666413311823872 3.682139915796383 13.039003061696425 -0.20418878553920963 4.194879249030943 -1.6583448268588536
P 4.150757612767654 3.646014293515207 7.0185004290125494 0.1815967591713066 -0.4880964243663013 1.0525065329936778
P 3.991368907963391 4.598787990182091 3.1636161341817535 -0.3256399855688714 0.7279960330435592 0.529658564078804
P 4.430596110273209 1.0795953113486625 10.896767633716472 0.7712018790070718 0.289612659631669 0.11030881025959713
P 6.200500082762157 1.1774083680666496 4.148115728683346 0.6921700244838854 0.7075524204772267 0.02675309972412812
Ni 4.942912954774392 8.853516224476358 8.990063251654668 0.4336132057167565 1.1206723913366379 1.5128450705204204
Ni 0.028587496043443683 2.9096310248961443 10.55082614092798 -0.17463446892086054 0.902019093632666 0.9209041034626269
Ni 0.059257012865598806 2.5251511877607653 4.928865136723846 -0.08348783341201106 -0.9295265550243152 0.034126509370063805
Ni 7.410438278834445 4.179933850257248 1.8520175678272373 0.881950605017565 0.7020140071575006 -1.5430244223172782
Ni 7.334805497168413 6.994546477198775 11.92575540107217 -1.112383154744652 -1.4592082590315707 -2.7281302015376374
Ni 6.836145218490905 7.175146642017025 9.264888131338736 0.3785088085434449 0.33189393689838326 -1.1508643415389856
Ni 3.052000257831477 8.775470720744616 10.604777028354858 -0.08222747864234871 -0.6801570591834092 0.4470796156343074
Ni 5.2410471516508155 0.2298727934752442 12.991324320087474 2.1944897699929498 -0.6155745473163334 0.45684543677181966
Ni 6.651558007170246 1.485649914137266 7.584593028991439 0.916485405569641 -0.5023223381576961 0.18302243587423964
Ni 4.510849394428015 9.319069112337132 4.885262870697732 0.23762469660015204 -0.34521816481111517 0.5317095330705618
Ni 6.545072192756597 5.534849627444016 7.165832044358709 -0.6422456288496166 -0.4992475558871144 0.11081248936889303
Ni 4.742843333904657 4.745023167740087 8.83279196664012 -2.22758115323028 1.1813180300431525 -0.3127471887666033
Ni 0.9362200012585158 0.5884405545566467 9.821858965113984 2.769827324166107 0.5281603822667226 1.3869962556436952
Ni 8.507807619918148 8.30762621269788 13.270225675354379 -0.10462101584620047 0.359881937470877 0.8585787630608439
Ni 4.160017248803624 1.2426822812497862 7.4314131244064665 -0.3474946195501177 -0.9400917321346712 -4.147236964562632
Ni 1.8725052112215104 3.4387065064483417 6.324682608018392 -0.4801753697470118 -1.547009375106955 0.8123431291320719
Ni 9.221842933959454 6.065778899309249 13.051655413471128 -0.7167459140510366 -2.4449584124353057 -0.9742005008929222
Ni 2.0460907825436982 8.292535055375675 4.9455539073057775 0.9736986215558392 0.7292427609664667 -3.1747729867448418
Ni 6.79416012833586 6.459043280490824 2.886936532631729 2.8530835011832862 -0.8248026950516634 -0.35567664114027775
Ni 1.904271165831828 1.8198165780027549 11.548564965544584 1.1207806347797278 0.8091001967147421 0.3509738363479697
Ni 5.314295157838772 2.8207329296333103 12.170367224865432 -1.3102087170699952 -0.29859660829783413 0.6927462087023295
Ni 4.340691937855563 2.3793072624296405 3.995630762577532 -1.3764498475864166 0.1469755695530114 -1.2857786090520889
Ni 2.194934308280841 5.6009060450808965 7.5229251571659725 -0.8180802887261652 -2.612668900542823 0.4024802317573778
Ni 7.187303407637689 1.6420669651231443 10.043987759155925 -0.3109859831011225 0.8494408053153178 -1.166190944593727
P 2.4317630074181156 6.864501689409909 12.099196581691581 2.3134254026896093 2.111339008205383 1.2039306252363458
P 5.197217586711947 8.55511187725281 6.94138554664901 0.7084461359360895 -0.40410156941088465 -1.1013014430091936
P 3.087557632830768 1.6046557998108169 5.295966854115663 -1.0297890367915037 0.09768289396547047 0.9775994992721422
P 3.2490609627659817 8.146206722525568 2.541922866552676 -0.5281745233341096 -0.6307484268432944 0.05558339369225911
P 0.07454752251292299 0.20208177517936127 4.294656455599472 -0.2429558790050783 -0.30278493534756884 -0.9710030770015471
P 3.171518497611646 3.4833744690162223 12.816602254201515 -0.2996219642385549 0.6343019485225075 0.16812520704743303
P 6.463347054986416 4.537277550800294 13.457601024567959 -0.8705089388395265 -1.7820051187246921 -0.4984119473596964
P 1.0426965001429533 4.684788955860229 9.064164560318373 -2.797747704725459 1.5440950296736375 1.6465470628929775
Ni 4.8992697004197465 5.815181847997766 12.350925469802231 -0.23920206838960092 -1.1684154630488717 2.065641763278584
Ni 5.006416917407393 6.858837847649477 10.493262691272983 -1.4486921899915954 0.3226981293317281 -1.0053244759912363
Ni 0.13655634270752118 1.8685833734235797 -0.1116587277846484 0.04412295846114336 -5.8039787086004235 -0.6036839665263345
Ni 8.916740721233024 5.197981460107268 7.248646167493683 -0.3020778819782152 -0.23818699686152525 1.951213531533975
Ni 1.6939172007128886 7.7337709822272656 8.411645274976392 -1.0049850903739466 2.298982744901718 -0.2932248024629595
Ni 5.975036329262592 2.9064730604935347 5.757089276283573 -1.1381841749681558 -0.13364028589668597 0.08921496570377539
Ni 4.970375134889117 2.2612422452064247 9.00049291815957 0.7729543429218043 2.217492144425394 3.9167252248581774
Ni 7.324604992682109 7.858068088492799 6.705049639007011 -1.3446195904496971 -1.332548518217776 0.4809387302755975
Ni 8.310942541097079 5.453757945660199 9.938540626249331 1.8936321335750808 0.2787322652737393 -0.7861878108929428
Ni 3.689890436100132 3.9540508979431763 10.75972967814873 -0.8326008509398435 0.09959168095240913 0.19528762639483788
Ni 1.363569903824007 0.8763490950178966 6.03997208873536 -0.9494850004241131 -0.12073334802703078 1.798072199489884
Ni 9.374310200559767 9.178041315608217 1.695238142755042 1.4220655885430025 -0.5032926724907655 0.2927085249481733
Ni 3.418668803114971 8.212244509104025 13.572564902116754 1.6593766105574774 -0.9437879500393358 0.5707064831590494
Ni 6.97921311611708 6.378044753999121 0.4911743194033593 -0.1395759346548306 1.2599963578816622 0.45817264022367543
Ni 8.572792751695737 0.12923247364164675 8.761417313376544 -3.8107780340013853 0.8830230121461373 -1.27822676484676
Ni 6.166805813605113 2.0054657596534944 1.1940449716849975 0.4621624781093589 -0.21885924306719082 -0.4487436336002917
Ni 3.476872229626779 1.394450883159257 13.311660217733039 -0.4165302820925408 1.24295637168024 -0.4297552654232469
Ni 5.7981996382456815 5.289022127088686 4.668465354023379 -1.5847606257137998 0.23983275999506434 0.32523092305591084
Ni 7.164321997073568 1.5370530043248711 12.299974182781371 1.8417231034106154 -0.8787302983080543 1.2968788327303085
Ni 6.208241287536695 3.2154039557257827 3.3814085493758657 1.621951375831484 0.16056025021598153 -0.2592286480231729
Ni 1.78513486274932 7.081162267804856 1.1986608164091652 -0.15792666924787643 -0.16352293238873128 0.6448313872989218
Ni 7.213722248480756 8.57485148365142 4.229198094937953 -0.07248068366823002 0.42605004865751783 -0.6094152125831569
Ni 0.6906011687575181 5.3882884063636265 5.358902569466779 0.5602816882812997 0.560346480080964 -0.25358893323889226
Ni 4.987953538510721 3.9754952461874433 1.459011226804813 -0.5226111703137192 0.10569213742319217 -1.7432871333292042
P 7.400479978107633 0.33980907990873493 0.7676350060169201 -0.31614053071886844 0.961709310404447 0.2953603607487236
P 9.01440472948363 6.571444455953609 1.2552722189787728 -0.9158963658353904 1.6118988766914883 4.591595581721351
P 8.806239913729332 7.538619960781064 8.37025172092626 0.419070274905575 -3.2825384617572952 -0.7334925373817561
P 2.8639476696442383 6.858903056353956 6.084529196505627 0.7217269122053956 -0.2260588461394236 -0.6580725685795442
P 0.5964807878188653 4.16985444765069 3.7380936420036774 0.3066706435552202 -0.447102755562759 -2.601074510837004
P 1.9267402222893313 0.9734075938697735 0.9445257271032547 -1.2802561365719627 0.01522401603860604 1.065503716584294
P 7.932024074900808 3.2710083495876554 6.4707184332512675 0.680374574510854 -1.7626650236351835 2.718564412226073
P 7.975266761499371 6.58628409398711 4.820882316765952 -0.9390954296596731 -0.4596052589051439 1.5134212547388646
