# total energy = -340885.8501072359 ev
CRYSTAL
PRIMVEC
9.14952732753668 0.00000000000000 0.00000000000000
0.00000000000000 9.14952732753668 0.00000000000000
0.00000000000000 0.00000000000000 13.39125809224935
PRIMCOORD
 96 1
Ni 6.35764974432916 2.195886571039386 11.382837347257098 0.21001053442730927 -0.06400915586210912 -1.0243120728373325
Ni 5.158155854426275 0.6422895024071169 5.520077304301298 -1.5386185799400984 -1.0932009253892463 -0.21119838408782338
Ni 2.8503339654281574 1.9001006499203805 4.713937150632387 -0.30855603350339117 -1.6098299099776017 0.12575754071449957
Ni 3.456243117069579 4.6074458014643564 4.66488470444632 -0.09779679383551546 -0.2105054717858568 1.2852538468968704
Ni 3.7373989439090347 3.127207813454086 2.879937261263982 -0.07477590746030993 -0.3636092657237931 -1.5616245539169686
Ni 5.278344046081165 4.876743840820199 2.5673454882546216 0.21336376717025834 0.359498071768897 0.7294739031406663
Ni 5.03682397184897 4.493396942680999 11.231368751397754 -0.5535659668240208 0.5260091402516748 0.7757792139651091
Ni 6.073584367783078 7.979220481767953 12.277962144406429 -1.054596325643171 0.797291377005272 0.5380419030464927
Ni 1.8851411726551746 6.799526169113941 0.03820934128882325 0.8892286267362169 -0.24082880535974655 1.4595815832105894
Ni 2.5995454199607004 1.7027270452934569 13.633238632328013 1.0670828881459558 -0.030974851114959557 -0.5445197974613526
Ni 8.047174021614243 8.71428436189601 7.095920533803672 0.6056341482741698 0.9992286475061436 0.3493031335137662
Ni 8.688363750830366 2.5893528464601263 1.226538977883449 -0.11677462048959888 0.10263972375011354 0.4599317890066273
Ni 7.421254853594226 0.3477735356883627 4.447450761040213 -0.06887676836705557 1.13551742676927 0.768588866864257
Ni 0.9260602641715849 7.62476779109268 2.2682648223263198 0.4874695894155798 0.19533699157553455 -0.34795381857472335
Ni 7.7728528917271476 4.549712283700779 3.8374792192423683 0.39007363056290884 -1.0186553887721876 -0.6948326589177131
Ni 7.3314064947291975 3.9730999187279745 12.592510086369488 1.9278990251777506 0.493502425873221 0.21070601783243711
Ni 8.75392926403065 7.381060979816825 9.144367960841569 -1.8963896417155597 -1.3616354082814035 1.0355603920576424
Ni 6.820469437285229 1.1104964370841346 0.04182797936734857 1.6192568597184565 -0.9099751152549489 1.3350743699634233
Ni 2.059961192292048 6.474992432969079 9.062319574067422 1.147579757250443 0.8042904340309245 1.1045163504020654
Ni 0.35607307197415367 4.993995034186323 1.29179157724736 -0.3532348644680045 -0.01247139299413336 -0.31515682664936046
Ni 6.841659742695759 1.6967707029695127 6.557578811953131 -0.21597215132738287 1.2568961216897838 1.5957716321123228
Ni 3.4388041178845747 4.195049153895781 -0.24149811536648405 -0.04379128615333748 0.34461472689916134 0.5762991467554784
Ni 6.051332717196546 5.854517233739761 4.935723524212841 -1.1350356020368453 0.9944124570644229 -0.4429702214516242
Ni 5.480539451636996 2.8431698854901413 9.289020158803313 -1.0927155011123957 1.249332964630545 -0.5126856836698912
P 0.31896899359275355 5.700640482274176 12.491553286313215 -0.4926732451037063 -0.14665598143006356 -0.6457263883093654
P 4.333408306926021 6.143733794200407 12.666991814000932 -0.16828898631880693 0.6597496991716509 0.35093886934497626
P 2.8539388792156135 8.815322592745959 1.2339693090682033 -1.5523611263371717 -0.6986628312970806 -0.19280111252755827
P 6.638714075894823 7.912785763466633 5.644937244636074 -1.5285272571423676 -0.7492806534539483 0.5991112595539876
P 4.906735991569645 1.2724705202804274 12.569517324065231 -1.2877578442656468 -0.7130196142393849 0.4598801098330854
P 4.278373899739346 6.037828014784654 8.282251913618651 0.6980794479897848 2.004058957469781 -0.18688243305027816
P 4.74206279779645 1.271052343536631 3.4219891164668406 0.02901412784416293 -0.1621893011789723 1.827449881321053
P 0.25254433977155005 5.940952818892299 3.3476135233529987 0.24189607028199628 -0.5378341579110608 1.594164949746835
Ni 0.8290432506048511 0.022636845689202267 4.2197730067802075 -0.88352026349753 0.7502576726552369 0.428629636459236
Ni 1.8399882550381774 6.775728248400301 4.828914686444747 1.1739099105045396 -0.5359495392938384 0.2785684860023654
Ni 6.497170887336576 5.940687482598299 8.951774984270346 -0.8069080741594297 -0.6184575252910833 2.234655543578558
Ni 8.571021062190448 2.3666899481567327 9.92174383033534 0.2915119335369109 0.5342461834494864 0.6780592961141161
Ni 2.627671067124764 5.114787094648248 7.047176426690287 -0.5155421792820798 0.2753083271938549 -0.633078874748684
Ni 0.8595614991786089 9.20973126948677 9.0980338392399 -1.0860781983015362 1.001178829253979 -0.6353615001352735
Ni 1.5852654127976085 1.1482107889417361 11.112092767622585 -2.181393598930624 0.2686473702339115 1.4628923927513773
Ni 4.1672071420804775 6.745690350013959 1.5161846511781853 0.2083048645901122 1.3402952520427305 -0.7419555805474448
Ni 5.683787052841449 7.967481638140272 7.869855266050076 0.48683015605936797 1.0529657320182833 0.5791816105095962
Ni 5.319928648020223 3.1930569620031295 4.982753009895339 0.4993357447255465 -0.5994604153632902 -0.5717804329495185
Ni 0.9647536154587747 7.4162958097546285 7.19079747291638 0.3829856133678759 0.4034870757553373 -1.4438250917072812
Ni 5.359930381722657 4.443715009011233 7.1893783812198455 0.018644611684380794 0.48329900297765793 0.05269064552549636
Ni 1.0968727908163112 7.54697850931361 11.310176375574143 -0.560876384442505 0.8839473237326195 -0.7786531930787944
Ni 4.693048779625376 0.34119411054988596 10.529358453880269 0.6074316064942248 -0.6047823417968359 -0.4209165840856945
Ni 8.70005684682115 7.418985770804151 4.9941496611990335 -1.0237055496015852 -0.4211119879259522 -0.4386582243398317
Ni 7.603897719140426 6.274965465402149 7.002918332850988 0.051521050697427406 -0.3124216871063845 -0.511239695251984
Ni 2.3480889589945533 5.669751677841556 2.729915205683309 -0.32417779920104817 -1.1878997970257283 -1.8126349277954072
Ni 2.5482074218352757 5.51781462618039 11.272372358348225 -0.9235312566728288 -0.8250973434739467 0.9982310594795647
Ni 1.1621546686678361 3.6896750090984454 3.6172866933313936 -0.7956253021567588 -0.4852761813086868 -0.35742319151773927
Ni 1.6283047895899807 1.273623360730223 2.4084447313050465 -0.04505986845311595 1.1550439268379722 0.09815751960904387
Ni 1.3512479510164654 3.4060488098665704 8.308030707009916 -1.0908907891988309 0.2159508111711442 0.015682700842579445
Ni 3.7756531178820163 2.769717479688874 6.832956712252539 -1.1281738419200054 0.17504738808856304 0.07730638719164751
Ni 4.200795057090001 7.061074558779491 6.365801973224145 -0.6425351350655774 -0.6126913122312675 -2.492362355640566
Ni 0.7199680749048972 0.045367931510411644 0.4484476153486151 0.8910407402442914 0.10162413800140563 -0.4406158622868347
P 0.35646741660420284 5.511400807487478 8.141054577195343 -0.597172647770378 -0.4663101817291453 -0.8616784850320902
P 8.695326541166036 1.637728802790691 7.879911511592698 -0.752705105754465 -0.03272268704400171 0.33505767933834557
P 1.993251988169347 3.419214979765427 10.488689719631882 -1.5748713916245458 0.3229043318052633 -0.7283284766823135
P 3.94157979690618 6.470930042812656 3.821677985458264 1.9420290368212294 1.1362992992406171 0.44877628661044
P 6.924545311225117 4.111751856634353 10.429795126843867 2.011981811861283 0.7336622301904009 -1.5161044579979823
P 6.614495276921735 7.941396335581801 10.085438939631684 0.027982858366171162 0.013080487333041988 -0.524715875361548
P 2.190341957447511 8.67052217244067 5.76750797322054 1.0955642834151003 0.6067893449245356 1.0491029066287674
P 6.9495143714433105 4.151616347426097 1.4513044375786128 2.1924254312647533 0.5062275867493733 1.106016846206992
Ni 5.456650035649563 3.2267272227590666 0.41498687876966456 -1.570957144171804 -1.2927236729113545 -0.27984632427352446
Ni 1.479807960223442 1.1779284538698025 7.076342375117379 1.0662868746072216 0.24066554030900486 -1.123500861924368
Ni 6.697792574183162 0.9076193917385438 9.188866687250943 1.0029716594883435 -1.4124159812683803 -0.9245838663070592
Ni 2.9794246472231354 1.6590106034750147 9.028091192141344 0.4875541787095862 0.03883188526553312 -0.3868805775469079
Ni 6.604275254839022 2.403599141604953 2.8869412244728596 -0.06261561794869216 -0.030098362047277193 -0.8088744538571812
Ni 4.193749921007916 7.0188128918143615 10.686652553822034 0.9117432628989652 0.29705111818758523 -1.7958679927497134
Ni 8.40568910244594 7.47369079500517 0.123415229961579 -0.016212605204120465 -0.48730323904104467 -0.3476501712913755
Ni 7.70105655038154 3.8027631675069733 7.954969659449037 0.6444256672200708 0.030056195955432106 0.2675353681166554
Ni 3.387996792347151 8.454163298501635 12.52212551709851 0.32566646793143267 0.4667033034025059 -0.06919507093842277
Ni 0.30693645013619564 4.9728321773579305 10.289520977733133 -0.6186819825970635 -0.7360091331560228 0.5413881938109063
Ni 8.860814042875992 2.010974622703111 5.642125594872405 1.6377541471916957 1.5054125255017752 -1.5201668009928142
Ni 3.5219458731805533 2.2438392440344583 11.244103978557044 2.1100958798269014 1.6880631798588928 1.3420214907052177
Ni 1.2608963681455738 3.3483427406851316 12.633768050181105 -1.7029503813833706 0.8986283227835621 -0.7089431301771661
Ni 3.2476430423482165 8.595239861163536 7.889446234074698 -0.0486126188013808 0.3734187956150472 0.08392466383911353
Ni 5.791550186315208 8.187838855544076 3.4100974757319245 -1.4168074254678569 -0.23622858758357376 -0.4333589236141052
Ni 2.9460929189802334 8.51930793344247 3.413243998197676 1.8578943138538389 0.07653994133926818 0.2861794655804039
Ni 3.5044611263586525 4.402963014063693 9.282271467408318 0.44133602828231083 -1.3478208709958142 -0.08387298466557169
Ni 7.52263161695721 6.359781584208545 11.470455966299784 0.7342466419389613 -1.302788513346524 -0.8717626087409696
Ni 8.16014323616684 8.978220778207563 2.248325257308544 -0.3390354330391709 0.5502461584221685 -0.7280466837758365
Ni 4.697806533862627 0.8575019405655215 1.3253392343364143 0.48261148999233006 -0.9034707384775278 0.2502624399688206
Ni 6.402244540776019 6.0016965311636765 13.771837502975592 -1.0647046177217665 -0.4578684787196953 -0.58502367111267
Ni 7.888347375836441 9.443135712933499 11.272426340559761 1.1361805142745658 -0.6128255238162865 -0.03214933103903495
Ni 0.2461158818348323 5.222742368196972 5.804762103850961 0.18600105888658935 -1.6690868958667062 -0.05933848985931715
Ni 7.5061350190922775 6.553660069376565 2.5409911895911974 -0.32758193978659067 0.12029600337929604 -0.16967018293704972
P 8.689681282772987 1.6954348719721304 3.3015749314856824 1.0402613970777375 0.8659241476823216 0.4679166069843167
P 2.1444021804758915 3.611849129209858 1.4221110405693822 -0.5106745667771334 -0.48106985653682316 0.3123684652709459
P 4.996428808469225 1.3411743213718221 7.80465298908675 -0.40466721210636764 -1.6294841938734195 0.005005423634391379
P 9.009347470352047 1.5749447459137236 12.70166211809943 -0.4377922767951105 0.242215401294628 -1.2306042778727904
P 6.498653110772027 8.0592330987002 1.1451173337347842 -0.3094482063003574 0.5828032664225834 0.5908258796167437
P 1.7889064436793736 3.505888452629828 5.749844810614741 -0.1875095251113158 -0.6903131737808046 0.7014522211167596
P 7.092027409903766 4.148853190157539 5.821046432680694 0.6506112272054925 -0.6526596250940889 0.8620376681437217
P 2.629702262202975 8.749994967257537 10.041167121501317 1.4075964483925498 -1.291809645737517 1.0142222927014983
