# total energy = -340888.0148532321 ev
CRYSTAL
PRIMVEC
9.13805995830598 0.00000000000000 0.00000000000000
0.00000000000000 9.13805995830598 0.00000000000000
0.00000000000000 0.00000000000000 13.37447443824079
PRIMCOORD
 96 1
Ni 6.897480874924471 1.9451548890301211 11.773188795833018 -0.9463485116776607 0.3009998184226881 -0.12023995333038001
Ni 4.614290866333871 0.6015182895258506 6.167799464754708 0.5513766724821859 -0.17322293328531457 -0.3567670459909791
Ni 3.003342249678463 2.069898547581162 4.814315691676735 0.31182184873885654 -0.8392384108610191 -0.9138950191346453
Ni 3.7019560830888807 4.63212835966708 4.302568790857907 0.26927626206716204 -1.1999526144252044 2.201869864507105
Ni 3.8090906998094436 2.897697136755704 2.354014543467154 0.2411339953049912 0.34344101830603435 -0.015066150304503086
Ni 5.12806915791498 5.0218666233255576 2.356542130893366 2.139041359216658 -0.7107400741765888 0.05324626091865023
Ni 5.657765950206359 2.859180213395318 0.5444108966792552 -0.27524842049019693 0.5930108030832045 -0.9126050966786283
Ni 5.8796471877184695 8.149340281527744 12.660010115253048 0.14063728603980938 0.16207025910260475 -0.6901234263675017
Ni 2.4507180645730355 6.489110106703281 0.02371783501349544 -0.786124304644859 0.4269658756035679 1.2016202319356146
Ni 0.8444243757372677 0.2723872957358012 0.42966793111175117 0.34575963913688196 -0.1160058606443744 -0.3886194146148856
Ni 8.678680689474865 0.10920347352929143 6.519280325959901 -1.3638609551778127 0.9919691377302527 0.13603244027794636
Ni 8.778513996168154 2.784842094406766 1.1707371917896319 1.0112192442091166 -1.7621708576075845 0.5454896175737896
Ni 6.950143515333939 1.0201182022333075 4.858946891056204 0.01947636355705678 -0.1756603390822136 -0.5668302880330948
Ni 1.2433792868219111 7.468408594428677 2.35155366387974 0.1684568793552389 0.6346436481326425 -0.4753447811275878
Ni 8.048958691227899 3.979195688742681 3.557624078887704 -0.742901746510798 1.020961668307861 -0.897502436709235
Ni 7.926444719343509 4.037798068223146 12.565038256537866 -0.09502591595859763 0.41860002013737585 -0.265735081683123
Ni 8.25583523404066 8.091496361036345 8.67789390249946 0.2091517859714398 -1.1836929580332325 -0.6913521565682804
Ni 7.686150290711309 0.5741552823347851 0.3781201340356087 -1.0972457848825812 0.4903618233617103 -0.6326153048487041
Ni 2.165071443618748 6.44546673162162 8.706087559354454 -0.7708648073826273 0.652859914030353 2.3887024181560537
Ni 0.4168682503167586 4.996800924445951 1.5799934380354053 -0.6440934806916326 2.0282160143319587 -0.11060577267472564
Ni 6.589199279079631 2.1582910030177027 6.957749122762848 0.8529385340559311 0.2949579831039823 -0.7086639083738504
Ni 3.6542005809580673 4.223593106363924 0.03506090902707736 -0.06977048382591855 0.3091859537779062 0.6683772929396617
Ni 6.176643279328416 6.191063138180774 4.6914983361967195 0.25618831853495233 -1.8728391080891293 0.06381066669805785
Ni 5.67298995834833 2.935939918312814 9.843921338108796 -0.2864046942173325 0.43045743369659417 -0.61925071061634
P 0.5616461918512659 6.097562507143176 12.479174302333547 -0.261794094757504 -0.6819082375465612 -0.8065185520304949
P 4.46216957969559 6.369474623753297 12.403728650459758 -0.26701729082965625 0.07976384759320457 0.5852913229517598
P 2.7707329295981213 8.933349286658876 1.2204180831854596 -0.2410949145369396 -0.3515407645950333 0.8498159292665493
P 6.505101711894426 8.164408942647857 5.816452019227108 -0.03191330376882891 0.4886607815102036 0.9591698318120451
P 4.969633471741223 1.1015565939267273 12.599036409174241 0.17913595633563986 1.2100881601973095 -0.538730444473085
P 4.2556585592871965 6.264003133972614 8.294541315245308 1.4351185650722187 -0.17081483806445422 0.01708678027895767
P 4.8679268627255405 1.3277418577502833 3.5790628817099583 0.22212762940581746 -0.8677552873537894 0.46496189523136694
P 0.2398466636868483 6.0088045293022665 3.6280666428516923 0.5847853298496186 -0.9824640264532951 0.048257035234174954
Ni 0.7517808947379152 9.236202874798837 4.387201848365512 1.0818309929894079 0.787745899408682 0.1821919695531443
Ni 2.1280166098758375 6.751153118395439 4.686429454254132 -0.14123429619385997 0.26586312262055506 0.14180585242661384
Ni 6.333223939299999 5.9046215059969835 9.338619511085005 -0.7080846388316128 0.2998605626119223 1.2920276752855944
Ni 8.69158363034909 2.654295767686367 10.020103137014667 1.3818797603527364 -0.3093427910707447 0.11767244971351992
Ni 2.9618463187224693 5.504758271737484 6.775335166862483 -0.13445121183375555 -0.6796153277473264 -1.5502857318653818
Ni 1.0976729183803065 0.4488651677892126 8.565334933298061 -2.541701825305642 -0.48078420697560426 2.133074857220578
Ni 1.726161278512526 1.029850236249633 11.43040097120973 0.10105129621707112 0.43210473949203004 -0.5501204314775816
Ni 4.2389176331670955 7.312504150905177 1.4261733860228194 1.3997111321072024 0.41587645055862565 -0.067707944869935
Ni 5.510177141382254 8.125023903577093 8.32043492237081 0.5168269595317744 0.6715811445889401 -1.2472403437675745
Ni 5.586553047775163 3.1597492865079713 4.299840166109293 0.5163955284213106 0.8930258889951201 0.4448077888809952
Ni 1.019487676085771 7.504997387106017 6.86616108770611 -0.1707400189624608 -0.7593732618032599 -0.12931877570319664
Ni 5.475854587612003 4.33020685365826 7.553782748611141 -0.5878955933438262 0.7167631404422172 0.012545954985810652
Ni 0.3581516450849286 7.46035796347245 10.607228981868488 1.8924178015520057 -0.41720622511364275 -0.07451982558544586
Ni 5.239873323351357 0.5230314912477106 10.315237805780367 -0.6256663843346967 0.21505401038848768 1.5754630024619576
Ni 8.325229662510122 7.54085513497462 4.672720536478272 -0.2492784787889965 -0.026337609453264316 0.8674087026476481
Ni 6.976643889650694 6.419350155829452 7.195333202766651 0.9122852514453643 -0.28149620117212165 -1.845943569249866
Ni 2.9423639745695995 5.581664185616727 2.3033257240412794 -2.6293993259236266 -0.8171600909047411 -1.2074211548881078
Ni 2.809048815636105 5.438434231464723 11.310685987136795 -0.4807988622636236 -0.6238918089327772 -1.2683917810342091
Ni 1.5297204003445 4.030149511911724 3.7756673311539397 -1.558256408775684 -0.09701415003322002 -0.6902373262375467
Ni 1.7397221597146169 1.4931498837873785 2.4632436035647514 -0.7345947693069994 0.3620828017769377 0.18275812646925943
Ni 1.2197939536799993 4.1893527951346545 7.889709717704421 -0.39272469503251073 -0.5384555935451436 0.2821520895885657
Ni 3.7305216589903205 2.6667326674950234 7.163595806201299 -0.2850080709801221 0.3234671462872687 -1.0915657037786684
Ni 4.431392593247717 7.253563663200671 5.990614306848842 -0.4075126519749627 0.37607217407749427 0.3591106065224912
Ni 8.619402093546316 7.312750878528126 0.5775363645751985 0.6254496403382003 0.04060440378492362 -0.7248831984461903
P 8.999134181385193 5.979699807854383 8.301482585704276 0.2449993917976684 0.9057050271246854 -0.9258493632830442
P 8.797402366413925 1.9794500286200454 7.800502147306139 -1.1443975028677194 0.04930373133113444 0.21287062958392372
P 1.8082850247141378 3.4721521474620722 10.29048097333245 1.3107478774029169 -1.3662371687194728 -0.427913841339134
P 4.157360446692255 6.5637771958557645 3.751753941654107 1.0874205712620433 2.0342941022052385 -0.19164771564940544
P 7.360542932899377 4.26778476505214 10.295081986597447 -0.8781764826871133 0.7619394798685394 1.3053182217469135
P 6.815475923504279 7.9420616640701756 10.329708837769337 -0.07475636707628416 0.6185074046924122 0.1386318255740064
P 2.3891366774969636 9.025561451221073 5.728929507112966 0.891974050691838 0.0019504388581514794 0.06948252027185452
P 7.246472528555912 4.186008265134679 1.418162048725061 -1.402775372854823 1.176022071751536 0.41002410554290675
Ni 2.897377304651881 1.7546446118729826 0.11954775757293497 0.5942516174688411 0.12553539740136446 0.43731893670311783
Ni 1.506400070945756 1.8304905107795564 6.784122325463515 0.6535204304324874 -0.39260513873551095 -1.1626304809359784
Ni 7.192229003747547 0.9557953971244674 9.158639934397739 0.15259394418105335 0.5394251565472645 -0.799304550780559
Ni 3.095453895579459 1.50871200015339 9.329003530432066 0.1443764413672675 0.4871384313284061 -0.10337891590898324
Ni 6.76318794355929 1.7560244589494758 2.339650426781462 1.0155518101461996 1.0928849368107243 1.3514852072212789
Ni 4.347139679040656 7.4732791804668945 10.284676477551072 -0.014929624726638805 -1.8518239392900429 0.7074657743006912
Ni 7.595948499373141 6.399219009408827 11.709045096702317 -0.17889658663132416 -0.46361412295422094 -0.7418187978592644
Ni 7.871872224371213 4.005220883933756 7.945039757859772 0.17522839375111757 0.7293679736904213 0.20290400528951508
Ni 3.4633156433364505 8.604991372754068 12.484175562631327 -0.2232386030818091 -0.24003973379954788 -0.4971708758637437
Ni 0.45562184943397416 5.018805373188967 10.291698162939 -1.3224109155631418 0.7750253665182201 0.5160386593025241
Ni 8.744301099119214 2.9342859294330443 5.512851851576225 -0.044510166597233024 -0.7517003186390344 1.1331180732991581
Ni 3.5892106974612537 2.7904802774941584 11.261575310691784 0.8136168536381728 0.016799073835209774 0.7981969195386769
Ni 1.247144167586912 3.5819276635542012 12.688069442624437 0.35150425493014303 1.068217258860715 -1.2381319537084032
Ni 2.948130090498521 8.686109932343664 7.8172604357404465 2.168195612183111 -0.8897649588556612 -0.4019089326349401
Ni 6.194736638344683 8.215490698658428 3.4926241435247705 -2.1032472323361837 0.9382531362640357 -0.37728959142436314
Ni 3.336077294375591 8.80369848982918 3.5518588767647934 0.26866639639730505 -0.17477073738840868 0.13211125084666925
Ni 3.4306744926262964 4.122407366774467 8.90733322952791 0.1566485738664012 0.7109416486644337 1.6203308095089255
Ni 5.35916156001719 4.470841598739245 11.655426615205425 0.8098206198205343 0.33256936569885304 -0.00869110001609471
Ni 8.302512445078586 9.021504152532577 2.6974310666259567 0.681538255801652 -0.06887368304326204 -1.1461561374300389
Ni 4.9939589877519825 0.6075759095722564 1.4571221680007451 -0.8633838977589711 -1.0634902856986912 -0.5245927195201224
Ni 6.2403903866503745 5.8412490591395025 0.33066527408238844 -0.03975696818296379 0.32852810574994384 -0.07254598968852669
Ni 8.56318474775436 0.37212373899193474 11.042233540084027 -0.570243684590018 -0.9436167145687943 -0.2217224235475988
Ni 9.183110745564235 5.397769863978668 5.803184469754523 0.11844275222064118 -0.2667110724431471 0.111876154746717
Ni 7.522981089400974 6.411052797250275 2.483198385425268 -0.2643029772222868 -1.756103311257266 0.5742615475001593
P 8.786281347260998 1.8997295922271598 3.4646845247408127 0.24150706237369374 -0.38654941945973426 0.23541020544733648
P 1.8831897034294611 3.543164012570865 1.38302803521711 2.0197038630958892 -1.252689539807604 0.6587459404974848
P 5.092138305565504 1.5312830086231777 8.2901148389284 -0.15346374838051635 -1.5870190827306734 0.13079895979314893
P 9.041580470592546 1.8931044986479713 12.455956319208026 -0.40457130995845164 -0.41650431395061166 0.42087081844942353
P 6.698344269024223 8.03383520174713 1.3486552221162573 -0.989144009576632 -0.1178115463945455 -0.34314714121469936
P 2.073334458182231 3.752800249536613 5.832996477054862 -0.3049881136464747 0.21671468592036225 0.1950048050470964
P 6.816334901154547 4.282707217210505 5.8038798761288355 0.761418831478379 0.016138043212443172 0.002887091739807931
P 2.5284281277418916 8.547576941087803 10.099467189063294 -1.522971617431461 0.5060316686884834 0.20209770733813584
