# total energy = -340863.1342607236 ev
CRYSTAL
PRIMVEC
9.31038260666957 0.00000000000000 0.00000000000000
0.00000000000000 9.31038260666957 0.00000000000000
0.00000000000000 0.00000000000000 13.62668605276055
PRIMCOORD
 96 1
Ni 5.055742489917212 3.4257924580127472 9.658622392029388 0.7554006503087571 -0.85377208570082 -1.0522702486131554
Ni 0.8795434491682439 7.664362681723372 3.326205814387072 0.5844906814273353 1.0731563480335453 -1.4829950770385234
Ni 3.3505180160362142 0.36482454255013425 4.758288805695636 0.5181675327200689 -0.16931254248731487 -0.7204259340057851
Ni 1.3224467208839437 5.0235844289911835 10.40269325951947 1.2257814025628502 -0.9210218599874138 0.11191240730129114
Ni 9.153809732320743 7.670852018279667 8.082410025455799 -1.4113096355780792 -0.7997701775630678 1.2409485972215917
Ni 8.731583888952066 5.582598411075904 6.278863257883624 0.1228557936866723 -0.12188905889802881 -0.9346420218740098
Ni 7.079251697676965 5.733985229448003 4.5291966044935625 -1.4706008171392286 -0.21871911794490073 -0.2332545925569144
Ni 4.712180067730938 4.939688572881036 4.763521240623379 0.2856755293607918 1.0409828486247943 0.7007564806013157
Ni 8.004256813230764 7.950107628996316 4.051731331107451 -0.6068831901899225 0.9689122559107893 0.07094676352220684
Ni 0.10441407691755317 3.6476402506431516 12.064590937706962 -1.3098891289470471 -2.0745097551921754 0.18072644075121133
Ni 3.6560940778929583 6.453593998131761 6.483113496676077 -1.2989462567822985 -0.15499458320274598 -0.47374221252715837
Ni 3.2884456963506805 6.369632969344577 11.656376288862774 -0.20508815742502742 -0.7182667215709372 -0.29001452305577796
Ni 5.836380815453928 5.166117073668825 11.118108631955085 -0.48775832430059224 -0.3967929515646134 -0.8292062234359977
Ni 8.784960311444516 2.995084856246962 4.716891121242395 0.37205199717450765 0.8002643435906669 1.1630202601752295
Ni 3.4679871112023135 6.122563350701258 0.6406446221487461 -0.9170081108423304 0.7735243564926614 -2.5313744752377048
Ni -0.14490586115999443 7.891098425131472 11.573403091651807 0.09258259662442764 1.2634202959615466 -0.45651736400843956
Ni 9.378627536947501 4.821102231822892 1.0419006911619815 -2.0437339074619 1.8612372621841426 -1.2866864655783388
Ni 6.62461641305655 2.158658719167465 1.7076284146253813 0.1636777127990407 0.8755683556403049 0.23232308188158052
Ni 9.315130728749608 2.935423925611758 2.1000498617472707 -2.0807436519170293 -1.8358270496411542 2.9774169078567496
Ni 1.2303670386145673 3.976026749462481 6.5706925400769975 0.2165925585202012 -0.8579151613349161 -0.0158819613375791
Ni 5.701324407870554 0.28518911744165265 0.28444894203817284 0.5303159951571448 1.5310536231086471 -0.5228631384235254
Ni 5.002077445569317 4.638302183119462 13.356659742786203 0.6877878362557897 0.1595680615060413 0.1750029080038728
Ni 0.48348071147653116 7.686540012680465 5.779418033648014 1.1249226819725593 -0.1663740286842812 -0.9758961434277903
Ni 6.836902442927536 4.06116088643631 6.285036041437173 -0.294453532663738 -1.4314930525044893 -0.16957582345103053
P 4.548149750013863 0.5853065020775134 6.721212561844518 -0.9941280930547848 0.6187791702965602 0.8541618649400708
P 2.022969205578599 4.517155486892047 12.616907961707117 0.885232103982314 0.02005100511360418 -0.06968409475969935
P 5.785378540482073 5.7371507594754645 6.689898952605227 -1.5834370218063698 2.1275822095371226 -0.2618180060169039
P 2.0877229154050405 2.796773710408973 8.574033597408853 -1.4004451820597494 1.7462372170964637 -0.23617947951319324
P 7.572227137159393 4.033313532577089 3.149344858638103 -0.3783897664670774 -0.3224433330084447 -0.23099047911308607
P 6.133214428205419 7.217836740202715 3.160396282586915 -0.050739435336396486 -2.093994346279348 -2.105342424302316
P 3.058330284119143 0.862022240466248 0.654751713612301 -0.8833251167675884 -0.9137795766027037 -0.05618606027326452
P 2.1321799915259985 8.303995265301573 11.124226484252274 0.25313050554523503 2.145548049986924 1.6413400647707408
Ni 5.912567674908964 2.8991786067973315 12.096491101039579 0.0040080927181285805 -0.7374445800509687 0.23296945721632778
Ni 7.67558169255599 1.1871668641221604 3.672868593923771 1.2045692872616094 -0.26466138900297 0.5010223883993501
Ni 5.519902295767311 7.609766599132105 5.128334610714593 -1.8310404268857883 -1.1162768333721031 -1.1689690215594963
Ni 2.5710248675388447 1.7444398046917777 6.802713787592715 1.4619086886818693 0.740516534108073 -1.406450507713565
Ni 3.3590742574927925 1.2600950897253982 9.194211205853577 0.5754527395947832 -0.7812939731357512 -0.5621161703868771
Ni 7.349466927050485 5.754207380094018 12.991873372804045 -0.774151448553699 0.011397443203664242 0.18975486950206677
Ni 6.938348369925222 1.072667780952414 10.645439136560576 1.1728141063371995 -0.26601995991339344 -0.4602477775851493
Ni 3.8035426044955982 8.627521744490508 12.771638138411161 1.2744783535479212 -1.0729100363506943 -0.28819366779695527
Ni 0.9944047062146613 1.0839054125499001 3.8659864084402376 0.07834459864817474 -0.4935793018577435 -0.196317610321249
Ni 8.278363782461573 0.7692470726290738 8.129136041775853 -0.545390372991764 0.6252097564132523 -1.2936176454805335
Ni 3.334150363717755 1.4902384331042369 12.182434310246895 0.6670794000638447 0.12367494715385796 0.1517493367925709
Ni 9.179348111336404 5.723715877623622 3.8021860817750075 0.8005960158984728 -1.6982221226697658 -0.2882859704004454
Ni 1.6079123566838773 2.2308979764706085 10.67513180821816 0.12378447614852875 0.871633282251957 -0.05577545509840717
Ni 5.699527504060848 7.385144312536457 0.7393719174757902 -0.3659754519631246 0.6683459254810941 0.22338155641757657
Ni 5.789661316401579 9.239400078033825 3.2793168663744297 -0.7784256504490208 0.9283731581461625 -1.023157133297283
Ni 2.232452810337038 5.316721819916493 4.53399331352341 0.02201198549471693 -0.09794874603234743 1.1520017975775385
Ni 0.07149815086142042 5.119332401939441 8.332023240580009 0.4865982425542201 -0.8815857654789785 1.651143166904092
Ni 3.552339176051712 8.25590714003147 8.26410772487908 -2.0929489357339697 2.1789435947282345 0.8716777623366472
Ni 1.9606734367146557 7.1662013592253695 9.513565702673967 -0.5787951737044549 -2.6091670580371518 1.3011581768319525
Ni 2.0551458872694948 4.952648625228759 2.2158486743047625 0.11222093968064545 -1.8364045194111793 0.3890297626794268
Ni 5.977312074352973 2.9216631803747375 4.374547428116693 0.8002784846580541 -0.7436507088616806 -1.5811554248610447
Ni 0.857892154818655 0.19135442808352235 9.800748172994675 -0.3109762129091096 -0.4648711352897736 0.9493006523274488
Ni 3.468219870763156 3.059484771540923 4.183120379050187 -0.010965240762252084 -0.4424662852320122 -0.12302162984057523
Ni 6.719777831911484 7.970795298764016 11.361984789423643 0.8160840842317428 0.5215639599961276 -1.3673918511492065
P 4.330631285215134 4.396818793936366 1.924850809262719 0.07873694899058697 0.4131407967950175 -0.2365090949384701
P 8.290485900390262 2.836696630284714 7.0926353724254225 1.5425279422968337 -0.4453094111077621 0.8426674911472262
P 4.438128960794731 1.5947940278347823 2.9341521273713136 0.6238414153108159 -0.09908157408521001 -0.29167596991860084
P 4.857924794348209 1.2465577936667864 10.64781049096644 0.3869353420442433 0.7970059845543693 0.50776459221919
P 7.5930544626635985 3.6405736703759666 13.59381845932884 -0.567100768085662 -0.2997610609195805 0.13557838345966328
P 2.688931550679328 7.490016460269747 4.375774536521455 1.0379342916064576 0.33309721317786506 0.8371547888591132
P 1.3403692070688324 6.664427608343088 1.1693291024174182 -0.26659023059456666 -0.028079274734719384 1.653215218941772
P 3.557217816446975 5.352594723433572 9.665830490109563 0.3649598662144166 0.08758257230667496 -0.1408558298085187
Ni 6.428977346977035 5.472782450270313 1.6625103013516302 0.6019443581274084 -1.7543745014916174 1.5457701033832154
Ni 1.496969839603808 3.0374750274676363 0.555530036978027 2.532249935864123 -0.8014645345463552 -1.5617875618573942
Ni 7.4422448880023895 7.609356942305022 6.466938569273995 0.7758334642418122 -0.1659865634378754 -0.024611885011409228
Ni 1.2114204103619708 9.137097595852236 1.3833543117270206 -2.2153385884175005 0.7409739333604658 0.2178274593685668
Ni 4.542349381757663 2.89360168771954 6.2326418642914785 1.4128296717670312 -1.4443853350861253 0.03551567640810657
Ni 1.1038761828702048 0.41207752651593454 7.574256800529942 0.2832568926169702 -1.8110390440631972 -1.2000104642463334
Ni 8.797035877461036 2.7056157560005336 9.493384517710659 0.2820626151985529 0.40287643875453194 -0.34843410064525154
Ni 3.145093738018872 8.576258778810509 2.264564319350898 1.7790061839973683 0.22142468980152188 0.8763317161688906
Ni 6.064987945731204 1.6566056568121725 8.222778006217604 -0.7983776680909154 -0.12142934565279087 -0.7680275950441482
Ni 5.242136346240055 7.020652150639205 9.583961504255235 -0.5065859985300566 -0.1815923882959324 0.4286923713763714
Ni 3.5184493839930133 3.538792569610666 11.265835538992492 -0.4676389278428979 2.1025460925041015 0.9919591104279238
Ni 7.83947235453656 9.061748670816234 1.6316733836929447 -1.5926238305119602 1.8107829621883331 1.9775141171017168
Ni 8.53365446879386 1.4330354434315322 0.21793463889351652 -1.681689415122065 1.8955450343270772 0.18174022672770634
Ni 6.369791245845951 0.349644895030216 5.635847281329013 1.1158220052228718 1.7280458908994176 0.4188249916639884
Ni 3.7907222078843823 4.236382283838703 7.773001810189341 -1.1649321324859616 0.8162789738513683 0.6175599531774784
Ni 4.303863935718222 2.5235326067444976 0.8013380988015799 0.38484760627727915 0.31839924484605814 0.3100290185044919
Ni 1.1147227784054752 0.9793963697315232 12.956252780650921 1.9703427961642581 -0.7193959500793738 -1.593222640438224
Ni 8.694333048834798 7.385917074278454 0.7412907872953775 0.6408754879749673 -2.117703259860514 -1.3006411279862182
Ni 1.7791675311695099 7.7721396687759805 13.124078941286218 -0.9855377802826123 -0.015292150272380114 0.27699137132323265
Ni 3.8386892981828478 6.373105741992351 2.758327417187217 2.092163463718197 0.7415218354441357 2.9806341292424667
Ni 5.353069552937691 7.930928241182877 7.361080698098293 3.625739339028065 -0.01724001802737031 0.4441202758956673
Ni 7.178351408301359 5.902950049854943 8.39458342430507 -0.5251331654046246 0.21344064315478078 0.2104828460780375
Ni 8.358433071391467 5.708884438406725 10.709471291748404 -1.5483216661604753 -0.3155129244371985 -2.012342280524496
Ni 0.2693465706924544 5.851314668877596 12.50420112715586 2.2191391931105136 1.18480753125365 1.5872427687057051
P 5.3106980024818835 6.809995437694119 12.301177065729927 -1.1661336089932304 0.0982135696579599 1.873396523254496
P 7.134266747477749 3.982469534106607 9.816051648600961 0.26103510510429234 0.8369776398513004 -0.22852170585761933
P 1.4605103819934058 3.236205140515142 3.7105058149120373 -1.085060041449667 0.857852940638413 0.05410552359515198
P 8.974352110911013 1.4415916848881103 11.414230000450399 -0.021589296135001528 0.2822755025403074 -0.6993457162967182
P 7.460139443039977 8.45135999846231 9.138900085891402 -2.142474039047291 -1.2767103282022334 1.2830984911167644
P 7.725746033108811 8.969352435544112 12.954400014546612 -0.36447649882009486 -0.4102087107498871 1.1305737096107498
P 1.7829103049078607 7.380423948642566 7.542943191290649 1.245643945814732 -0.14362285103069458 -3.43183959411969
P 9.018436771734622 0.4056207762981578 5.51406561701962 -0.8714731025250089 0.1672338055814152 0.20753764740678451
