# total energy = -340889.1965172364 ev
CRYSTAL
PRIMVEC
9.11483998529252 0.00000000000000 0.00000000000000
0.00000000000000 9.11483998529252 0.00000000000000
0.00000000000000 0.00000000000000 13.34048966061878
PRIMCOORD
 96 1
Ni 6.31129738354125 2.177453197844592 11.616751229550712 -0.30164259421300954 -0.06374870311187085 0.4962640477787582
Ni 4.9390309051260015 0.4033535373551035 6.114693023219812 0.49517981357564406 -1.39304014784493 0.09539152682813248
Ni 2.973588881339307 1.1706006475454718 4.941316906951183 -0.07505384371204493 3.681959852083691 0.2710647214261525
Ni 3.360349764298237 4.185397719680813 4.554149502136579 -0.6488271387218761 -0.05860032614171198 0.09197555916804806
Ni 4.797395409266773 4.562232542083034 2.5608807838837904 0.73251268996699 1.317064306539248 -0.6306926339046944
Ni 7.453705831544113 6.392528835957585 2.55100850088198 -0.2714976951985131 -1.0343704855145992 0.19483974022414188
Ni 4.822789352986691 4.409950913321843 11.772514727120594 0.15214451534846055 0.66159138036608 -0.1360452957937528
Ni 5.671809337078306 8.087232772769141 12.464512454264108 -0.7696268212104681 -0.5471502931056641 0.59357361756521
Ni 1.890180791448085 6.6133540601149665 0.46393440869037483 0.10738906550964085 0.4374341221247435 -0.6610766455131906
Ni 2.563229678103683 1.5668318490704445 0.1952763281606362 1.0555805439333112 1.1973809970432863 0.9574147967941512
Ni 0.6091338069166133 -0.03922297868469239 4.76941193955589 1.0659924832952543 0.08946282004852334 0.6838231951810868
Ni 8.687836912588446 2.334219327793938 1.303302688903663 1.195331570713425 -0.8882215256279412 0.5791785251858026
Ni 7.222781364873569 0.8907869145682069 4.785259911539314 -1.2207332986159816 -0.6108275195496512 0.2850664350218832
Ni 0.7451108102197316 7.558134551285356 2.643644440872746 0.4484672400104534 0.2652177757270722 0.24720771230289684
Ni 7.23400173268377 3.923883850596757 3.7357635831735614 1.3213457075234212 0.06962727337983493 -0.2947067863251247
Ni 7.613871796743828 3.784271849176086 12.846958372055413 0.07756632572125352 0.9486473350141663 -0.32470564668006013
Ni 7.961630280141548 8.802620090357626 7.113882727687871 -0.22000852618028563 1.1558566525472547 -0.3521884254813612
Ni 6.733378270776807 0.7911462201809017 0.31316402037023316 -1.6054178969528352 -0.5654655464750842 -0.07732104247966683
Ni 1.7895165005497438 6.677641025318335 9.373734988928886 -0.22438531509174256 -0.7267536759960258 -1.0093032581333263
Ni 8.983011885103105 4.635461165143273 1.4533794379140108 0.07513303368941254 1.3412792132225544 -0.05562813088726549
Ni 6.4126179429061505 2.0061671280726228 7.223234372412292 1.8879811059368905 0.09470067140869498 -0.3838585028911325
Ni 3.119198447357145 4.388047953250428 0.34738204051342975 -0.07785171817215625 -0.10523602372238006 0.2766213895783236
Ni 5.582283380431846 5.320605444231151 4.825055302164284 0.6472317692102983 0.3868183568504048 0.17354997760743013
Ni 5.36610672457926 2.8030319987524037 9.532046084226591 -0.6173298394445432 1.2219280902550311 -0.10020231795321452
P 0.2716805614118366 5.501626162923749 12.658390565997381 0.19140860305540583 0.23918124245399455 0.4816681522424543
P 3.9546828943259764 6.309483530418398 12.738365993487442 0.04962691899850808 -0.0671430735054005 -0.08161169943522074
P 2.35918487404263 8.632263734246616 1.4833690838678066 0.8413562285349703 -1.1670856884938545 -0.6525976615079019
P 6.28924858603282 7.577986672398774 5.556461039240702 0.4921556820373395 0.09713139233737465 3.196291320432592
P 4.64085715031276 1.1777831413183704 12.611124652661413 -0.505567070347239 -0.5857183831868493 -0.28051249710261367
P 4.354888166009558 6.148889167747457 8.31100482463817 -0.6710368420496959 -0.47595413257681257 -0.8759308811860463
P 4.976265025763427 0.8734167643359568 3.7892722502976746 -0.34349038348673105 1.2581320509794138 -0.1422244280212712
P 0.1280507386014523 5.798332428527046 3.850665253860313 -0.22305194099229975 -2.009677846318455 -1.0973848815636067
Ni 1.9222832572706094 1.1771906767305043 2.675342207807559 -1.7646720267628833 -0.03301065059806573 0.7177046784198802
Ni 1.8630003391247552 6.566339716357845 4.793331102194012 0.3162986535632875 -0.06347102397045198 1.0304642084816575
Ni 6.3720477908970485 5.647135465703641 9.208392706199184 -0.7908085974944058 1.1707261134599192 1.1373107712242672
Ni 8.56738430445538 2.507957289475691 10.482596268998813 0.2910671326900084 0.2986349177349373 -0.07723362497218311
Ni 2.8306408485469596 5.23510824678218 6.876021867919389 -0.144361528968932 -0.5894385123509139 0.8887200625309145
Ni 0.3400054006525073 -0.12089285489604959 9.50062996584201 0.9949433898672284 2.087273482615747 -0.8569332570376209
Ni 1.267874218033257 1.1847286492561229 11.479624844947136 0.4025442522260938 -0.20932122166976855 -1.49588067475194
Ni 4.125777552461866 7.013267656924522 1.6910005773954027 0.024213364021409913 0.29332816081004315 -0.1515289932516487
Ni 5.985013462743718 7.840521403541922 8.115233560675671 -0.9999002196518716 0.3752833596276118 -0.09559078732313216
Ni 5.365705671627475 2.7390913974619413 4.901936241537721 -0.09364471934035484 -0.13351635872431197 -0.2664681031944056
Ni 0.7285172443395767 7.423626860160146 7.007785992260789 0.7051232422104438 -0.3189934267866313 -0.21141795629779717
Ni 5.3496179793569585 4.296361779568209 7.521114629383544 0.32886157782996267 1.2187710326832881 -0.6810222353971819
Ni 8.266394064139822 7.209218483231344 9.186021243361365 -0.8419735504039951 -0.2320618578003939 -0.45495259062448096
Ni 4.598901542652033 0.06267455004039164 10.555154951332772 -0.18552720457396435 1.1759585655034521 -0.8577295276866712
Ni 8.147345141338008 7.422186715469642 4.688141293328355 0.29187728729612955 -0.03603709612921535 0.3727245977615
Ni 7.413400009889597 5.98082063642959 7.0741411146178015 0.07317565285272559 -0.11463906220383482 -1.358195529361919
Ni 1.9976538676869788 5.348214294025707 2.4500206331702654 1.1193261617213885 -0.1990517214229604 1.1542435424238637
Ni 2.2791292359622126 5.371557398787627 11.38693512740147 -0.22292158606202256 -0.1731190607175986 0.794329980384103
Ni 0.8133034842831091 3.5234689375974693 3.6777193717583376 -0.540227597843902 -0.24885758920149398 1.1904158785793626
Ni 3.8184160391167943 2.5500678494132445 2.7073052165809393 0.010773179356104027 -0.4146181526714924 0.4020783683332688
Ni 1.0376515940283395 3.414027055958897 8.093114578900678 -0.029141911671278845 0.23120490911673733 0.30640170616454976
Ni 4.061290060782604 2.5797275381657987 6.979036876005587 -2.1580315271659156 -0.46419776337183283 -0.35155233455925905
Ni 4.306679778236892 6.929292637724376 5.963305560244308 -1.20779422195681 1.2381764337930936 0.7169222917279008
Ni 0.8235348919735643 7.482536069873654 11.647554830699839 0.41394272387102254 -0.05475447003306055 -0.6539765441332995
P 0.24221137281138136 5.526883384046468 8.056255078179582 0.1396453544401853 0.2234409489006023 -0.1903768193567818
P 8.780744474805651 1.6190325366813465 8.138805447916907 -1.0886744982738024 -0.3586359808789178 0.35671845214123077
P 1.5133095096866107 3.6065689321755365 10.418241853980827 -0.12085239010339834 -1.5846402980858516 -0.1392864284388698
P 3.8161920182023437 6.25043759810769 3.783109707099887 -0.028827208644337448 -0.6705146509976389 -0.26600941839043224
P 6.739366720534161 4.301010347873004 10.786132284074233 0.9010060789871193 -1.111159823860512 0.21285468874432373
P 6.461901881776789 7.745253097813068 10.401033036413272 -0.9512071253215425 0.5166665226945102 -1.013171739949797
P 2.492981607662401 8.55054008048036 6.017160591281328 -0.2728704071763236 -1.1873385252056197 0.8253071454919076
P 6.748271919031778 4.148509962956294 1.5734309930952906 0.12858061198559148 0.12325045802192967 -0.3171486602684086
Ni 5.00968002851907 2.9399368927485177 0.5089981767274447 0.3588213574168465 0.09800299630905057 -0.1044927177984523
Ni 1.7565116655857003 1.23831479251865 7.162148538951362 -1.2459085123300286 -0.949076709242101 -1.5288597007811218
Ni 6.7491834030131095 0.941098095885807 9.641838887197975 0.9807544999613559 -1.3497749093983915 -1.6473772721037563
Ni 2.7496554968055826 1.427465948324733 9.092530331396109 0.38204099006641945 0.5901741049653578 2.194672318317401
Ni 6.575837379443328 2.0147077329777066 2.2391743356405103 -1.1780054207301518 0.3147210246635225 2.114317888328049
Ni 4.123243626993762 6.803690145096782 10.384637262557067 0.3127803559973839 -0.17494814350653742 0.3911720058334102
Ni 8.494656997584874 7.352421731538465 0.616949782056538 -0.42896850785589347 -1.0773482746277059 -1.398870895594094
Ni 7.707535890665537 3.777927920666013 8.476293329812972 -0.05606907507942602 -0.5094831175721934 -0.6690681483590993
Ni 3.1040678132670285 8.5551521894259 12.439525943883845 0.002329933684757278 -0.740722479471292 -0.1550192657930943
Ni -0.19777835168939342 5.190226775541376 10.20025863687724 0.5282316018242903 -1.382061280235923 0.8284546899819539
Ni 8.98472547498801 2.327173556618239 5.883409431860624 -0.6477516462695102 0.37628223320577137 0.053754825123952577
Ni 3.4031530520616027 2.568753271030557 11.241310066155949 -0.09121734084578483 -0.10186093660256006 0.4441249038813577
Ni 1.0533473481868822 3.28860686012757 12.678321074733192 -0.4990112715065922 0.8213507319473209 0.08755891815759115
Ni 3.3410809929328718 8.388478228599473 8.154921396190842 0.7616841693246237 -1.087785925021262 -0.9451722319813722
Ni 5.910982733779908 8.044557092763162 3.543940867818193 -1.3017024793711969 0.19754531208076298 -0.19304356755566754
Ni 3.0832404042935853 8.359164903759826 3.890286551044848 1.1742521243353068 -1.2514142726396058 -2.1762328806652906
Ni 3.199673368068976 3.9115697020089577 9.080524264394 0.6116893533293142 1.086600132243277 0.26463233553724747
Ni 7.618073737897769 6.513127281527664 11.772755358891665 -0.42770558198306985 -1.2474100365762195 0.08661686595929598
Ni 0.8024021358663745 0.042801464795403074 0.057501878446330736 -1.1372920021711899 -0.45249513022292387 1.0885086621198994
Ni 4.4897786804069275 0.5228782547951734 1.4819553722127603 0.11507974928567921 -1.0760897196302563 0.41250136343880567
Ni 6.045472195225491 5.873894450579495 0.24684262292053086 -0.2262840747763522 -0.10398081115904029 0.853580281404988
Ni 7.966324422645409 8.897150094061601 11.466990765481887 0.4043450528802585 0.5782171897137978 0.4490637359438718
Ni 0.5608525004254404 4.7794391748345255 5.990386660813673 -0.8505489507778319 0.36731602515141903 -0.5743741618186238
Ni 8.110785518846768 9.096455181419726 2.094684071951748 0.4296778752180923 0.6421993489927134 1.5260417717163526
P 8.850199554183174 1.5379833810612766 3.6484106043385967 0.016924800779796658 0.8505641202864836 -0.9870737573111645
P 1.7605221951035623 3.174051553353724 1.8115188123751245 0.937096139841457 0.6557133243187481 -2.0731457849651136
P 4.771463689997868 1.0543226360469078 8.361725262263388 0.7271838215549089 -0.8798857520687362 0.04960866416606295
P 8.314666255791183 1.5541166475308585 12.651426828380004 2.2412720204538106 1.430548429203033 -1.598415497493073
P 6.2929309813174035 8.025534422072758 1.4465761214773463 0.21218928724618297 -1.0758354375276054 -1.8256449669018302
P 2.0827317825045375 3.142432174041306 6.027486793305842 0.03598361718346061 -0.005184372414416878 -0.2842742781378911
P 7.012647847817216 3.92737483424526 5.935317533113518 0.310137261947582 -0.2637000535309652 1.2015667529898597
P 2.3987341639926396 8.556747286393232 10.122670385934288 -0.2128338628087173 0.8000643117647189 1.9792275002483977
