# total energy = -340870.31927765097 ev
CRYSTAL
PRIMVEC
9.29361214962041 0.00000000000000 0.00000000000000
0.00000000000000 9.29361214962041 0.00000000000000
0.00000000000000 0.00000000000000 13.60214079368565
PRIMCOORD
 96 1
Ni 1.4130472789299158 8.537818553837477 0.42799686755305083 0.7619273956836813 -0.789921309793446 0.6148716077120379
Ni 5.618722817903708 5.711881987386385 13.347726659368403 0.6782043063324127 -0.5707087971518946 0.31171694772987607
Ni 8.70347719270706 0.15195056075835522 1.4270007084053036 -0.4101662875477259 0.8256982102827393 -0.08754272020767503
Ni 2.6988742993753587 3.0872915309554627 2.6442836208496963 -0.2894751056125402 0.9059317984235108 1.7253842849068544
Ni 0.30538066459149515 0.8438841583068272 10.13892672403502 0.09946235446339645 0.502248033276335 -0.45191097558467985
Ni 2.3980121890738153 1.075438225678003 1.614832976810872 -0.19804282054247183 0.2669054478421403 -4.240597062783032
Ni 8.763067834638715 7.861987068923251 10.600311823060881 1.2264077232929393 -1.96149717284817 1.3328735056573626
Ni 6.625313963820372 1.9024117270823284 5.172758609732057 -1.6461259161951585 -1.0334520874653879 -1.3095474293369125
Ni 4.08735856105241 7.755240638288972 8.413373367979453 -0.3805353520551704 -0.060236319083238184 0.9219901374379542
Ni 7.330057876533941 0.21412482690351708 11.268082028684477 -0.8482591263023906 1.4725831376765801 -0.7414272188478005
Ni 3.807230499744866 2.684543549241451 8.833067322322625 -0.5675573960071064 -0.1889467717784746 -0.8267950428913438
Ni 3.0381840836742913 7.501432086954985 4.308165495184383 0.47959172932939986 0.9761434835519058 -0.020317885621745652
Ni 5.01662685280947 1.0782170157493638 1.1623985557707204 -0.6317907520648797 0.03926922991326785 -0.3500796066684745
Ni 5.011106447115864 8.988317115439953 3.0452202775305697 -0.2336829383435846 -0.36161331833968696 0.17461030055114446
Ni 2.670184918270708 0.4580960896403955 7.649939364364045 0.9598414039577728 -0.6029946537687938 0.7082887844226189
Ni 0.8834284785531149 0.43514086731176327 5.406891654510599 0.6749477470683279 -0.9542117164758211 -0.87821787744801
Ni 2.584971787286404 7.022485778167105 6.893361258526706 -1.7253331199539448 0.7739642722435573 -0.9297903502086632
Ni 4.65726145321289 5.744130821993815 6.098506481157908 0.07301521601546135 0.14577357882511022 0.5192152572582929
Ni 1.662246198573618 5.624772959497207 -0.15288642751483023 1.1276015143563032 1.1540332261852706 0.17219037825574215
Ni 2.5582247711480224 8.575048764626343 11.761444588839229 -0.7089986660054499 2.476420744709645 0.5025115713503668
Ni 4.907241036288013 3.0434721490609276 13.137246787200633 0.9406352633429672 0.22040396184649136 -0.3099886521848597
Ni 2.844756131315658 0.9245889579746854 3.6648244787968367 0.6409549350626509 -0.6381922847158493 4.25807362230124
Ni 6.571866399605003 5.91759609517759 2.1701263104690813 -1.031242738518895 -0.3266738261500245 -1.4268097880962074
Ni 6.00561589707009 0.8774155114087322 9.284726656098725 -0.23762289682793916 -0.7588958079462091 -0.025008606229195637
P 3.6937926682698516 1.1880861001093195 13.069100445805114 -1.4215709082947712 0.1547492999611593 -0.7742656055340601
P 6.384163312410109 3.9566717851879454 1.261376455901152 0.5583993836569222 -1.008594919212392 -0.22650313276569375
P 3.5763307026781175 5.68755131044049 9.27135500675199 -1.1172078298268049 0.5449090624799713 1.038788669186953
P 4.626053503180685 3.719052706443626 7.031218985625491 0.34114425185205766 -0.2590404432717668 0.8447577980173515
P 0.2194835237434723 2.112465951807732 0.48515722987380094 -0.38334093982476564 -2.30586096007879 -0.15402116354588313
P 0.4876971741095965 5.976787111781257 1.8764286458732637 0.4329897132001446 1.6720228385665785 0.8968663457871328
P 4.486184638384768 5.777494890074702 3.9187092377515094 -0.27674300275785246 -0.4792091491790005 -0.19289547201357746
P 3.6064977681350974 4.897854487886425 13.100385532819233 0.15289579169218828 0.42950843951976353 -1.1792220667460724
Ni 3.885789404337549 4.241232899552476 10.871620246315846 0.477966535021151 0.4305458796453424 0.8568923764973564
Ni 5.2354170730769445 8.293275733945451 5.44342763246224 1.7792764069396196 -0.9770770511097688 0.9352521446541829
Ni 7.224454560209953 3.676720302513699 3.521091330015395 0.19188862801561793 1.0691305147036039 0.1145498449241382
Ni 5.619168911293092 5.5024225538468245 8.635781591507063 0.3312753294777779 0.6105822363080646 -0.7305758779555934
Ni 7.525967223371012 6.254154970241998 6.9855836318916795 -1.2118367674573 1.4772741153943463 0.5755129034087572
Ni 4.429075390931551 3.498478112618623 4.8797681890306555 -0.09058073570305045 0.729435336593247 -0.03875655194290744
Ni 1.694625143752952 8.35556152343796 9.391408031447053 0.28054463589212975 0.41115102005849835 -0.39951729247431195
Ni 4.26100041286948 7.292511682927595 10.978845297982483 -1.10646061861263 -1.3930383480727169 0.1066331611802228
Ni 9.615543008136063 0.7338394246748022 7.700131376198152 -1.4371695340639765 -0.6447444840120702 0.08367809504594621
Ni 8.737696273117596 6.1531426983837365 13.577058624043719 -0.6687560164353192 0.43196384303879154 0.7145301373466404
Ni 0.47414801676833623 7.192354423398983 4.514958591361156 0.7743118853909633 0.11419966067357107 0.4075617600453432
Ni 5.116774818725802 1.1288393218319792 6.963778958763163 -0.17763366075850054 0.11001596160952666 0.011000721985877829
Ni 0.5346866071524295 3.7473238749957307 12.465300961580171 -0.7450982399414845 -0.47814265558769903 -0.8750276526454865
Ni 8.230553144675842 7.407074041488344 2.6539136618929873 0.8290159618020626 0.4912737936530185 0.1897985782558086
Ni 8.999515918235906 5.514494956196984 11.2647493393213 -0.157424018579845 0.9468017971649951 -1.0988501532552237
Ni 7.543457801679711 4.294708344604683 12.97067551560527 -0.6287450232600205 -1.5287591706475154 0.5814027865306309
Ni 0.05732207117440117 0.6799820121579372 12.377268148630481 0.7872396491962248 0.07606428725443029 1.3044607588426245
Ni 2.7041344839251584 5.636659489601789 2.607598015740367 -1.561763393487678 1.2134987285407552 -0.12169262661650654
Ni 8.714044029868052 2.2449928629033984 5.802251214462965 1.8406342412218109 0.421703598763364 -0.32910017620333
Ni 6.324758542724029 3.159725945056418 8.857850598186497 -0.3969654725867357 -0.4942220776480649 0.6522863009150702
Ni 6.932746658003026 1.72805426711979 2.218373169253236 0.3420019718666626 0.07318310905189332 1.5317257094750072
Ni 2.6092281153340684 4.732539712671159 7.635289843328976 0.05824165725071259 0.20190436038040713 -0.44139593498596885
Ni 7.235746299128694 1.2762824806351172 13.51938525432518 -0.560338509661164 0.9413461733670626 -1.3303797927012313
Ni 1.1227891802384813 8.941495896779367 2.904573537386917 -2.4311117363602004 -0.9797875080623965 1.3310711623413012
P 6.533688240363698 8.421722749250726 1.5534458796257242 0.3017539229798932 0.1488787001129952 -0.37063120556758106
P 2.917329949600796 8.257355922487896 2.1566598662771024 1.7544912295751398 -1.0825802124506065 -0.40432011317959404
P 6.026349946064089 7.888864195633536 7.747997196878875 2.1460401591319944 -0.576798197879084 -1.4953134893945603
P 7.850016896308158 5.039470551790758 5.1817762017261755 0.3162302622191973 -0.3093726158674156 -0.30607800427654386
P 6.9460086427248715 2.3472690660315756 11.032492674861848 -0.8342512420590729 -0.5493069344373508 0.6518936934623418
P 6.592423869965705 6.7167445214191925 11.749883335164403 0.29924529762542657 -0.650466731207828 -0.5757016223807957
P 8.037171660378602 4.939443402834049 8.815888080025266 -0.3687231899115908 -0.11420300310768074 0.47923023222492306
P 8.223963973570173 0.5972372645948828 3.996975393557411 0.31934721058162424 0.8921704829733603 -0.7858965049047691
Ni 5.2370341616134555 9.003716630985924 12.472904995146683 0.09470838471817883 0.4658630668893977 0.10023419963241446
Ni 3.905398926245814 7.258878100090623 13.259720797894321 -1.7015578719112179 -0.6587163728111299 1.597087779820585
Ni 6.049054240861194 7.735993567259579 9.969213282128196 1.5488682826925646 0.6634713709976122 -0.8163201115019489
Ni 2.0578380988329545 2.5869885011509037 6.775430894876121 0.6384249695519456 -0.2192672771388869 -1.5587675440841477
Ni 4.53481811143972 1.8268267784188603 10.920084575627323 0.6102279382924394 0.375955703104288 1.5255985135313468
Ni 0.41082598950674276 5.62490307006911 6.404282124271252 0.5956600677805934 -0.856107675812532 -0.49562898529792065
Ni 1.5734922013110924 4.14737670914889 9.91305012440496 0.6920247571552727 0.6608907547546296 -0.17773830465716486
Ni 0.599416616674261 6.229117978762915 8.734696295074 -0.6648412547619453 0.0025690462787568663 -0.14973050659032922
Ni 8.758290917927413 3.234056256062248 10.30058818026349 -0.47227154151890277 -0.36396099263625703 -0.06666356276582068
Ni 6.660146422641309 4.558256601606851 10.727314611018029 -0.25909957864447636 1.1479749358063327 0.6286982291824851
Ni 0.23237004652925425 2.1792591432554564 3.121242025971141 -0.03263758352936315 0.05523758031706615 -0.25471636197511616
Ni 0.30245224736244575 4.051633915452708 1.105240981533654 -0.5269275383008861 0.2378391266038033 1.8933791370240103
Ni 7.150811976512754 3.6828354993931485 6.816168514939006 -0.4289561665607193 1.244726061986153 -0.8313309830884845
Ni 7.862823494028342 8.638607779001047 8.921331546218058 -0.05107702118147332 1.724326018845669 -4.095023772894187
Ni 2.377352488978046 3.0765016470997772 0.2254611751611955 0.8373751324000354 -0.12675487163076235 0.5767676017514648
Ni 2.3055314532874913 5.252628843017279 4.995345410052249 1.1502084531225416 -0.9672677783288308 0.6062866942565043
Ni 2.0083496134483525 6.495073281345291 10.761959338870936 -0.540008025633928 -1.2768324556023947 0.5953582202694585
Ni 2.1171499323962464 2.4907066779425517 11.588453289881674 1.0730087667120873 -1.9454298349726624 -1.1276030570182
Ni 9.443797053223868 3.493022762210968 7.8676691834705075 -1.1367235312622295 0.9388907698480347 -0.11772104356326824
Ni 6.5114672134050915 6.5601936225828315 4.31812174201866 -0.2685118730973117 -0.2460157488773247 0.9873223829868609
Ni 4.224876141941791 4.422541981499556 1.4966572617961262 1.6140758297381492 -0.04033418084267247 -0.03104504223126266
Ni 7.766244275227069 8.33908394886765 5.321851384714682 0.13713030132781542 -0.07024150992506613 0.6952746315511381
Ni 0.3200515609348064 4.8804661393127935 3.7856116988619246 -0.7440152912899508 -0.807306595149429 -0.3783977368868774
Ni 7.514247978287448 8.097533672129398 13.141177985194563 -0.2998415364485288 0.4663767733010226 0.8902575822213635
P 4.646750377725569 2.0095299022077597 3.387409222913474 1.6423001146911653 -0.5418810742869248 -0.9262481413833596
P 0.3340523878328163 7.846550378928167 6.705039216754046 0.21294390602402036 0.007996387941915262 0.43421227275333607
P 1.5139387338285517 2.206210618863972 8.864651663652122 0.6219483120531611 -0.5272129307517888 1.407036462124022
P 1.4140231082191894 3.1397818531061166 4.781138799360679 0.2177449269570895 0.1492067728763753 -0.5877595819865942
P 3.896096020354737 0.12220635466006066 9.885247353911709 -1.1342527011242336 -1.2507187892344782 -0.38299846888368233
P 0.5425071818850384 7.691133300789819 12.334081661732133 0.9909939183011772 -0.8440342895877658 0.14893680704444026
P 7.342706482845386 1.4502217280451093 7.539462477761056 0.1876077412520769 0.5535731659128724 -0.5805977741308324
P 3.534072647646421 0.017857675993711287 5.763784953241018 -2.097500302550078 0.7740462904344024 -0.6296009435024125
