# total energy = -340881.999687031 ev
CRYSTAL
PRIMVEC
9.12304342467261 0.00000000000000 0.00000000000000
0.00000000000000 9.12304342467261 0.00000000000000
0.00000000000000 0.00000000000000 13.35249622337439
PRIMCOORD
 96 1
Ni 6.9028775911977815 1.686832426507235 11.170030479621246 -1.1886539015829336 1.3859099645580517 0.10906696743269603
Ni 4.928030693442435 0.5897445255204372 6.043326363884949 -0.04124846512682574 -0.651900121220245 -0.6739509303726974
Ni 2.754456547438825 1.5957753331424136 4.671557319167591 1.3303558814418315 1.3365478691851562 2.082126391197169
Ni 3.8952565972231588 4.6753497681919125 4.8475700146596425 0.9210475710190267 -0.021408804693079257 0.4109833841323825
Ni 3.870606134717223 3.106067752265353 3.1360743533861055 0.018362304557271603 0.050933810735389703 -1.6477649944604782
Ni 5.53898264499592 4.854590196339258 2.5270929791461954 -1.0415204662958193 0.4154753584654651 0.06716929875764562
Ni 5.469820855115276 3.0474157080571143 13.250670009986266 0.5788031441242548 -0.7776471204117833 -0.34903779566752147
Ni 5.547494444225395 7.79141637571504 12.492595303583787 0.4402075711048225 1.5967774476690177 0.6606650118970687
Ni 1.1072819893673058 7.688654418029302 0.484752896096561 1.2346936174508154 0.07942806152034063 -0.935476344849847
Ni 0.8917482710863146 0.9067018510616957 0.18895646906844776 0.27733409937463205 -0.3787841736920186 0.38318384542161105
Ni 7.872501982951443 9.335518792634796 6.848881948197177 0.2065251469818701 -3.2363462794719484 -2.1920598203952184
Ni 8.949449853950044 2.5437963587916874 1.5221177076130186 -0.7722634875023667 1.2090790022065048 0.6825502420059343
Ni 7.200443888590866 0.8341152707944014 3.9738361045149344 0.21713249018407121 0.3304595184447019 1.6561259648306639
Ni 1.4303836844488116 7.862995772022062 2.7767587386460835 -0.15314570291946528 0.08884806928265988 0.8463040594585489
Ni 8.14936809550886 4.264621243958107 3.8250228497761016 -0.136257668914875 -1.4991508608627795 -0.9647360130459127
Ni 7.758910973084155 3.878023168772488 12.380661038346803 0.4725301944969281 -0.4745009450700538 0.2867165690307965
Ni 8.433185966922505 7.140067589233247 9.18635703764884 -0.021018768343512188 -0.1928175675877905 1.1722965432708328
Ni 7.242355148676828 1.1185854397910122 0.1520418996984371 0.17697005903257262 -0.207240684991656 0.17386570907563606
Ni 2.203050698319182 6.3067049694961135 9.053446159369702 -2.4279814182613344 0.0922439823380863 0.8990499837020131
Ni 0.390968012839336 5.588000755671122 1.2421689187858904 -1.0890547644313566 -1.2492450329024292 -0.2794598874683832
Ni 6.650534218542641 2.112732571446952 6.746015075515578 0.14600009301361952 1.5143954457266757 0.8502144502565486
Ni 3.7409494459184214 4.490188485060722 0.36068407120778373 -0.23127484312272428 -0.2868489808436028 -0.38847183329342777
Ni 6.604043190811239 5.753638726528921 4.547539583320277 -1.6444721826418196 1.0178367495256342 1.0914242931047977
Ni 5.987772505119721 2.868202649039125 9.04480663753657 -0.8501087779166198 0.06222943825386702 0.25133536131802525
P 0.5471855293730681 5.640348777084542 12.22896307737393 -1.0008926654721277 -1.1554234216645778 1.6183986254832192
P 3.874501674128783 6.452336106795247 13.009483206760624 -0.7955939346981912 -0.0610439025861981 -1.3516060490698594
P 2.7194149388210236 9.143661195854694 1.2668576980729236 0.07615890385076561 -0.8187929985224738 0.7585042289347453
P 6.5052771260113635 7.685616444670873 5.764352828367178 0.5232578027587828 0.876548203055071 0.8106166333592685
P 4.786103511649375 1.1935951003105554 12.157500456018823 0.6741360498003099 0.9778041590837805 1.7139415902875514
P 4.164860767458325 6.429090592929546 8.510280242794604 2.6019545994491127 -0.003100236191878532 0.05823471527217712
P 5.0223082210280525 1.3653363870145692 3.8359714138225023 -0.507626523979429 -0.7471859757084486 -0.08621628808676765
P 0.14140260681375075 6.053896321641935 3.427759024880753 1.4303406840676012 0.2377974747325904 -0.02115889346580227
Ni 0.8133010479197558 0.307813299423679 4.834684628559204 -1.3247992132896604 -0.71718068759561 -0.7698512785164483
Ni 2.2770477010525823 6.15351995249494 4.542145127924362 -1.5454582285697511 1.8410517883752036 -0.4832514375691742
Ni 6.273150416906613 5.9101171620958395 9.291026623650637 -0.925272921954284 0.08800680432828713 0.49920050469926275
Ni -0.08606131495318149 2.379618074832833 9.903199238373364 -0.0816132420971175 -0.12375053758679977 -0.4354001224138502
Ni 3.111806146386831 5.8226545477196705 6.845050270087445 -1.6100515390701047 -1.2078176189955778 -0.4328835266395835
Ni 0.5698097640024059 -0.23436185466875986 8.606084055493934 1.2361275216838647 1.0652903150219073 0.21766625120035418
Ni 2.1997390336672002 1.6652837986615574 11.562980929730212 -2.1815578924226298 -1.1713997424881761 -0.47947937212125163
Ni 4.566557479004908 7.3578072593402695 1.5179247569957985 0.005730474725874002 0.9075040280066371 0.030510509884031322
Ni 5.862266800939794 7.960247411664281 8.089208924577461 -1.5823203917034232 -0.17364150887997193 -1.1341017773686664
Ni 5.578740866905939 3.122963628120643 4.896466788861369 0.5612620499166979 0.35210435040798715 0.4269645900519873
Ni 0.7199467722977196 7.393423619674531 6.225280897360019 0.8165738793839677 0.20793539706583544 0.8995184386979993
Ni 5.515107641155049 4.741610430360903 7.323803853029342 0.6114852077383082 0.2703792653233537 -2.2510640668435684
Ni 1.0359033000088889 7.362551241761841 11.276530148072595 -0.46635029093846136 0.2795362492322734 -0.3331506921236198
Ni 4.887205075487563 0.3910355233584123 10.209131366306028 -1.2874343994879571 -0.5078553521607835 0.06436216832615367
Ni 8.235352776899848 7.693954906081098 4.427794168565312 0.6406839407894513 0.13478262703124527 0.15181567125413206
Ni 7.583903636943752 6.459579803031262 7.227972671200659 -0.3352829079752742 -0.1371200169151703 -2.1640980450749696
Ni 2.5607013576900957 5.651770827068787 2.093551373290501 0.9132540431165368 0.16672241316263545 0.5999203857188442
Ni 2.648775215955198 5.207953025444518 11.312301600139868 -1.0586712670434928 -0.6615209321394607 0.42011182879621195
Ni 1.4444058017218033 3.8338950092087525 3.7761123910096974 0.3311339188039071 -0.33396496049479907 -0.11105057352162809
Ni 1.9234111806537677 1.5903836146594352 2.553544330363705 -0.9611205277805125 -0.4873256076385478 -0.4467615701732564
Ni 1.4895922342872736 3.530261888141928 8.171687620498044 -1.7036219535290982 2.334714908196005 -1.7667425361386668
Ni 3.9305445280051576 2.662824702357544 6.935646649774788 0.7015090424966242 0.01165481063010896 -0.06934110959798381
Ni 4.398538393893205 7.394682599624871 5.652231540746267 -0.5490858195654801 -0.7789139029393489 -0.040563266134343044
Ni 7.998901745356973 7.480466574067253 0.20011942462813068 0.12336358656102624 -0.5874178823764593 -2.1620185368381217
P 0.5083003826894815 5.666203481282107 7.741563506594504 0.29895733407136255 0.8174871352268566 1.012253856121218
P 8.807860224752366 1.7539962699449478 7.8072840846108855 -0.5059722762054576 0.598422461017079 1.6760939233121586
P 1.999251038097086 3.3971840581737234 10.178273585262328 0.47119604906653684 1.1630176890720678 1.7158848300568512
P 4.281316412864792 6.518177108980791 3.505577670376454 -0.4558532480618794 -0.776158965902031 0.8361075785415213
P 7.14251256478898 4.10876317532324 10.360548337550854 -0.46248180912199055 0.23190604894881997 0.1096817181985595
P 6.23593752402663 7.793998196917549 10.508894492482026 1.587170520706873 -0.12146302710420372 -1.5128347861077753
P 2.4763314549310667 8.80016037636043 6.012094538073393 0.7674241571321945 -0.12124062668075247 -0.8167775107543417
P 7.002729298128747 4.124071641675927 1.0518385194238105 0.9101718046467874 -0.3815653359815816 1.3225705810694577
Ni 3.217961876112616 2.0786580053997015 0.4159770109398254 0.19873907527854803 -1.2834648733172476 -0.6273481429124937
Ni 1.5559714960168038 1.592080500679459 6.867402638031855 1.9764339966636608 -1.5923217258905094 0.2747388278436301
Ni 6.9989797274070815 0.5245248025712567 9.051015780682958 1.6488464004501153 0.9594184574877412 0.28982040476710086
Ni 2.6451533678371897 1.7663488703272714 9.0487459675551 1.5392168756457298 -2.690683112434772 0.4899329633544079
Ni 6.683842448967945 2.785347171437752 2.767945878993702 0.09583427079250591 -0.3571503974723268 -1.1832147328452334
Ni 3.9141048043057878 7.1017416850928194 10.696524471081057 0.3374194947023027 0.5775595015251408 -0.5138254537012893
Ni 7.559152820963514 6.218065482557671 11.433474771142864 0.45842075167873947 0.15022698661077352 0.16682731417161592
Ni 7.78058732353349 4.313301802037927 8.252416516748516 0.5747513426523844 -1.3525329317595027 -1.463245919436054
Ni 3.1822634083902894 8.725150715840888 12.441441488514567 0.2455411232337513 -0.31117521629379313 0.8000254881069835
Ni 0.12317202975023786 4.858859780518671 9.932413959351441 1.2854777899822185 0.5360554687440833 1.6090549794847904
Ni 8.948236489215297 2.473722264599202 5.707404056309145 -1.3221273228844521 1.8884351627551736 0.13261724394881033
Ni 3.916741363767007 3.0117719785934973 11.224909233195712 1.10367791366117 0.13882105876667705 -0.5057046243663678
Ni 0.9555566592650775 3.5660880784679128 12.927245359178368 1.1872719336337425 0.04295464918465506 -0.34820758645674227
Ni 3.199241391633645 8.502667063312295 8.016931615471881 0.42072786511365606 0.19303945379060947 0.6882912582547693
Ni 5.99808154384352 8.054105279266453 3.654738513058098 -1.6370656057651034 -0.15814547012690183 -0.8400879033455079
Ni 3.5947891721184213 8.722879078104404 3.757685668519139 -0.24592113228098936 -0.24147646624607444 -0.9395582282287044
Ni 3.9151265851350496 4.20830469878818 8.730502292934146 -1.4885802844357847 0.11577369002891029 2.403902780045576
Ni 5.169034123501394 4.871933101307349 11.310539028209392 1.016218754306237 0.756762306542974 -0.1828260035927174
Ni 8.494666154497452 9.070704220036793 2.094098755877605 0.995376620749905 0.6300485725627923 0.4018138018179725
Ni 5.23005815892042 1.2211010753125529 1.668648376963626 -0.400857094331658 -1.1352073517280192 -0.15427595986916656
Ni 5.930689624327848 5.700798060787107 0.07058224769418017 1.055472557600537 -0.24348398359440646 0.7135029816337067
Ni 8.213740287752342 8.861239150038166 11.022565610655313 0.4406390022152863 -0.5979061835022929 0.5218537233224044
Ni 0.187196634050907 5.086479706322928 5.662085339618458 0.7684484846316507 -0.2640006154905195 0.6473040172091303
Ni 7.341267182166598 6.553173102383 2.2744375984164056 0.35441654348093155 -0.9139744662223293 0.09109135679088183
P 9.00972579983336 1.9399695039136766 3.701886399894026 0.4775669855898872 0.5198827156389627 -2.3624604537403893
P 2.10014277194355 3.5317033289546362 1.4991513588667404 -0.5647209549995759 1.0698532518022414 0.9620589804343819
P 5.004180734351778 1.104973859458349 8.19020739802841 -0.5547533022639026 0.0655675014881645 -1.0735389281839447
P 8.96780541670428 1.7529379969432128 11.958001398322745 -1.003636289655536 -0.28087913641341306 0.5387538415118528
P 6.615410502536774 8.446304902926775 1.362622281686843 -1.8373123759374292 0.9033033596617283 0.3083693714138818
P 2.2404825442340064 3.5720545486673507 5.981437463978299 -0.47637065128894085 0.5111268238232036 -1.1401484977833782
P 7.229929563949557 4.267969400782563 5.987205964142068 0.11442257531765454 -0.9674775803467919 0.17393461464035853
P 2.2224919032045074 8.775354822121482 10.380884512966098 0.872631384499168 1.6379940311166434 -2.1455783890042275
