# total energy = -340876.87908364576 ev
CRYSTAL
PRIMVEC
9.22408174470201 0.00000000000000 0.00000000000000

0.00000000000000 9.22408174470201 0.00000000000000

0.00000000000000 0.00000000000000 13.50037601784248

PRIMCOORD
 96 1
Ni 1.1040579952005032 5.234002156355269 3.7214464848040225 0.028767816161311743 1.723706382983799 0.6991469700223508
Ni 7.445401919794727 6.735645739410762 11.016900812210064 -0.6672092407734896 -1.1868196765876722 0.2788147976852166
Ni 5.976946582223359 1.4837673129753834 1.2018240357469858 -0.3442956529968458 0.11982137773572267 0.3462985423594875
Ni 7.957938012158658 1.2515326113206242 2.991048654685656 -1.5502600208337687 -0.4409573047866535 1.9048637406248423
Ni 4.573216625019447 2.7693460093660205 2.616629347690416 -1.0490329726227805 -0.8953931036757161 1.8601471144437576
Ni 4.23043130576401 7.852405294931343 12.402782171578574 0.3462391498764618 -0.2507293523029101 -1.1390724911103802
Ni 4.224205050705148 5.14265607658059 2.8508204770458936 -1.0127148549180367 0.11191189308065888 -0.5666960764480756
Ni 4.140810129242675 3.465819512291081 11.104545268051229 0.2622725770558193 1.0551077180619506 0.07509472425230938
Ni 0.17600839004468835 2.97900938342221 9.412354297582487 0.6251048554042719 0.37189078900629496 0.48019928100641174
Ni 8.30672820851531 5.8922049448518585 4.796399735430857 -0.9592101981316772 0.3632896776008453 0.13963841246164985
Ni 1.780247742756027 8.76142008536202 10.51390334259631 0.3074347754147544 1.418591256841157 0.7081895398405932
Ni 0.19943017796389098 8.766705484100878 4.272788288327407 0.8916855729171417 0.5551906469116374 0.8980755356038856
Ni 8.07505617583624 4.251286954190805 2.954354335797274 -0.5393287401787163 -0.9577608672796601 0.9659596010403686
Ni 8.320997862702063 7.259822622714371 2.651365394061767 0.9683221877352743 -0.4478856564753706 -0.42644137055866554
Ni 0.8336245269535099 5.734113410846183 8.234770225789848 0.8436270268470181 -1.7386771453610184 0.15720007549449702
Ni 3.7841148949816623 7.919482816098815 3.3463925609968572 -1.2736725698171742 -1.6031527550677422 1.3138869372525306
Ni 5.16992246169762 2.8558863426434145 5.730504950136513 -1.6346464548006492 0.4508483386481203 -0.6773067342188077
Ni 0.6746631620559065 2.7709325513958345 4.139282621334901 -0.029280237021356025 -1.684816647897137 0.36783975886537296
Ni 1.3396225903015573 4.075909491325414 6.373784097063129 -0.053527025383862656 -0.6679006104135594 -0.7072935103888851
Ni 2.068361930553874 4.928546695208296 10.284775311613885 -1.2590946720029994 -1.2312923050787503 0.9689729339453957
Ni 8.056358962496518 8.6351239605236 6.585226796453917 0.5952988277864328 0.055181273157834 -0.5540416209088588
Ni 1.6991496176041567 3.629399374830124 2.2236059905792978 0.39559456038113805 0.2808881352744776 -2.301655920858507
Ni 2.103514905412129 2.738795851210539 11.98123241980814 -0.5623588825253024 0.2441470710997021 0.09872316230452675
Ni 5.558173279005102 5.9315917731501395 12.752009589401577 0.5938728939731837 -0.46808372868980025 -0.6561514402974312
P 4.620683748771896 5.754498631112973 10.766995537494177 -0.35847734381386653 -0.5346405906744277 -0.4952235223293858
P 2.2671777846852907 3.53514770936131 8.691555046744494 0.7316616548206044 -0.70593571080941 -1.2267723057212099
P 4.944006255917411 5.87466996578979 6.400055203778898 1.4270527573449487 -0.06562175176486763 0.22807819056229753
P 4.280471948274121 0.15853613473728698 10.77358337655053 -1.2847977331960585 0.05031828863857785 0.22887986052798645
P 4.398540192353277 6.262192080653346 0.977641957301688 -0.855545632661475 0.3259732005385741 1.0830514956600703
P 4.643577919225369 0.8852646252076307 6.739508784771727 -0.3892099970110329 -0.47855968852045966 -0.4330429350355833
P 8.641700730682071 4.803947801378511 6.728520136398954 -0.4868337556037938 0.9440872264473095 -0.1865535889559497
P 0.21594497360446296 1.4943012141268206 1.7236063474753656 1.8163972230513168 0.642980450133112 0.33522762925730654
Ni 5.662405400731232 0.2725079641917906 3.482961545478323 0.20549670571735576 0.18272033125278853 -0.06633137623738254
Ni 2.882562386540049 1.2732092030070319 3.7892582428643604 -0.10877823254768362 -0.004625157476837196 -0.08250592911471596
Ni 2.902366489668014 6.918872895691102 9.612982683742151 1.807039693095817 -0.473035673378437 1.4601819357987498
Ni 5.980710007503382 4.847808309237604 4.482732074463284 0.1314597333055994 -0.140188628538165 0.68203782114589
Ni 5.184072202823982 5.184607199554966 8.618234667171338 -0.40866296352932197 0.06312341082304612 0.7584692619317518
Ni 1.9807331556513754 6.530963369401663 1.331872516967549 2.0056995783969973 -0.8893078167135845 0.39792629383810824
Ni 5.004866746107588 7.500977011246048 8.440664640117072 2.045899804764967 -0.16942412836451465 -0.5739041641607406
Ni 8.499474616974531 8.764353343300863 11.874161125775169 0.4462270378260251 -0.04994290757703012 -0.250023327374821
Ni 0.6593926950189499 4.408465304121181 13.132085103214736 1.0737842114255314 0.203201739035592 0.25044730228611706
Ni 0.4293210404920474 1.4616571894552475 13.184750919339294 0.04498093558606447 -0.5943729735380537 -0.6953005996930671
Ni 4.749516496041706 2.6267786046404398 8.324290859822083 -0.4253352819786804 -0.18481886565303007 -0.4995332054483333
Ni 1.231396441256187 0.8356077044907768 8.335105173053208 -0.7218382409722793 0.027516717363030026 -0.6750912146247278
Ni 6.2242165368350735 8.654928063651564 10.361808384018435 0.3972457228313158 -0.501815830834923 0.3628819006394654
Ni 0.9631048047494419 6.712954498751799 6.18904511381368 -1.1095510846124954 0.46089466714052885 -0.11296553115615383
Ni 4.146473715325848 1.4245856056307062 12.686491860427374 -0.28962834336095283 0.06719449556862621 0.01477355876474875
Ni 3.5144027499133395 4.38163245083788 7.061587885721782 0.30297314009897497 -1.742929235769153 0.3954680621056028
Ni 6.218580622996607 0.18336828472834138 12.663001814304563 0.26053168310531255 0.7056163797967784 -1.2261668109267267
Ni 7.925340107894928 2.828601509363247 0.5505955753244781 -0.24778981005861195 0.4109504740119181 0.9642773282419391
Ni 3.5465025537723602 9.227402238048803 8.642724603736195 -0.1245437229120565 -0.11104543131530553 -1.1619092864992377
Ni 2.7729065048515324 8.962025411317763 5.913623262254343 -0.11423257079403552 -1.4197485103740517 -0.2249710123918835
Ni 1.2130128466897998 8.785282784380207 1.9253563819537804 -0.06875644073910739 0.21786474036440542 0.96791003989852
Ni 7.9997876702357775 3.213531657306002 5.272882582575429 -0.3149547379408834 0.5329853144591918 0.14544910560615598
Ni 3.208200138159303 5.587994734716658 4.970190656266434 0.45883084263296464 0.22131207548305756 0.20293048765207633
Ni 2.498674559814555 8.898065629720508 13.38500111815464 -0.9248250357835879 0.3958280165481828 0.5142131760580112
P 6.522477214358473 2.6947231894753667 3.7204069308112317 -1.4723219135953933 0.23207034244082614 0.20008684755569411
P 0.5175161740028633 1.2684311287544536 11.070847853264512 0.6891350943123035 0.27664221551393003 -1.306927475215562
P 7.355356435521233 8.031509286750483 4.366453302208453 -1.2395661150517685 0.36435642830246284 1.2738206653592643
P 8.926531145441466 4.543847149304757 10.913136351419466 -0.028275192795609368 0.9904167056414686 0.13683076780952566
P 1.4675974979854802 7.879238148214646 8.352358817627431 -0.11021265100136501 0.8794844028652595 -1.118371768227919
P 7.220251312784717 2.6860341046376663 8.78345272659698 -1.6848570142167694 1.1436032891011982 0.5100886123666764
P 2.9736409679492355 3.5739995409286074 0.2907698008814713 0.43101793418575446 0.2560458794198171 -0.029095888924691827
P 9.450256048748212 5.183195915074957 1.6678098780663957 -0.38962317328905155 1.3899941619297547 -0.9891550653202256
Ni 6.5739475895117305 1.1046944568287425 5.600319952508734 0.4669323886941765 -0.9948929962452672 -0.403074413697951
Ni 5.931822375189356 6.773316888537267 3.0624522701088392 0.4739394161396289 0.15326680187836186 0.22077600047392945
Ni 5.709623474281326 1.7954213569365125 10.325735768227782 0.33686387930914885 0.18510965742057153 0.7668482300240664
Ni 3.0516398016940283 6.628222085461868 7.318593858429243 0.15496887217113312 1.079760483613624 -0.9224398233808628
Ni 7.88278019553702 5.131024509722479 8.924855129820438 0.34542513861559865 -0.27891121405376484 0.9032606793492509
Ni 6.618084819817883 4.060828117960616 7.132261876292883 -0.2450883519670489 -0.6275288914647321 -0.08878044926951806
Ni 0.35906766804047885 6.97741814140754 10.085050885447952 -0.7536363593194828 -0.392039496040028 0.8833870803537753
Ni 0.07210464562240343 7.239262144897776 0.37287058369985765 -0.5830439216784797 -0.5714068516601837 -1.2767427241020657
Ni 7.848789454956419 -0.1378197699421794 0.9861022849164851 1.4081929443259682 0.9877337594926667 -0.18440928891943725
Ni 5.671352759852856 8.291351664540313 1.1332309979777804 -1.2670082704231214 -1.3230364649622828 0.6562540273135665
Ni 2.7612657139118535 1.9768498173109594 6.428636020519465 -0.25294718588983534 1.3925395540594276 0.14510714888570492
Ni 2.3494289200332465 1.7121186762897265 1.2075097596259228 1.1988318705571999 -1.4497440282948775 -0.09741164258195481
Ni 6.389761128748246 4.235412309811099 10.548856154884524 -0.3030708420191039 -0.19022435293931755 0.1754561934912075
Ni 7.2143386764991915 6.465287908632632 7.01056949056539 -1.2245426450597425 0.1809465271818174 -0.3150529540816445
Ni 3.0214217104750194 5.371081232547482 12.494058148333329 -0.019581264566037246 0.8268770610821888 0.20567385472516836
Ni 8.41950182977404 1.79312456062591 7.137014123117068 -0.7645139254639348 0.3498296954411975 1.4481859397791381
Ni 7.730555177409027 2.2809308903041985 11.594960167997142 1.0558062867908722 0.07219143456258534 -0.07595141582564983
Ni 8.065398562433828 0.8954424768105167 9.53997315571786 1.4743883092061187 -1.0793455075633926 0.7103369252008993
Ni 7.617864572884414 4.740467672022827 12.642440414079807 -0.19861591943712245 -0.8546817419992829 -1.5431496350412328
Ni 5.408844622489675 3.9979106575806216 0.9493775265589263 0.19574631119881128 0.8463053450101296 -1.4477979603121003
Ni 7.2868491817106165 5.594073404470421 1.137586609294513 -0.2541298933440268 0.9931438747646445 0.9844064948916467
Ni 2.794970507963825 1.734440953685942 9.95335498325922 -0.06452954714195339 0.9802775603249375 0.327002670244353
Ni 6.269432984684762 0.4874576593949925 8.144884318127492 -0.5646121973358534 0.27227031169847943 -1.1508319456391536
Ni 5.38589510754679 7.890039547731574 5.671318630751051 0.11579400174388446 0.5630955035810109 -0.13902983234337346
P 7.173632804536588 7.400286936842293 13.244044238070952 0.3874544477725069 -0.4732848132747655 -1.25422988771153
P 7.379477408823342 7.813636480098165 8.718744871984505 0.169464751794463 -0.45921959343095103 0.23579047160489067
P 1.5632604479343026 7.333218639756391 12.182968618164203 0.1062940326732492 -0.8923828560944825 0.19130550181863828
P 3.9654142182141476 0.1579928363328915 1.9392349350820226 -1.0181738211500788 2.505269550620537 -1.268572015365815
P 5.98914081805716 2.6987725612840183 12.728640378747317 -0.32558959194691023 0.2893378087037275 -0.07931159054713437
P 2.6584817729920065 3.60391323745585 4.134733304305226 1.5757476235819121 -0.42852447833993945 0.8358962338616637
P 0.6141494973327115 1.2104301038505683 5.789554753114757 1.6428922397492094 -0.5285974698041412 -0.8305447397417631
P 1.9170316483380432 7.310647312157821 4.47980250615707 0.6899352216160957 0.7695921113177907 -1.6059341744676214
