# total energy = -381174.36806721106 ev
CRYSTAL
PRIMVEC
9.21017356126320 0.00000000000000 0.00000000000000

0.00000000000000 9.21017356126320 0.00000000000000

0.00000000000000 0.00000000000000 13.48001998551693

PRIMCOORD
 96 1
Ni 8.92067955250923 4.0258682507339305 12.692463977410654 -0.5578064872679297 0.26827096073109924 1.493369478294312
Ni 1.7393597298800632 0.7951585072292021 7.934744269620692 0.3570503815593528 1.7729849175039532 0.13388479780732426
Ni 5.325690859539998 0.838321986430285 1.670335924870637 -1.2147092039090888 -1.0423632739120887 -0.22438968596711678
Ni 7.07018986636324 8.692479077919401 6.00484999165048 1.079801878374521 0.7193661252827029 -0.09357735643752915
Ni 4.156357992187242 0.8920937437373762 8.436605715330517 -1.6175200795330078 -0.09921424300833236 -0.09196218943160936
Ni 2.21541518980657 8.983778452756027 4.103763295083265 0.24467620413029476 0.39715599133098695 0.24018988622416698
Ni 1.5195865642561985 2.9686692485840305 1.054283061145939 -0.08167186324919483 0.9924748737220778 0.6978002261864692
Ni 2.8257181420695727 6.847128668716588 11.078230904819007 0.7458466880717348 -0.45829322496193975 0.7244355693858104
Ni 4.755221908673493 6.65197429748182 1.6022220850260602 -1.3735856386647443 -0.09298625982074953 -0.8015612080252195
Ni 9.06657791461834 5.434343279071669 5.4710283220687534 -0.35985262689483827 1.8488298896587259 -0.08264579712668993
Ni 3.9997666183737755 7.032676828747531 8.838283496256434 0.989280020933864 0.5269874450045441 -0.7785572909308786
Ni 2.464845114851642 8.680496641892386 9.663273756207776 -0.15486654226531393 0.28543641676679227 0.6587675377640396
Ni 7.3980167902261105 4.727499285736278 6.856545150341509 0.7936388678543493 -1.6943397568962242 -0.3190016543167474
Ni 1.1988330538204972 7.472490255033527 2.5057069716367746 -0.028129925466996716 0.6780454121570452 -0.02146151230788562
Ni 3.570683044487068 6.709372100187708 3.898138798348488 -0.9510849979213813 -0.767327226543014 -1.8502195709174007
Ni 3.2390891595672797 4.063436549392038 4.308565323303661 1.6741370566961038 0.4067210093116027 1.534756525881531
Ni 5.8510299591133625 4.948626346898936 2.931917892336067 -1.0760578379510564 1.6322440160067435 1.211466528602075
Ni 7.533581337406467 0.17871789519033263 10.199292973242269 -1.967286782946754 -0.3226603341152572 -1.2183113194380502
Ni 0.4736129218524374 3.084477973106471 4.857605883962284 -0.3216858860171299 0.529618711979804 -0.49351245317555004
Ni 8.12247063573956 7.016826119752533 7.174093520318024 0.4068287385340606 0.27676022914903303 0.5548391771094896
Ni 7.455681687970265 0.47279597944229423 1.7223153823692292 2.2237432675414284 -0.20491975016796324 -0.8636885734835835
Ni 4.885637968736938 7.972418485276732 5.155878281332387 1.130700207886285 0.7348770764341086 0.4537523996687927
Ni 0.48400752392783314 0.9407824061610622 9.871526836526035 0.5847495915156767 0.09123868100202352 0.5984687408739822
Ni 0.022943463787009007 7.70109597726762 9.483463534412675 -0.2512571997819222 -0.2643171182896738 0.35443608386495734
P 0.42425744285046085 2.4138575930641255 7.0747323240485 0.8039186525138025 0.0522062496899101 -1.1383739223814588
Ni 8.55323967141946 8.45937879090346 3.717911355683268 0.11013808900968772 -0.023201377817127784 -0.42169202879913825
P 5.281657018921119 0.6114836965356105 6.332792042685019 -0.7439245313483575 0.20477448283935054 -0.06733667757344533
Ni 4.290504172612671 1.123678036156817 4.40424613414936 -0.8789886941757635 -0.6450946682626374 0.3440339146950268
P 8.473571668626466 7.757674074511246 0.9847757220155151 -0.5029260331799661 -1.3796881520180562 0.13711436048821546
P 6.207122906163713 7.888200656659491 11.780459680096644 0.08468468193358963 0.36502877177913906 -0.2517256547779084
P 5.061847012602321 5.442245608134835 5.0243671316120535 0.7230641429595805 -0.04769782029659528 0.2865754154672419
Ni 6.595543563017926 0.4313032257564309 3.869736464589755 -1.5761116917895501 -0.5554814386791788 0.9509965519726331
Ni 7.4787071223035 2.03292480745508 5.94630644333217 0.1776233763458554 0.7224828165348138 -0.22079142709289717
Ni 4.803004290001823 4.1210830267887255 11.138096113068043 -1.2124435478033635 -0.8033200996978552 -0.9567815340855264
Ni 6.10514786258868 4.135671941982263 8.86664530525074 0.04823723773983305 0.1142366845590936 0.29914502460213643
Ni 4.340874612760056 1.8546618948471723 12.37708460334833 0.8527806683218281 -1.7597411651201693 -1.1727176899686513
Ni 5.879913063940972 6.194891795445899 7.436792542660652 -1.0525535841815292 0.3416214485987923 -0.35686731901426927
Ni 3.1132966067179484 4.838601611481004 1.890155141363168 -1.0816006221461565 0.6607655420306748 0.5357060558244645
Ni 0.2630094051974405 5.282992494112446 8.22048069952241 1.1972393292590993 -0.6148060445814251 -0.5689036256223557
Ni 2.7201050798698887 7.575690251715088 0.7449695075043624 0.029833538421664745 -0.16654217883102929 0.21424694110616005
Ni 3.981226538648654 4.769902925604364 7.742168747031246 -0.9237140621075963 -0.875458569535318 1.9600254733986502
Ni 1.6898734664110737 4.529802906551119 6.304160375600326 1.671704021774579 -0.661789612419815 0.9265080799129657
Ni 8.931022577611719 9.310748830461703 11.918481501629042 0.8577302990176194 -0.4725708179268765 1.6321218886065827
Ni 2.628058603579347 8.939431466230216 12.190292148846018 -0.3237653942539779 0.32051860518190606 -0.9713182942491208
Ni 5.958853463009036 2.075503440624099 10.397584329650595 0.15432095417448907 0.7345813995705607 0.1164455192849543
Ni 6.231115408738944 1.548092051960744 7.945541356288233 1.8092786097286648 1.0669242510809045 0.7170032814774813
Ni 3.086495001154063 9.128286078631412 6.520285391408433 1.668423037030462 -2.3866100544033992 -1.4763726866259994
Ni 1.3825575994522485 7.583039970354256 7.489607362916854 0.007220943228471436 -0.04357094261241529 -1.4595358175743185
Ni 6.236429678983054 8.328824578234014 8.176899078433836 -0.35748438377297787 0.6806591956308083 0.9870292772264744
Ni 1.5689438852929218 1.6608245784562643 12.710580389144043 -0.9044999510729906 0.7907222084281865 -1.564623231533976
Ni 5.662368760360565 2.7903879156286564 4.2796499828679835 0.07735832347550547 0.9786953034394822 -0.8420085174069886
Ni 0.1655123480915355 5.470318217673916 10.703594193974041 2.415699515570188 0.33716212727585804 1.296232457395561
Ni 3.8771884161573635 2.550453679702611 2.3068630048044474 -0.20731241876985584 0.9814792939425225 0.8188881293394412
Ni 2.676900154887006 1.9785387315599785 5.772118111583871 -1.3084387696537658 1.7905612358248195 0.36374244886754775
Ni 2.64777758554233 1.9637840332392411 10.670608877765622 0.7902501538877745 -0.21655630596562706 -1.3856698235227878
Ni 5.3167293604975026 3.525240047286995 6.4368983204619346 0.2406981933191532 -0.03972174406965417 -0.34398120708022045
P 7.831696240805731 5.724132185416035 9.457069939545173 -3.2243271435238854 0.469940579392881 -1.1213557905569076
Ni 4.87244899995086 -0.05721452024859647 10.378564399873971 0.26951974553653585 -1.419006747112021 1.3139144480563565
P 2.060417176048963 6.354172539989487 9.107937120785072 -1.0627063563448151 -0.9268834609745132 0.5709808198663586
Ni 3.5066354963457407 6.334121991772106 6.346178109188988 -0.9004980290024492 1.2356495536061816 -0.9068648517607414
P 7.9679423408423515 2.117382100589387 11.708098108126272 0.10441327071076857 0.4061679650216102 -0.7744844064130856
P 7.649399272102641 2.1495348170923174 3.5056279033393185 1.5184696157960493 -0.006394847782750277 -0.6852817820044843
P 4.154672530394049 8.745557309144376 2.998832567560569 0.28194151623965635 -1.524817155280632 -0.8856694486300489
Ni 2.4864153417350163 4.539777524704276 10.62276847234277 0.3155473772195598 -0.30629269139051124 0.13038218397070447
Ni 6.227514230809226 3.2734983686348667 12.965285901703547 -0.01658335827997789 -0.9509790684711364 -0.3724389482002812
Ni 8.775112756654515 0.3931767905700865 7.788741832548394 -2.4643540433530977 -0.474121450243448 -0.48133442305211943
Ni 0.5052378954004495 1.2409235477816514 2.492388139401058 -0.15496990061239763 1.302792370001266 2.3406094193035694
Ni 8.337933440056243 2.8510276994886645 8.64874088387736 -0.8251708770243595 0.19565298015405658 -0.23769411638550678
Ni 7.900284404597573 6.506121986241373 12.250278010370963 -0.8249628747786115 0.9781661704088896 0.7957294318347908
Ni 3.240664099275673 1.0905029903694916 0.6884641706332295 -1.1271055485564911 -1.3613608144637779 0.4524138833630273
Ni 0.8284099974585138 -0.05759213737166153 0.7411841260999785 0.7190809899421164 -0.6292047365052583 -1.144926635898312
Ni 7.126519288916065 4.350471613790149 11.236244329456893 0.7837565757436309 0.4254661511295898 -1.971829922232746
Ni 4.619952087052602 8.382980399785785 13.170761193623846 1.0600349801602391 0.07699554081944805 0.00547387863037767
Ni 0.9708075725316011 5.646075963026367 1.0081032500472022 -0.3068133397806716 -0.41628731284379916 0.07800984101657533
Ni 6.490860728365305 7.587921362432902 2.491997628034766 0.5691206267291682 0.7501753973540758 0.17414647354084847
Ni 6.4647867265263494 0.7876660308971672 12.578894246122779 0.23120542333736957 -0.4904440986628714 0.5894215430700495
Ni 5.310144086278197 5.7357646348411855 12.785246346582486 -0.81534643473477 1.5696080863430772 -1.4813225744321068
Ni 6.279625393792204 3.078813716260495 1.7340832213482589 1.334532124306708 -2.4843538835137924 1.1785803193970155
Ni 0.9680261000641464 7.216871093239682 12.526982943909813 -0.07339908171744133 -0.33508416170090677 0.3313817731486551
Ni 7.574815285210424 4.122943481882851 4.171809900659589 0.6451707729162115 1.2974704435677202 1.6468897909443765
Ni 2.041490269027044 3.4069629962040318 8.617413398940933 -1.1480281576417712 -0.7226543091156716 -1.1125587610905678
Ni 5.6860204865076645 6.271575701949305 10.413867916811059 0.5164675193098266 0.41833056852607303 -0.9185114348607342
Ni 0.39156777321888 3.135511545762654 10.556959017966264 0.17246471496305135 -0.11316324898925673 0.6890096244780327
Ni 6.9072158421526 5.2959327882077245 0.7696831666829105 2.1706281328840036 0.331079668527204 0.7750922152004135
Ni 1.4201627388052884 5.57053411806589 3.7814560283387575 -0.38721199274439766 -0.8806182593593865 -0.3663089240431433
Ni 7.076719879540145 6.73249884643201 4.706117867414435 -0.7216425800217057 -1.2392622106581044 0.1910234518018452
Ni 8.598019536110737 3.828070559637706 2.103678283091619 0.9032475667231282 -0.7035780092105108 -0.7614514844885274
Ni 3.247986187393642 3.606685613610515 13.059794257433 0.43049985689875536 0.6699418092133044 0.22344326289344743
P 4.897012533297556 4.391162161343843 0.8947075910428851 -0.6084533628905198 0.4059211391181267 0.16417882080517532
Ni 8.378172689097005 6.1473304582871675 2.595740103949218 -0.19933788520481155 -0.0828874808238508 0.48364635901474773
P 1.817194908100132 3.1270473961017564 3.1515206697458655 -0.4427596481027149 -0.2332949588765466 -0.6712918954832955
Ni 8.662242077552996 1.9695311816488168 0.33551097180855854 -1.1405259357274553 -0.08276046832768327 -0.14904967847322073
P 1.6256232944476139 4.834512294343422 12.61759539615008 -0.1571766784557293 1.5850264777806768 -0.64643138479619
P 4.122289559547787 2.9665877493203063 9.002672203152507 0.8342185890489245 0.18598511804698936 1.0360964670667703
P 0.7964203010306634 7.546521631501745 4.939200655100283 0.2899996106574425 -1.0216635794708921 0.6833825080992424
Ni 0.27467132717853754 0.858477530628226 5.285623840748048 0.5296757904699845 -1.5644165148398088 0.6306062448384752
