# total energy = -340869.09977254376 ev
CRYSTAL
PRIMVEC
9.25778303872214 0.00000000000000 0.00000000000000
0.00000000000000 9.25778303872214 0.00000000000000
0.00000000000000 0.00000000000000 13.54970126821980
PRIMCOORD
 96 1
Ni 6.1783294416522185 3.999075156032922 1.203492315945015 1.3948723159576621 -1.7586281345616486 0.09260779343540826
Ni 5.053323682069655 7.248482838450659 6.8230331002446 1.2678667617686747 -1.1002079528346986 -1.522607549223823
Ni 1.5618805274783938 0.7120688405392087 12.675054399143109 -0.8426294388204392 0.5260129969064166 -2.2773481973510776
Ni 4.852448311995407 1.1120170903865938 9.586820085483213 0.4545682107018687 0.14486186564411824 1.1280820535371474
Ni 2.97747882974971 7.28289401692637 4.869627053663293 0.3132351841466154 2.401501626803251 2.7367413402454157
Ni 8.98770545225693 5.719578533121978 8.658407971453771 -0.06341214570805853 -1.220428365781053 0.5118433902742541
Ni 3.8649854307054547 6.464543053100988 8.757184810265835 0.529384998702443 -0.5841525813616262 -0.0885945585109571
Ni 8.103263177390897 9.077913287357099 12.04228309673511 0.4556470455883443 0.47771816645577087 -0.7470293955259263
Ni 0.8983076560882742 1.1448729613605777 1.2901821936008013 -0.2515310222685991 1.01076673005273 0.8239794278194196
Ni 5.008627106960499 9.093151597760924 4.3883278894711095 -1.4532337866156906 -0.14422680316328063 -0.0706955667433492
Ni 6.276545258829732 2.6168048716557575 12.64029883114916 -0.7961423510024934 -0.31526635564403127 -0.7429562538978172
Ni 3.4500701234887714 0.9946284051371953 2.066193613804763 -0.5198122674123434 -0.04463332243865861 1.0307331458723283
Ni 4.917086151144564 7.491684791250479 13.062155623870574 1.6779276340867877 -1.6375661995506055 0.35912629025177506
Ni 1.8207929376022054 0.5202568397756212 7.790603783743119 -1.9105412506255937 -0.2588586662782639 0.6508917345603887
Ni 6.132197910217065 1.8640638141681114 2.743109727470116 0.23793554297235153 -0.06724823162469709 0.7645224101043673
Ni 5.457768436997925 4.2698930747711445 3.7147991985133872 0.12280514295439496 -0.15776623241061216 -0.322228131673845
Ni 6.305494345483901 2.7578194184790097 8.522382443753619 -0.8609272086883625 0.7368290579541569 0.07176848809255383
Ni 3.2262354521985537 1.1508720045815248 6.085645149666859 -0.31738365909735017 -0.2706253198958887 -0.5716768174921186
Ni 8.624124550379987 7.45389452207161 2.632219079931802 -0.5702423990384372 -0.3052231124754163 1.182520534991686
Ni 7.685607566480695 5.2983679336364 3.403996916084932 0.5073095069596424 -0.9603669374439396 0.11676536451821826
Ni 1.3805946256997093 4.9020515119612025 13.110947842067612 0.6505528631637312 0.05616729122018714 -0.1479765000137
Ni 6.361763149028526 7.33463576470704 11.179316100510484 0.8521178379268487 0.11374046164896541 0.19491250244360625
Ni 8.378265613931386 1.6215376795089242 8.153884733459014 1.1944761646916655 -1.6176002979516397 0.7884321268424292
Ni 8.896840314581627 8.129129422389859 8.661768546591432 1.1212475471138172 1.667227216950148 -0.7972163007929625
P 0.09382207348513447 2.779964034813123 13.559727192799576 3.1689844050875227 -2.331763795987481 0.2889781113714636
P 7.216247238920817 7.011927973664174 13.299193744916526 -0.9461078564217643 0.2550827441755994 0.43240015924526176
P 4.4010758563156225 2.952140278367407 2.133996688875589 -0.8511001952956117 1.1085311279884134 -0.24021585436609597
P 2.5509450051838156 0.31817888372236036 4.106236768680191 0.12526568867974558 0.7239719994858306 0.16085232753510365
P 7.869855958738859 1.6110393538722667 10.747108180898108 -2.7209935904928555 0.10001822696686646 0.11495042279666655
P 4.418684159103032 7.860514855945749 10.195892389833647 2.461531229192322 0.9458090942344227 0.07885084886063194
P 7.224162643170677 6.986422782192401 8.217853234915463 -1.83173102519491 0.17385593888362316 0.4071539830839633
P 8.913606159138935 5.245293065139965 10.8613992120399 0.7315868357186109 0.3867365957698759 -0.17126580955894377
Ni 0.5202059219705051 0.858098328277256 10.320983550329693 0.5348866452469627 1.6599661645123607 -1.3299023388441806
Ni 3.4766584755421053 2.5073963951354585 8.097613152579564 1.3852448201702272 0.18143246567930044 1.5452191159757518
Ni 4.651591457486657 3.6560372740746248 10.754289442976026 -1.0157065905565088 -1.0726092172808237 -0.5276451331932009
Ni 5.780642868130261 5.5047424266631815 10.04492202344279 -0.22130590483547047 1.3056671204458998 -1.46870000057209
Ni 1.7149301918745339 4.756232175891543 9.950697236408102 0.619942594477042 0.5879123055143746 0.22640645928682945
Ni 6.111793757039645 6.36584583122056 1.7597267510373724 2.521951382151592 0.229580743249753 -1.4202583601309344
Ni 8.604303637515716 8.605396055880025 0.6891484220107812 0.2868692925585769 -1.191827671325225 -0.02415191465585518
Ni 6.661261678721216 0.03113484916106091 7.1981297580822465 -0.9360273322573106 1.0872395655994889 1.741857857081845
Ni 4.322440249650922 5.1569738177204645 1.161834145133876 -2.447467294900088 0.5377027745395191 0.7473119597633517
Ni 5.838902094965787 0.3086202230346629 11.746913538148197 -1.4008375324021618 1.1380355652054335 0.8749595184117125
Ni 9.020311363096708 4.171788350986612 5.51318367297315 0.5239252611394525 0.8154353949041505 -0.022797971731122028
Ni 6.991644171662483 -0.16154923473742352 9.68225023583174 -0.1791225865992012 0.4428308676602825 -0.16998411463304275
Ni 4.948423745747814 3.923115048582503 6.233566928198674 1.222170288172824 -1.4927033054652228 1.6039917060292699
Ni 1.7686160740323622 7.221264957170436 9.193242115944983 -0.8469761458249091 -0.0818037608413688 -0.3261272096179351
Ni 0.454576574288998 1.8037863906934402 5.684180475005291 0.7727525113236433 0.3079168572574955 0.10579806687343717
Ni 2.8528690739565787 4.1118812388218755 5.214629437120796 -1.5143311681476437 -0.8380667591504211 0.011688749191837934
Ni 2.632357946673028 4.9292416198931805 7.492455964553418 -0.4158345415770967 -0.013500348479279976 0.25621428667688134
Ni 2.1197267425472432 3.545434543579785 1.8568918098729452 1.4906240543386908 -0.9925797747310583 -1.6757038869625918
Ni 7.380359953701265 2.7587914856675892 6.296057887528483 -0.9111755633209534 -0.4316558248800695 -1.7738855749413516
Ni 8.382153882685703 0.8509429879910366 2.8931728311516305 0.15724018470381307 0.2692459230498589 -0.9508338011425238
Ni 2.78288949416161 6.859526354060421 0.5057665582178642 0.3498425509570039 -0.030398409786199263 -0.5441076496245985
Ni 5.659875092177706 0.41497826013937233 1.039200000179248 -0.5877364420581427 -1.7001345092011302 -0.4032911576944474
Ni 1.2940436147851484 2.0736785311568244 3.4364343352786895 0.17795222044018386 -0.5784663296101263 0.9226853637327659
Ni 0.6436371620197683 6.379917660998091 6.585439512233747 0.9300526027311143 0.8954018454264643 0.3834926349112815
P 8.798393052835404 9.416738878164885 6.5357520664449416 -0.11519802003109839 -1.6035739017655608 0.5523716894056035
P 1.5882281771802698 8.501579280139744 0.6431150230727599 -0.817248022632857 0.7128231819578628 0.6920797787629241
P 9.260282349717343 6.3389797456847745 4.590476204673259 -0.6708833471909671 0.05988356372950978 -0.7365356950834541
P 8.361731213942788 3.7643625900133637 7.869016277843582 -0.2986359461762018 0.621308107366001 -0.31995861891337796
P 4.7377906726567796 4.464482410359245 8.448292408418371 -0.17820418854998987 -0.9069365855389413 -0.07207959157506941
P 6.471902990385947 8.437052534383568 2.7322836763241662 0.5755162458428669 2.089312110312331 -0.5774191192925345
P 5.664670623641365 1.4872442829609924 6.018058706712346 -2.341346811690226 0.1911412083266321 -0.30343799555053547
P 2.713104327804357 7.498100434695102 7.032755207513194 -0.4781706806121572 -0.01083257183912973 0.9777941317814514
Ni 7.5963069940898675 1.3827516890800804 0.5167638783446592 1.4150423631476339 1.2532127593009257 0.11724410392684971
Ni 0.8493238017883459 4.562605649709274 3.4454717827976533 -0.02435374625401612 0.8241226382655034 0.7385856356339474
Ni 4.224039276818441 2.258565710424627 4.48142785590187 0.4840559357483406 0.27532966735009357 -2.17583513100624
Ni 3.2640534947256667 5.632453539677019 3.5910226431676096 0.16259116460308126 -1.6134145420050665 -3.533899276996617
Ni 6.1069149055312515 5.133653462977307 12.613131867674051 -1.1048328532012197 1.004881732026863 0.023445118396817684
Ni 8.78553399259791 5.5610852924697936 1.0701932052642589 -0.5636390347893067 1.9490370927079466 -0.6523462076187281
Ni 7.50894129829345 7.5485183195427545 6.066404699780911 1.6871926043284813 -0.5097376567851608 -1.3746685873162776
Ni 6.006495736059625 6.852407119126919 4.005101972602115 -0.3445810454477485 -0.6361654840938077 1.660314548990715
Ni 7.118873879973406 5.350665148381972 6.736491347112787 -0.377355411665292 -0.9864145264606108 0.3154715296763019
Ni 2.920376825757731 7.568820637109941 11.62199827552437 -0.7495529332787285 -1.598359704554473 1.431434431352412
Ni 0.33548908590527254 8.619754876922755 4.518432139325402 0.4824551669201239 0.3317934067647769 1.0339552523540516
Ni 3.6047213843003805 9.257125445800147 -0.11111746321564916 0.2991134000332526 0.5240427605539233 0.1954776309184569
Ni 9.105519995512754 6.918563234646809 12.298969010107937 0.7705459905906279 -1.1495548786989427 0.20866199081921485
Ni 7.097145863862969 3.887685514004471 10.736376559136191 -1.0290740130023504 -1.042701631088114 -1.1355261685200186
Ni 1.922711867879069 2.956880263134575 11.775936687064352 0.03849944162677886 -0.2861558114313201 0.4148876042827952
Ni 8.235797595216638 4.05333502072115 12.56867506913808 0.11968768037133579 1.804604858402079 0.8841864363266191
Ni 4.145996168249638 9.079866679517007 7.755564001818794 0.09496780902715259 0.47636910862704407 1.0029228085282793
Ni 2.1097838838754885 7.892574557603373 2.82539752942905 -1.4498286175888837 -0.1617324161472118 -1.5241643521879815
Ni 8.464057486660579 3.511338129717519 1.7713656355086298 0.515092493339171 -1.3575126443622814 0.3174314816161501
Ni 2.809607455173421 -0.033855711510808406 10.020369457815825 -0.5775623297386182 1.915180806280134 -0.20438830314452544
Ni 4.307201939247097 7.632116097760583 2.2018127248422625 0.42089935769451386 1.1601061718522279 0.10511466765316738
Ni -0.15369956074507612 3.2043500537813947 9.913178220263763 1.2216594099746765 0.23025077273358407 -0.5122537383387952
Ni 7.176651702106015 0.44764527234528934 4.80525213554419 1.0996657071779836 0.31014446103643367 0.49435217546802607
Ni 4.060898629226573 3.5751890573330636 13.059405136616032 -0.2716337065557451 -0.9282906257346851 0.2996592452343936
P 3.630948682826528 5.609883065336479 12.413761813074691 0.28970470512484303 -0.5834434711097435 0.04253813047252674
P 1.973657446343378 2.502239810144613 9.716816019279348 0.008876219443707294 -0.5795567344608277 -0.48767527766848273
P 4.696889788474458 5.704108778149443 5.258625198075899 -0.5629366094056435 0.5630086002941593 -0.21648508640805944
P 7.753328247285061 3.000178913048726 3.649259651324539 0.13022071869217572 0.08085990887086075 2.6026164014028277
P 1.6332487746856188 5.634018104961494 1.705677038017533 -0.4556714710683765 -0.27666766943522675 0.9301073672284498
P 3.878668433607553 1.5843121350777072 11.96114788872835 0.41209924290438066 0.3829812424925017 -0.5424960821631044
P 1.8406786549457155 2.9828946326575094 6.959789992781874 -1.106534666383675 -0.10272585570601662 -2.322932570849096
P 0.9685584889177705 8.321496890118349 11.0790756062459 -0.5391024831005231 -1.5155079620645642 -0.3670884825216452
