# total energy = -340869.73178019974 ev
CRYSTAL
PRIMVEC
9.26797043837748 0.00000000000000 0.00000000000000

0.00000000000000 9.26797043837748 0.00000000000000

0.00000000000000 0.00000000000000 13.56461155737239

PRIMCOORD
 96 1
Ni 4.766480139805645 8.888391469503485 12.087343618973073 -0.22778457058127868 2.0518218266763566 -0.28471830765384515
Ni 0.46081554003009634 6.618470874512783 2.6735712931742337 -1.3634081839111098 0.2980319940436158 -1.9408648413097993
Ni 3.9452823485188784 4.350524357231763 2.687325888145778 0.6989700781248543 -1.1201643413519677 -0.07875211849923856
Ni 8.485679616728362 6.748695127558518 10.79600670936541 0.24007084414779944 -0.48930998505842827 0.6340180987335017
Ni 8.838603932149441 6.063504802889512 4.9009889755987315 -0.18974767041321516 0.6484170477676511 1.9894167820765738
Ni 3.7754931295452923 7.7862907613023955 10.295282361703102 -1.3327187252470531 -1.060621191681012 -0.766975242520234
Ni 6.852987599234814 6.406058259356909 6.527372285594717 0.12023635378595424 -0.08827574171895766 1.118733265332396
Ni 3.8298683122809924 5.065779978098931 0.5668883888332944 -0.03632094591822132 0.15946393182800922 -1.9544698336877437
Ni 3.130544332648301 8.416484949214345 5.462320289339418 1.151661126408668 0.3700020566240144 -0.6839700051715962
Ni 8.658944324627445 1.1040562499698368 0.982338140219624 0.6488577348494954 -1.3897193110018131 -0.13448669305738126
Ni 4.272840228769066 0.5719718706349872 7.1358126932242 -0.2512957663293414 -0.5983648683062662 0.7828754586902582
Ni 8.71204979540903 6.729983095183645 8.396317845475998 -0.8369560425847455 0.39822171359134 -0.9900210128649467
Ni 1.8784878622751235 6.284230787555174 5.752019437024913 -0.04692803201010628 1.1846326962386824 0.5854371045010046
Ni 6.263414925884067 0.26848105609607653 1.5355275419041816 1.3956112510062157 1.60925423997979 1.5249377400188964
Ni 1.2839290208125966 5.859007034513302 0.1532542328616442 -0.610930877896735 -0.5036091752899197 -0.44282032613732125
Ni 2.0031791369514678 2.8388998379615757 4.3417197852871725 2.249879045396532 0.7185384871750851 1.3228148358697798
Ni 9.174030319326953 4.118565592358896 3.862970722401514 -0.45230024060329843 -1.3863079713274191 -1.3769933787947124
Ni 8.12240297829454 4.535355492274897 7.38814245718571 0.4132133019041658 -1.4731611216672371 -0.8190616788028281
Ni 4.097017561020818 4.323341399849147 4.885959107890791 -0.16933491108481807 0.6980287972575075 1.050413655020391
Ni 1.1482922730135556 2.4611929695090904 2.316266008112936 -0.2511402145880836 -0.027206385211462823 -2.118064756964991
Ni 9.048708822658787 9.164855028563643 11.888595699475204 -0.6144157511215418 -1.2442110700229476 0.04327372308697064
Ni 5.571069728013772 4.760233527710219 8.005372608007034 -0.2765311438573625 0.036039410122060515 0.2740099200974055
Ni 6.070224081478805 5.6146291892133275 0.052126773100165794 0.41916463439159424 -0.18252929828790498 0.5057617028565483
Ni 6.952840713056945 4.676905205232517 11.51516136540846 -0.06412177018057344 -0.7286776324916161 -0.07495382779907091
P 7.088625748383474 8.485605472964618 10.813328546170085 0.07369655835320212 0.9827841287968752 -1.3486932462984385
P 1.3553109293570595 3.63677014758041 9.734236501452827 1.4284887184605268 -0.6921525409823887 -1.4838114022922315
P 1.0899689348584913 -0.10508673674540395 2.1525686261279597 -0.28692251439401556 0.5092653451344326 0.6210828787290723
P 7.261028535029033 0.5416183405552715 3.478536234186315 -1.0090759726138687 1.7761023800870124 0.2665102692862507
P 7.587511330704935 6.302822336313963 2.989965902995727 -0.15178661778840957 -0.5545712681600836 -0.621784275671471
P 2.055969496737142 4.21055946722417 1.3140035849812257 -0.38031320874203534 -0.8054949958619869 1.0810385789950994
P 5.302252244589708 7.985348231013895 0.737072423348817 -1.8838850814906458 -2.500308607070836 -0.740860290600737
P 3.8220461452060084 1.42310613333041 5.083352050106241 0.022665559918315804 0.3392228664596287 0.4011347734730769
Ni 0.2753643777626531 1.3859786436356403 4.190787179027759 -1.7841604745047983 -0.8564516894155121 0.21302926664897504
Ni 3.2099986434703833 1.948322019751432 10.578999961248552 -0.8211679265125534 -1.0809179942568352 -1.8323622310210055
Ni 1.0652697935612967 8.143432003286408 9.645700506369161 -0.0197697264277595 0.9341203450425849 0.17816896443668023
Ni 4.536291557292165 2.8703645977004033 6.691273562929989 1.4423029986358 0.20450323145583488 -1.3814822678040013
Ni 4.129937392123121 3.89283490364052 10.13781120227852 -0.5074853704158743 2.2377048719278427 -1.3203522332619002
Ni 8.32956992216553 8.12014159350035 3.925096708839595 -3.0830643080849356 0.17800981315099665 -0.18365492725191596
Ni 2.7328279159554243 7.609087165954416 7.902050492838737 -0.08977778018578086 0.1320397741787855 -1.0631298170354788
Ni 5.4394923512797115 2.3708117215052473 11.66553882023684 0.12131313178990073 0.05986479467643239 -0.5831012572789763
Ni 6.65921287269007 2.050037995637628 13.654680689117491 0.10130223588561262 0.4040763725999041 -0.509917891116767
Ni 6.405455841276489 4.560944358737019 3.5792809267674652 0.329196078351246 -0.8999272441006436 -0.12531273986759708
Ni 5.682201961895447 9.29086235504644 5.341770870665219 0.9110855747103084 0.2853261164411731 -1.6770400892755117
Ni 6.8470468301648335 8.853701456041797 12.953620818616145 0.8415215504682411 0.4308333289787742 -0.4702082312319708
Ni 8.448783826295292 4.651084639508695 1.3361790579199868 0.07556035103481826 0.19647264784187454 1.6426929792542095
Ni 2.481239589631354 5.509243097021808 11.194236571622215 0.2903593079897064 0.736289640510919 -0.4746431270748729
Ni 0.6564725913768907 3.1385333231917087 13.482261220125089 -2.8217180994981277 1.3514327567167888 1.6589040417964334
Ni 7.796856247635905 2.6515200110397434 2.4765592645450187 -1.07599715991645 -0.6171542330986274 0.00019591806088998517
Ni 0.7547325410755729 1.824539006180951 11.175544001985322 0.18486823083372678 1.2490210898170813 -0.9845183378791627
Ni 0.06390729036202852 2.0170810926534535 8.719142573208183 1.7998097510062812 -0.40867993281018644 -1.8187634092906486
Ni 3.4942287617827166 7.2017969357681055 12.981902957296263 -0.2966806222220439 -0.8629406395739654 -0.07094496374999396
Ni 7.690710181866009 2.7700573533253423 9.912136121382952 -1.3763333766132102 0.2352150587173949 0.990256011693888
Ni 5.139108160441672 1.825104352379498 2.9925702026972325 0.2279025842163817 -0.3443900124828649 1.6447768583664317
Ni 2.984694281393534 4.5889150936094145 7.222504362184737 -0.6848668059542528 2.3221897791458006 -1.1914597464628447
Ni 4.262682533136148 6.4864486351962585 6.248145017741006 0.9022576920060331 -0.09999405859715037 0.3023401345006664
Ni 8.236278531434738 0.2294842167579129 6.060777239180783 -1.047563072945473 -0.4945961731580321 -0.4913421849971086
P 7.3891118868966625 4.88319169190905 9.37253634479561 0.5081690267464603 1.310531904737369 0.13462836084156812
P 4.5443083517469764 5.007085921125146 11.82503132402049 1.2960128851855874 0.8147460821466097 2.539224053189111
P 5.73426015201415 3.3505196117060554 1.4772950298597038 -0.07970111267606919 1.4229850150334784 0.7698708189004742
P 0.34301778178784337 7.9144389889633 6.628469161053651 0.22652447292193245 -1.5885231780800255 0.0871025473464629
P 5.1419256234639406 2.5717691251626853 8.88671952763106 0.9648843656983187 -1.079695948924276 -0.911863076306281
P 1.1148441675945777 4.294175096786381 5.644994767654652 -0.2219214269322823 0.008910158005436267 0.9045943105590097
P 6.124145133661574 4.231088021810769 5.805762544174696 0.48011597726398597 0.6531010835068817 0.14108003000418284
P 3.798412820512633 5.902371868333029 8.898032939181336 0.27214741296737 0.7383925457865348 0.14222648490380022
Ni 2.662029889550445 7.306200623090019 1.9452330051944509 0.5834871798634854 -0.0699427477377247 0.03864059519033345
Ni 6.684820275093127 1.8043440985311994 6.9874436075962345 0.2861951493096878 0.655628992135058 1.656566137691876
Ni 1.3132621473437864 0.5509901122925035 6.252323018827976 0.963219062180754 0.7020057796273845 1.0623988524067252
Ni 2.037952562147368 5.345246359590716 3.5015421172790075 0.3925694004015691 -1.2297735544413788 0.5715341212666674
Ni 3.3834487107788256 0.1367535382404339 0.8464873023027725 1.1163678504240129 -0.912380639372648 0.38892306189823345
Ni 5.280759821074438 6.265602166914513 2.312427214745094 0.008070435712960294 0.7888257627364221 -1.2594055183751987
Ni 1.54814032291407 5.853752095257951 8.983096225730646 -0.10357251997702809 -1.5014034043423818 0.1707310201013963
Ni 2.8834417040307376 2.6790829552115474 8.13031597148011 -1.9085373328216875 -2.8413788111518485 2.5693308998768205
Ni 6.024922241831267 6.870263096187149 4.494253896843453 -0.3876074284106034 0.23285452890501832 -0.42811258761350146
Ni 5.788134864344578 7.438575045284327 9.078482177787205 0.8190999882399312 -1.0734533104486739 0.4595471519736989
Ni 1.2039927755261786 8.21948496894674 0.24583847744572895 0.7093542495726558 -0.8767117252161288 -0.8561380148298351
Ni 5.944717225401278 6.874248323488385 11.638084311319512 -0.7834796679331604 -0.4690918582393405 -0.389556067496542
Ni 2.2728400056881197 9.364635399971645 11.538261781799926 -0.0022445730598025858 -2.7694599135243596 -0.37479433580633514
Ni 1.0917947250406854 8.248252749279382 4.296142686916735 2.805884989120613 0.5054642262207875 0.49823068458682584
Ni 0.2242913729046978 4.141670642735597 11.382472759015286 -1.4830393000128974 1.728770684880584 0.5883185398138577
Ni 5.014945160082002 0.4801828179170561 9.57600536844987 0.36896461649843554 0.26828304491595734 0.18101440430527535
Ni 3.6533690826885814 2.3795606856270304 1.389640418767543 -1.1460936596232199 0.6238439864139773 -1.8358854136829157
Ni 2.446419824583114 3.557566071960963 12.371902750237018 2.5738426717042446 -0.6398902412435624 0.04100652431934873
Ni 7.6299679034188 0.11583387530008574 8.469160386166216 -0.24306617933069752 -0.9196836007919647 1.4566584960265234
Ni 6.784506565446833 2.3892642507070163 4.691212171243953 0.7514372947856349 -0.15491076523968805 0.6855661460141225
Ni 8.334009280019698 7.84230637481093 0.7999417010184304 -0.8481210580626297 -1.4889320113482487 0.8142668285173461
Ni 1.4947846169298487 1.1335283960580467 13.415074921811486 0.3881167639468541 0.6678934113247078 0.4233509045588
Ni 2.8456005806099327 0.6618498678424188 3.35431113842451 -1.0710171902033556 0.40488729853697364 -0.8211075055882633
Ni 4.625755276219677 8.52996197962442 3.021734652165905 0.47504576182993025 0.05891091540359532 0.05149482544518229
P 3.621959930772561 1.4214008267643 12.567639506129838 0.4735493797900619 0.9931826984223798 1.8118384000360408
P 6.06729540281092 8.34400942015466 7.226723142341766 0.33314812102045854 0.9235847356185836 -0.9276877020433636
P 3.6012830886584744 6.809465209917132 3.9245267286558136 0.6480491229052711 -0.4062260719530552 0.9186667294916758
P 2.6799263405241343 0.36505979595186516 8.566622363607603 -0.698955679947151 0.5828199785931316 1.7798754739761993
P 1.3370622955055862 7.255439948836835 11.7077655472831 -0.2557363185991983 0.8010140772724978 -0.08948313176349751
P 8.241412987074005 5.646946602235211 13.133311010440684 0.3772862489902535 0.9525114459552627 -1.7572579936869994
P 8.92125569278298 2.3020433806327576 6.479258543707192 -0.1341218535187948 -0.18599745934216355 0.1996998965299206
P 8.172264659412328 2.3435175484770148 12.145943142648083 -0.49981808367860375 0.1411175681103376 -0.22738296426748583
