# total energy = -381169.64941392536 ev
CRYSTAL
PRIMVEC
9.31133270073402 0.00000000000000 0.00000000000000

0.00000000000000 9.31133270073402 0.00000000000000

0.00000000000000 0.00000000000000 13.62807661145209

PRIMCOORD
 96 1
Ni 9.199410615286205 4.462502818305016 2.2684203875671516 1.2908344263084415 0.4463139411128765 -0.8647013310188141
Ni 2.8720806132563714 5.3001596315621295 6.119688210920883 0.47591093804370294 0.1792603977286461 0.6097885367621756
Ni 1.4924949176127 7.5631859640174 0.7600934107334442 -0.2896036607706044 1.96740325391996 -0.7913431298416371
Ni 0.5500874722174398 0.5053139282756559 6.064671269726243 -0.4544044314304949 -0.7128545494164304 -0.5746171310673651
Ni 6.386131068889013 8.10483550641888 4.051327396134347 -0.9785320383887406 -0.34648211912520327 -0.4715305495878202
Ni 2.0304199268797896 5.354919579970495 1.124781072587226 0.668303759389249 -1.4676468767172273 0.6465599399542543
Ni 4.1411500994698605 1.7085364620729828 3.8565547981379975 0.04484389578756793 -0.0045547092502179615 0.5926832445404566
Ni 2.111372654555753 2.2871706184989535 6.223315896319011 0.030347759053921928 0.3595086132918583 -0.013753345030350509
Ni 2.6171456315402226 3.665592397538129 8.292943983504523 -0.9329427797947158 -0.12476997999024964 0.8222495896125065
Ni 5.726385892128866 7.160908451504789 0.7108606694965119 0.4291171176186158 0.5086217980131628 0.9861502170556307
Ni 4.651541497540973 4.946543144450321 13.198302171688045 -0.2536005032031181 1.2662762773531029 0.495693777097585
Ni 0.20230639739393697 2.8784681875818503 11.808333408798976 0.8831109438742533 -2.284731891409659 2.063376878503808
Ni 2.762802811093373 1.709933161998379 10.468870246345519 0.19832024257357458 0.5037726974509775 0.8281723828548446
Ni 6.726944473351355 9.501377139156862 -0.009189354375823352 -1.007972712247361 -0.886705346093731 -0.1636895398735826
Ni 2.426095704411695 3.86093484910404 12.570756515007982 -1.4065728922240421 0.8356851462921221 -2.2063556681926
Ni 1.8526014037111822 2.2101845186111153 3.6160197926526836 -0.2729853354876331 0.5138902455009536 -0.7007428537545609
Ni 5.940229962039861 2.557180648076546 13.35263937571089 -0.5010059333391178 0.01623214558814624 0.06084824163562423
Ni 8.915303227794947 5.768826947195239 4.612217876708085 1.571234823313223 -0.9847348247653428 0.005242736456178067
Ni 4.1568490066313135 3.151401975669938 6.712400171461564 2.556354285111494 -0.195701831114121 -0.7758602037146896
Ni 8.912463271279975 9.39513483149839 12.891697672931787 0.4448458412077823 -0.779483916510206 1.0105433011880145
Ni 7.034488485590762 2.901588227013575 8.912489343011915 0.3534508371335526 0.612986474874183 0.593765678971358
Ni 7.657249048326417 4.196450105182714 11.165796506252997 0.6152493027664306 -0.011732972166212052 -1.105843039633289
Ni 3.518315046071518 6.685974608873067 10.404886491629837 -0.575664341384957 -1.989913004986702 0.9994615894525561
Ni 5.84034729470836 0.9939382235761108 7.982877531199851 -1.9837076475069386 -0.3261943154104447 0.7541264115820238
P 8.281471490317319 7.496442330249135 0.3699392535732716 -0.172635950433593 0.11619535094736116 -0.1778763728969259
Ni 6.807189539731785 4.593038393332544 0.8933004071516135 0.1380175890287752 -0.3479653885389491 1.2854338241181604
P 3.3904983802320943 4.4967219664772236 10.12944981727544 -1.2510298927169936 -0.19402007253632392 0.05191931457711058
Ni 7.829797357109862 8.79404174027205 2.246657009329628 0.4870481856074451 -0.624075385698493 -1.0724791194608627
P 7.983983717540766 3.4920477761412334 -0.4070775045895564 0.2538141618758209 -1.5876598016384658 0.23853332445735045
P 6.145367935749217 2.603793180253435 5.323903530293864 -0.9837824881544025 0.5049422922790465 -0.3552806912534398
P 0.7833289106923352 4.85572971530106 6.288662830161881 -0.22112232806975465 1.0019596732840617 0.08421905515108076
Ni 1.107164030861562 2.7659500415919327 1.0690071200330218 0.3231670985483467 0.9669749296787605 -0.4992951212955982
Ni 9.237456721253997 5.296984467065061 13.356360184312146 0.13496183292158692 -0.7044362434457481 1.710521251752093
Ni 4.612182493643308 2.655955266800565 9.289414889612019 -0.14054061256094505 -1.156153357852067 -0.8604235295790664
Ni 8.979467622367649 6.549833611478283 11.552302483208035 -0.22836281168225186 0.6028802396781165 -1.80902921272202
Ni 9.206263756253483 7.112517454756229 6.63525205438238 -0.11398677333181659 -0.327658558660797 0.30303433235421356
Ni 7.250306558062981 3.873384101105738 6.622523462395602 -0.5243705762069872 0.05055508723973228 -0.21052964015557293
Ni 6.861465298832682 1.3071342148469531 3.7278377264133353 -0.48771744376032783 -0.8574716460395941 0.8253089452641206
Ni 5.440071718755484 4.824611240963233 8.87490321688622 0.1034647907545702 1.1024124166851852 -1.1790904262642146
Ni 3.458899431245164 6.36962207577083 7.999271994924152 0.8169451466804576 0.9528207496655655 1.9212509237336137
Ni 3.2267120356473007 1.3774720230899054 1.4951495786042361 -1.01680830826112 -2.3539734993153005 2.129535476608752
Ni 4.391252499444138 6.892053027198858 4.998220110556696 0.4419813751757936 0.5511193050557412 0.6670842851598511
Ni 2.9021282843180614 8.863522905894092 11.498825636464465 0.6945264405312038 -0.9486645614053469 1.4868928694310328
Ni 7.915415062536648 1.3890180758065138 7.231398034472968 1.1440681445527587 0.5322134692901737 -0.9692331295853179
Ni 5.354211918674961 0.361009685383572 2.07368875943528 0.18148388774252616 -0.9046781285220679 0.29565783738448437
Ni 5.76376158213247 2.7457723833363756 2.500766075823226 -0.7818822415390535 2.1386572364043617 -1.6634134996310126
Ni 7.429363488498773 5.924074799569444 2.7833845811940114 -0.2210400527685935 1.810387012301495 -0.005167403133552391
Ni 6.836240898180026 5.926830954088893 12.658207621870172 0.7363580318550093 0.9110698909810244 1.6398660513283756
Ni 7.806127949040814 3.761750531735238 3.7694714889228287 -2.0268931817554767 -1.1984516043996456 0.960927695043416
Ni 5.264050282824219 4.044256369978708 11.01870910597624 0.3048315334639524 -0.2607574259628735 2.136025712318786
Ni 5.673069200310076 7.48932847196245 9.350264449695114 -0.18935840539459645 -0.03132426403457831 0.32550063177752975
Ni 0.657694821269664 7.203945431872664 2.7005667935510025 -1.0683954363097923 -1.0900960612116775 0.9283654448366786
Ni 4.4238142303715415 4.446515259825648 4.359213134288834 1.6230037283553982 -0.552768667733706 2.3361570399591702
Ni 6.754561886542857 6.048409026928214 5.438679674496505 -0.5320062383753741 0.12212457194760255 0.23004019938467477
Ni 9.267225052330607 3.7331181832646165 7.922532645356467 0.03183488512240969 -0.4105892340177574 0.1248252587082173
Ni 7.194466495045642 8.30885612018792 7.807061875724263 0.3242744726799125 -0.1335109594076733 -0.3372158633319289
P 9.217083525008885 2.497997816571091 9.678755236282328 -0.648888845197747 0.04000816496182141 0.6957495143050276
Ni 9.448768108633606 3.0086406206287752 5.310711233931856 -0.6846215227126661 0.07389299063472435 0.2538545281954531
P 4.1225088111322385 1.3876865552109694 12.481683373965767 -0.12264933410282104 0.8434923010413667 -0.6230723983552753
Ni 1.7407164283541112 7.6332630549409455 4.952142980017876 -0.47033010152181576 -1.0921434306590094 1.202919153252696
P 6.553874729929096 6.041704867286311 10.693897226992519 -0.5054166608123037 0.617251420798124 -2.7676064052553886
P 3.5632701610036035 3.935406889126165 2.5747660312705674 -1.4351103375421026 -0.9171446364201947 -0.8592979006150556
P 3.3129722230397696 0.9787514397206362 7.628166031346534 0.7791833545506517 1.095985687223235 1.7169873190924105
Ni 0.7748360440126428 0.2568410115476731 10.914481770743475 -1.3650182087107072 0.4028399290896417 -1.133679602229583
Ni 1.2615552406148574 1.1814964008911475 8.581626959951379 -0.31197457226663694 0.006948149183059001 -0.5821054690246104
Ni 7.4783224765503284 1.5266209524565466 11.657648109514401 -0.3888194464408336 0.7451956847512972 0.4851450550474612
Ni 8.180443529046993 1.7190768908433063 1.2633690882513051 -0.628118445419615 1.0521285808289687 -0.010443049710194918
Ni 1.8506274011499557 6.527523658003288 12.478712127657808 1.6669701066340195 -1.047908372100034 -1.1144629200918161
Ni 1.9795986722610401 9.287849654562292 3.3500946447902336 0.07604346131882388 -0.8661838291016115 -0.08091570180946064
Ni 3.6215311705582964 3.1124806044155644 0.5281779060543915 1.6187565230432701 1.5230024706693965 0.24648908896931745
Ni 4.408357417863824 8.363383285275388 7.070409745405384 1.505164671157027 -1.9160706650842554 2.408355673610607
Ni 5.099146578299109 7.698684479446503 11.93536047361391 0.3655908149301962 -0.3718663635262628 0.006096342705724986
Ni 2.0545735242563077 4.370180953236328 4.326995922676361 -1.450902567379353 0.07003505034121486 -1.6549018626155756
Ni 5.161932895612085 5.381196161233616 2.3888522353343635 -0.5395778800750449 0.8760100711634138 -0.6821733182824897
Ni 7.585849748140163 5.880516384562755 8.200995502882558 0.02829499028995127 0.017761951969111345 0.3438115142715756
Ni 8.721608882141004 8.078000245185601 4.432218639389292 0.12524794806793269 1.0385361868565146 0.2659500259074065
Ni 1.367359915630037 5.683842412401299 8.475477765621267 -1.6128288447049257 1.3749339251625223 -0.5029890252074176
Ni 7.398086721502735 8.307273193605804 11.31464281730247 -0.42516584628035164 0.03556786980228068 -0.3489452359537152
Ni 5.37440819959619 0.6069880960447971 10.793805034922675 -0.23945377938909085 0.11307274615797946 -0.19575222473608223
Ni 9.016107717077208 1.2405116284055548 3.765287907079625 1.352641175202593 -0.47057204232929284 -0.5416036522558221
Ni 0.9322878888691228 4.453489448119793 10.512140010034294 1.3225788085995738 1.1971933065125124 -1.0815062626601375
Ni 1.7963981987132394 1.1118196972795493 12.890498373262515 1.1332180892121322 1.323784398871901 0.17653425704673467
Ni 7.907342136967858 0.7113923466014461 9.59574656631618 -0.03402649345708979 -0.6140282858751361 -0.8938694679423379
Ni 3.4205739852922923 8.592916951014997 9.355470415883707 0.5428359820010265 2.1998916577348115 -1.8046670790985821
Ni 2.873793898498191 6.486982114835453 3.316624127778039 0.3357140819754218 -0.1989465633036638 -1.5384275469752149
Ni 1.886382919240098 8.313381427946203 7.626258139248441 0.028228912938706222 -0.41540413890789757 -1.1728246478601607
Ni 5.3170597006594225 0.45317605119389953 5.554599250371404 1.7178247273920415 0.9571078070766935 -0.5731413178527871
Ni 0.9981655686836433 0.46970832264417245 1.2975426108926156 -1.2055195669900205 -0.30752193581192194 0.9831831640075067
P 1.4071751748366645 7.492624683786385 10.547886216791602 -0.17342682176600455 -0.23230816948324506 -0.8821943455972548
Ni 9.273538135993398 8.100636095309856 8.896531580797621 0.2711822208406233 -0.6453628343223595 1.116935807112341
P 5.102070336809605 5.764664781417559 6.888379706395066 1.2796552697631705 -0.35938108657505846 -0.9973288593802695
Ni 3.0619014444505503 0.10064433435748248 5.757780913051923 -2.209096978383163 0.4964432536690999 -3.0587907802495518
P 4.049591763693722 8.675108085958145 3.653183184267625 0.47851932220082743 0.056727534599031335 0.22666999736086124
P 7.388468114683173 9.028119336435616 5.838826754056246 0.6117495171432883 0.14684727150526322 -0.2986799120402598
P 3.576520187629195 6.891606083222731 0.5312813732886218 0.4607979936616645 -1.4357731679370822 -0.3208569623579313
Ni 3.992476048077853 -0.3388300905682804 0.1215082378430508 0.06596936491227348 -0.18854542257499787 0.2492630521700288
