# total energy = -340863.89627280686 ev
CRYSTAL
PRIMVEC
9.33273277265421 0.00000000000000 0.00000000000000

0.00000000000000 9.33273277265421 0.00000000000000

0.00000000000000 0.00000000000000 13.65939777986516

PRIMCOORD
 96 1
Ni 0.8057377499383765 4.780169724443466 5.292524620540071 0.8825756401960736 -0.12786738796865077 0.1549722146052428
Ni 1.7389214319319022 0.351874823156088 3.2532450502998684 -3.2890788339789743 -0.49829573349680634 3.084161654914172
Ni 1.5249685333566232 7.596293837263301 8.449470801105624 -1.8909481589850146 -1.481963036229583 -0.4078324972082267
Ni 9.25920016084643 6.620108655794291 10.134385575088762 1.1374593809869895 -0.7462074138452632 1.0036694568863167
Ni 6.61826077470736 2.053425193287991 0.6619278042578448 0.9260964462968438 0.4015340657940246 -2.987195584510068
Ni 7.229778756223023 0.8770510275215138 2.850935206023141 -0.12016359156648981 -0.1491808047344463 0.4763539391183926
Ni 5.620376989566049 6.12998152931761 7.908026710262268 0.9412423007993467 0.22185560669135343 0.3466476981687901
Ni 4.02487166199211 0.3681361767210854 5.4900537760002885 -3.5377309920378814 1.309736405419267 -4.430460432838505
Ni 6.720360871126708 1.319097781353479 5.113067368800732 -0.15173442439423548 -0.2818821237566307 0.8525251006675962
Ni 4.00572089436391 7.457702755743436 6.099289904355575 0.946141537873177 -0.7658598979688681 -0.3274274164865974
Ni 8.332665117672752 1.1479261297604937 10.259696177887902 -0.34657313617711283 1.198578102675181 -0.8292352769017204
Ni 0.6406295748210447 4.132366077948056 10.695130690557791 -0.09763789966014798 1.1740482358546167 -0.06334066904017478
Ni 7.068042497452703 1.137053496092437 8.035891682018443 -0.7361168623784806 -1.585966730206759 -1.484075968807528
Ni 8.181624170648005 8.019383944308522 12.54061139862286 0.025310710850646727 -2.673766796295408 -1.1185993108576928
Ni 3.372868285753674 4.070966029105013 4.369750668669592 -0.23261927296576068 1.7809499379873006 0.5710823784412293
Ni 7.930247013695982 4.771107640931291 6.448492766121821 -1.0398489921306673 1.1883253145989212 0.7970620346032853
Ni 9.254589790861862 9.394888762477224 1.7759266506076203 -0.6914681133208543 -0.6995750586987048 -0.5301295901779516
Ni 4.47541866882396 4.188726451099468 9.585209315151857 3.209445855536679 0.6571528849787521 1.2226194598951008
Ni 8.23136763627096 8.174540626481434 3.7714002398082305 -0.04295670606718408 -0.3199694175466554 0.6920198720592663
Ni 5.492061246817455 2.157839807432384 11.4634451153927 -0.4137159525721971 0.1822739877439893 1.4391048034134764
Ni 3.5025466074855607 0.44982558658932603 2.268006184778171 3.401438613230329 -0.11759377395678457 -0.9962273987859748
Ni 2.5874721601439643 8.855466141550176 9.822773094342429 0.09554682145907414 2.313648317333693 2.2164444198871704
Ni 9.070921610100184 5.686135424609077 3.2176901382954086 -1.2211752712494066 -0.583870274234517 0.060053256538154645
Ni 5.775934979247739 8.241530982249083 4.414307934696549 0.12446864669974694 -0.11539805185704642 1.1908259695335879
P 5.314692660670315 9.36185088849875 6.821312108143019 2.9548768177727043 -0.05771509532328126 3.6395356214812096
P 3.7421831866226354 2.1183810133134626 4.105632464950504 0.675711621817546 -2.1711634365621832 -0.5459917540211887
P 5.6316415980101215 4.137032444329196 7.2625655796901905 0.11801594909586771 -0.7006438662828515 0.18095886847699158
P 0.16656128160841893 7.335425291092038 2.0621998286310865 0.8848430960740116 0.25952586754861756 -0.8143776430635975
P 8.88318435785415 1.872762152475766 0.5647983213076875 0.820161082514594 -0.30679277095538127 -1.2028541043427154
P 6.525446747386481 5.74425968425256 1.2714467144158277 -3.2152712039692046 0.017268043051828327 1.6974415357499992
P 0.07175751566262181 0.41039945703507236 4.83492113446666 -0.3573807683155781 0.1226346788148017 0.404348138204052
P 0.27459419624474857 6.112613313647006 12.450226681640002 2.5369789659086757 0.27807946218108887 -2.8202024341845493
Ni 8.236939277730041 5.664679471988594 0.12393402471670305 0.09341666248994879 -1.884915065417057 1.3831054052297214
Ni 3.4084539957762496 4.850426536677913 6.7533698136336175 1.499286357999379 2.188896077955256 0.11366692809855262
Ni 1.162345201878217 7.960009098474894 13.639823463184078 -1.3605357474593214 0.30687941713191663 0.41647808869836667
Ni 0.03120865835706578 7.23479976644913 6.351004906233593 -2.8458031654717897 -0.3547525866641116 1.7344073143410712
Ni 0.5385565433267073 4.320905945211646 7.779095007151364 0.5433124074168126 -0.1526620784148274 -0.1043659624126009
Ni 3.734409020231656 5.655318741028027 2.396677504645008 -0.348492978907645 -1.9610217758736488 0.4233352208295161
Ni 2.3537711990436994 7.425299507592798 1.9768015907631158 -0.37658819448196434 0.9940913262795782 0.9371833002386246
Ni 5.812267307891297 8.971294687862839 13.378082306499541 -0.17532866677440773 -0.15920605018093226 0.919144954679675
Ni 0.8470481582373346 4.177937812026271 0.2675591822885416 -0.3320042372240024 -2.1716468039565053 0.606649991133194
Ni 6.710244188812396 2.8112244281196372 9.563326856644137 -2.076731702544159 0.5570438980702922 1.001752699479578
Ni 5.680489121287897 5.741049224182335 3.649025714736105 1.3046399647329663 0.3860945913105028 -0.15554145684515147
Ni 6.159519628510227 3.845599198361465 5.090256303383167 0.07551458539854737 -0.06450023656591472 -0.6378752676960626
Ni 5.233899193147253 3.1306932033052592 2.3575164247012026 -0.2587820474040575 -0.21375688884361896 1.80982882580518
Ni 1.6065459504317166 1.0382105234071248 0.57706993161681 1.2650215790103954 1.1714120837833502 0.8762008470179813
Ni 2.9847759265670044 1.3086731188580119 8.108969779366928 0.17015740698611342 0.38692557185223037 -0.3926951273461559
Ni 2.2795853063163327 2.707836414579095 2.5493078160591707 -0.35280986111544405 0.05302591737772803 0.21826377557503698
Ni 2.567304124644676 3.7813806642242134 8.7797142162653 -2.1290767918047786 -2.1049621581447617 -0.2684879618379118
Ni 4.979964867418365 0.5865501215567344 9.78542909746744 0.018199296616846078 -0.3777976414090332 -1.386500289843883
Ni 5.714348275749451 6.549319877792394 12.591970360286966 1.2949672175298923 0.14820121442999637 0.4085405790188448
Ni 4.572917727991504 2.506006735862018 6.264295419412521 -0.4659803091935523 0.34921031668964375 0.6617718718080022
Ni 1.471473309163232 0.5601646194912152 12.055210368016997 0.8554633573603138 0.010915875581555393 0.1457139292317684
Ni 1.4999194786226626 2.0872563495512573 5.128543839540422 0.012151804871185522 -0.7677059500386713 -1.3927125893021821
Ni 1.3692612199507366 7.345336653285579 4.633131586500461 1.0372742894249554 0.4124797661722509 -2.720132270933825
Ni 8.561979694374743 2.50368288540421 6.29706451068744 0.5612113991844205 -0.812129213349053 -0.18265219701901447
P 3.3809970959896205 8.00321031843149 3.944068861736286 1.2111759939448496 0.23870841658263406 -0.779110078110555
P 3.234491857087342 8.804098780426585 13.473397506200712 0.17724825239462377 0.002945970002201378 -0.31481769814238686
P 2.083289938127288 6.699296893282241 6.56178374239642 0.4516839471755382 -1.6383349593958298 0.7332361983965759
P 3.5259904321844093 2.1717642447137067 10.195374050416989 -0.708184911854903 0.3057563592710669 0.23459465152457662
P 7.755342268998084 6.250187127295782 4.889667878123473 -1.0957378328784873 0.550921073002006 0.2679793976326094
P 6.0242976635175465 4.262231054335189 11.582650244418755 -0.709712661353339 -0.9208488247446591 0.15610118600336342
P 7.442350410349484 3.179634053910658 3.465689779260763 -0.8442440916057268 -0.7018165464347139 0.9023517943817362
P 7.841427395997359 6.755759926494037 8.264154459738126 -0.03930239714404844 -1.9478407584070003 -0.9960101405688461
Ni 7.00398261977241 8.079225426780264 6.632703178656988 0.4338788006733173 -0.5278202253184845 -0.19366988828575676
Ni 1.9864908339169156 8.919722006618478 6.615670008092551 -0.02591080632849086 0.6562694539325343 -1.405574789976831
Ni 4.171498226420298 1.7323978517310683 0.33445901054839644 -1.0047953429606438 0.2903359109509387 -1.3202745859464295
Ni 3.979187935120747 5.137865373023389 11.978021201886728 -0.41154105640806543 -0.05419679775737763 -1.0182872067994915
Ni 2.6044577337713144 5.8369710515130535 9.819044667603897 -0.07370041500794404 0.29356933028657184 -0.0967488121869753
Ni 2.323701134083632 7.140996469455449 11.753379524478808 -0.36510564776366156 1.164029932386666 -1.3513132004197888
Ni 5.278808303199347 7.947008601737037 2.2334069446085687 0.16108089860614194 -0.18998035524931153 -0.485618395139454
Ni 2.3248397274806303 2.947855635759423 12.195943311705804 0.6437556377362397 0.07300313183060331 0.011017434156426186
Ni 5.312163490091737 4.226915993562719 13.916194611746764 -0.2686815659059566 0.2435138083910774 -0.8880220080226255
Ni 6.454247329143044 7.62179086316985 10.124755128151365 0.415101262955498 -0.4754823351467166 0.06259273513055673
Ni 2.216309378188071 5.805809056819799 13.522298226055232 0.9917171696204469 -1.0541160435726427 1.020429964174107
Ni 8.346692215014459 8.473365396796892 9.1907800304196 -0.05756905666372021 1.9713038745259472 -1.8853878912884174
Ni 8.11187132598272 0.8037050807427518 12.423877577232256 0.8650939384715423 2.9970585933470772 2.154333766599354
Ni -0.04540934452815169 2.050877357243888 2.885506447994456 0.48570709819851837 0.7435959443643453 1.1451649771613635
Ni 3.908361826187801 7.624058717231085 8.517071517595927 0.2858033131879078 0.8823961771954159 -1.0120193715129089
Ni 7.624581350265773 7.545682427493453 1.0884887546173583 -1.329075214957195 2.555587839259115 1.480249395972586
Ni 7.941446293010718 4.681252089896056 9.054705053652444 -0.5764264163619621 1.8465076692834521 0.42796680606425647
Ni 4.152375456990385 6.809245817954666 0.5259414884519329 0.5004891416036994 1.3265228808489864 -1.5191437590449386
Ni 8.269659838794595 3.643153559282078 12.50299301940466 -0.6361994226555366 -1.5721208254626022 -0.24469034519768182
Ni 1.2313234297242317 1.9513624277996917 10.148113091708801 0.9731376068460466 -0.18642966178357567 -0.9744956635358378
Ni 4.44390203028574 8.293682292924705 11.50539294933932 -0.6398539886889884 -0.21353988773680643 -0.013576196022537908
Ni 7.499112091009675 5.678230599959425 11.525225939732445 1.679943636075552 0.3381990531808046 -1.6881855643693697
Ni 8.079160097650927 3.539289576370659 1.4538792413597807 -0.10815731113423309 3.3195646612726573 0.5726754339599621
Ni 9.742626385199792 0.6193920081471993 7.957869102852503 -0.3500577522916036 1.127448790828523 0.30835677300839154
P 6.4763565730568855 0.06044997664784284 11.351929224889487 -0.7662597045104481 0.2621293666097356 -0.568258278728873
P 1.6709791374225007 4.924033799974018 3.12098156159283 1.534848828485021 -0.8821298109079067 0.29051023174527385
P 4.755960615658111 6.470971586253049 10.039575276230032 -1.6898760646979154 -1.546935070225594 1.147231886992721
P 8.518974461806156 2.6710467820301855 8.541535409985693 2.2658430249249557 -0.6410660067192185 -0.7384185139284638
P 5.556317111885757 0.7271430742541081 1.6499599566952927 -1.287822636065311 -1.911916276596249 1.132937581857236
P 2.229029892943059 3.215639736907536 6.631910829645471 -0.6947899786052356 -0.41862316006582745 1.9681272765701783
P 3.15754347546234 3.642686922643964 0.8812936878352464 0.1329910823484613 1.019963823170966 -1.961008920357842
P 0.5149129981467461 8.863454960794689 10.593094989994503 0.16912896572159905 -0.9881536206389046 -0.44818364733176363
