# total energy = -340862.98359156324 ev
CRYSTAL
PRIMVEC
9.35498207359971 0.00000000000000 0.00000000000000
0.00000000000000 9.35498207359971 0.00000000000000
0.00000000000000 0.00000000000000 13.69196188079324
PRIMCOORD
 96 1
Ni 4.910766840603819 6.2456105147890115 4.037499850183431 0.6741085389964842 1.4707643393002865 -0.6226587078566244
Ni 4.805691682577581 3.311813314086292 9.259298326427297 -1.3965867275456076 0.6151755121057018 1.4059038911814754
Ni 0.3579590319369686 7.685622896820623 0.9000755623893876 1.3693777712309836 -0.2541772016421945 1.012791730902559
Ni 7.675921780467951 5.520730378141825 6.6696007518018705 1.5877919563409557 -0.775049534887936 -1.158885412071249
Ni 3.5670827084116126 5.246797794690583 12.05028143614494 -0.5139876903107664 -0.7091542177467077 0.08632118909574811
Ni 3.520738127494412 0.9499703589824208 13.17897872658136 -0.13171658651141188 0.20778524464121634 -1.5684755154005312
Ni 9.223581940580754 0.0462716120574596 2.711843703838122 -0.0487512012617741 0.25721033204156346 -0.5265184757879254
Ni 3.2213693479362133 7.956814470540589 0.7079513611874036 0.8606515864294727 -0.8398783584378632 0.8280579687641675
Ni 9.325803829091502 8.162034711069579 9.98400071841614 -0.38301389550265 -0.11526075494823376 -0.30681668221478126
Ni 7.311161676603892 1.4835317583793737 1.8238239067753386 0.3669357589938648 0.9561760392910437 -0.14879616770151793
Ni 6.236695216925852 5.381677925426188 8.416996326486506 -1.0186947266505553 -0.37933001889315965 1.3243515842292803
Ni 5.319691814574884 7.954559919874249 2.0185918258956113 0.6178201488174005 -0.9759151695911839 -0.2543003574836201
Ni 1.7724603780054784 4.182752784980601 4.032063670132767 -2.9265638297606245 -1.5542223479156265 -1.4297112780137184
Ni 7.780912743656028 7.402812435434293 2.317447016941022 -0.2940269866492807 -0.6998370541108399 1.2687008276341958
Ni 4.999629814792855 7.0197446317609975 12.860695108880954 1.0187962852254262 1.5417494122595963 -1.724946168928171
Ni 8.966245095229453 3.708838750930452 8.319947743031715 -1.1478623214878683 -0.4799262298506832 -1.648494159317019
Ni 0.29685135389715384 7.755298802890729 4.573388769106463 1.2944208581081191 0.5611895448075497 -0.7508068602904876
Ni 6.060344450904426 8.959387893410256 5.236490475503144 2.5013573600503243 0.8373802746063578 2.1930926325351066
Ni 3.994371512084021 8.801447732000266 11.026889436292404 0.26549802597165245 0.5787645775768355 0.6507816913450857
Ni 6.973456180735905 7.3757671824202395 8.125686863936819 1.0218924076522466 2.39242974640897 0.24588128018198946
Ni 2.4644390428953393 1.8881908605502264 5.083085609375483 -1.3304484411556377 0.1834286701737228 1.6119014477946498
Ni 7.177170269159997 2.8395551118533304 5.810115520890408 -0.13726245603030557 0.5735393246221542 1.213764066387
Ni 7.82368372144235 5.657818284633679 12.505019628054582 0.8218294713559524 -2.350815156191977 -0.37949868326054
Ni 4.063467409269011 1.0831759479368035 9.032916181075377 -2.199540445042979 -1.3018320629705256 0.3268957123528434
P 8.705334646747277 5.6677065006267116 0.9158153196346821 -0.7285704174897903 1.5860556903761394 0.7222691578621109
P 0.3157718050285702 2.133899463253145 3.4258112539613057 1.3680158578864505 -1.1667822983208227 -0.3154771861032567
P 5.43946364935141 9.152353107495658 12.888051882796209 0.31491951382757377 0.5770568508571093 0.2276981815150595
P 2.3872230213187207 7.9737563429751965 2.6990694758925358 -0.6341685082684368 0.8741565628944429 -0.8412708679100157
P 9.37387908168203 1.7752668726108802 7.320790759595025 -1.7620826687691522 -0.6215050538681554 -3.731927699361386
P 4.214110684704956 3.0870879360497603 11.681543593926826 1.2238348203594407 1.0057281391875583 0.1654324907066183
P 5.948907905105944 3.3489245277517203 1.6707754654625642 0.5037045632172035 -0.7069150440035439 -0.5555963669904884
P 6.928673881815712 5.558487085566496 4.228242320541355 -0.17403720165649383 -0.5017266135552262 0.4659738814356491
Ni 0.49845028088697396 2.036139901164986 0.49970571947379033 0.7550219268130998 -0.0030426434810657274 0.6303221379391531
Ni 1.1739660484215482 6.058894428691636 2.532315050425181 -0.6236233857627389 1.383070695337044 0.4064330457575387
Ni 6.515370776260222 1.7071813134838352 13.297825353636304 -0.7981786647062318 -0.06077727918837276 -0.41647423204362466
Ni 4.5979268869396925 8.625517940169651 7.43392710562618 -0.5189182948431644 -0.13531947337132177 -0.29053619988720286
Ni 7.418893649523246 7.614160189185077 13.67167008053805 -2.185966820123603 1.8021540828687412 1.0933063406188592
Ni 6.2913937967851306 1.6929710957984843 4.074481029598809 -1.2930437752549344 2.134322099364118 0.3799270290472102
Ni 5.761826974709866 1.2353534404237014 10.687835887515623 -0.6648692797864033 0.04570984333228902 0.21983806204069237
Ni 6.919449869545959 7.297877602138324 11.220125009358126 -0.7963547241236156 -0.3345056634896174 -0.9762969784106348
Ni 7.021269493829933 3.13315186750642 11.275617827190736 1.1470783921339922 0.43642033614824843 0.2697498592694709
Ni 0.16785737784727736 3.0401352813013895 5.508098345922912 0.5870371019982729 0.3654437478293706 0.8011768281026073
Ni 3.8396494644882253 1.9757722022027955 3.4317395060661156 4.4353802387376255 3.098865022562618 -0.2509864626190387
Ni 8.68594176902395 9.100629411918105 7.867661491908994 -0.9290105346198452 2.5796621065994993 0.020155391901952386
Ni 0.6486192587346062 4.103609637108273 1.644541289389471 -0.006397161775595434 -2.45229402686477 1.163789534241086
Ni 1.3109323401471693 5.4920947781847085 13.707434176792884 1.3951420246792812 1.009608962299203 -1.7581838479353784
Ni 8.61360904806073 0.9531510528685428 5.029454432964459 -0.3772463968912535 -1.140487369180036 0.5272687236903887
Ni 0.3270623328261013 3.301981227985368 10.403536112992027 0.7573541744907021 2.5118839706132614 0.6702775952861683
Ni 1.9539563841368064 3.2269636271829802 12.602341376984297 0.1811100493428752 0.54180368408177 0.8121076160824982
Ni 2.280856875773996 0.8039755741112227 2.9472636973176383 -3.8478898512520177 -2.5807216582122647 -0.944515829344296
Ni 6.253066435457362 5.779835315094528 0.894745093635528 0.413409734185688 0.28150571425381843 1.8617887638122388
Ni -0.04646058269422331 5.880691376230646 8.920108194913054 0.05210957621104574 0.344795989672032 0.900533510226075
Ni 6.043898392516773 1.2716507706535634 7.972802134809361 0.5606735244030795 0.05655707045943808 -1.185052043164288
Ni 1.850948677136546 8.640280101794065 12.822946820940098 -0.7960564761569064 1.149299311044711 -0.8868526703048727
Ni 7.619997697964313 0.11474072544724304 11.660170266510287 -0.09839688931335956 1.0443160267630853 0.10212087513216606
Ni 2.287414718168618 7.1765621953288266 10.999889087192036 -0.02918459198375619 0.20078850160840905 0.6364986990635102
P 2.327304361493394 7.969986285221941 6.311433103765901 0.006456811368937268 -3.436673782283539 -2.5105444258662315
P 4.0767982586446685 5.749469043464082 0.468626598213572 -1.615457026356392 -1.1867505139126335 1.317416547672344
P 1.9120647746601769 9.041000756535336 9.86199117194091 1.2114300189371847 0.7098687273152291 0.6962328816993494
P 2.4894636197935043 3.0288531729876746 9.02967093781333 0.22577679612263052 0.9075420803334241 0.39648081964083326
P 6.367309475861247 8.704361728617403 9.696140437736492 -0.30736201319529 1.1267862175438594 -0.30644335803576256
P 4.394951842095023 6.199022704339343 7.702960484994592 -0.5761459090070659 0.6933601881372446 -0.24468083211598507
P 3.3818259995090463 4.744874944478525 4.924108915957899 4.146306225218247 -0.4334118883392278 2.2958269728815557
P 6.7741108689142235 3.495835165362481 8.703980045351068 1.3094587262778479 -1.984660241228195 -0.13186905292887613
Ni 4.6726919032275935 0.8121087954776769 1.4504852844007687 2.185064877134624 -0.4331480931548798 0.7273766542920054
Ni 2.9544155810704034 4.023465506160019 1.966918647220955 1.3044946974043534 0.7703418449996218 -0.58480384179238
Ni 0.46759006620597693 1.2782273230122214 11.367778432541117 -0.961727308126576 -1.765089059695644 1.757147436251064
Ni 2.735611906651269 1.677647635252991 11.067883902993508 0.4616685691920759 -0.7797847355800763 -1.924496684364421
Ni 2.4205361122848386 7.443796611655176 8.439985259297554 0.34920337471110824 -0.5457094468940795 -0.180469844655715
Ni 2.2004414503472196 5.24601197620107 9.747280382436124 0.19971686581078507 -1.55558091882605 -0.39217139363220205
Ni 0.899980141572804 1.4965258284023835 9.044293710205675 2.2588403683548774 -1.0810221239348672 1.8224490856723516
Ni 4.350160188192812 8.69307026532167 4.0681420937834085 -3.1936083742837904 -0.07412618969145297 -1.5778441010996245
Ni 5.21233404093625 4.063083855006273 3.618552883976478 0.7281484994610234 -1.3994187976777641 -0.15616829179587297
Ni 8.298710998352641 3.673757568362931 3.427563442093278 -1.928548742946608 -0.24879279740182955 -0.7446516393223692
Ni 9.012664516002799 5.526390142262718 4.519402103378755 1.0201209175741206 0.43023580460409133 1.1088275761829098
Ni 2.080828650264999 0.389422642958127 7.0184583217335215 -0.6176769383713169 2.9334806114851157 1.82338959520875
Ni 7.864059823832063 1.8429314575471152 9.372448704931479 0.6158416849347911 -1.4885252628281331 0.7950082373980502
Ni 4.818274133391797 6.9037802746658 9.727687308097613 -0.5659579127304704 0.6646378805018875 0.02614194850269046
Ni 9.054518705551356 7.776160412790881 12.292342531359038 2.1982559219036015 -0.7904162471519937 -1.485499331517616
Ni 5.792483250782872 6.892123967071364 6.114843769646723 0.215494440360016 -0.8228663972608988 0.005748215337686874
Ni 5.4238127644352865 4.420444168094089 6.212932627101916 -1.3194235508000438 0.1372406016534346 -0.11655247717646379
Ni 5.803241480103578 4.194427802539072 13.109012816068695 -1.2891069020943735 -1.6374502427980313 -0.08527886387416281
Ni 2.694197401257558 6.573343599825804 4.199119326021102 -1.3168362496888417 1.2077546269681263 2.1072640668050613
Ni 7.968648522793366 3.6695384714728108 0.6046368107769526 -1.4266290395439687 -0.44344047621982335 -0.5179597875846369
Ni 3.530345694026904 2.523487689392991 7.183912404700373 0.5298688803173972 -0.34383671108255626 -0.7213309623185578
Ni 2.76661431705894 4.777673511433653 7.179489369202261 0.0540265907281005 0.6348801896234807 0.09054679714132148
Ni 0.1578007721779213 7.263226748743631 7.080277913904906 1.4094317018290758 -2.0587753751760545 -1.2249378236156323
Ni 5.715491748774684 5.174315394015076 10.985142829037052 0.3070169711510455 -0.39588843747247304 -0.7721035648857347
P 0.4946147382595917 5.961471645956125 11.193233178049168 -0.43893641770188274 -0.31213706598643015 -0.5900049263773451
P 8.038408623701633 8.199463994123619 5.812799465231374 -0.7800243623947082 -0.010498071317846436 0.8087104174754911
P 0.5880055237453422 4.7626307003487005 6.737197980867577 -0.18472604882890764 2.1873845264067358 -0.576228184308227
P 2.958176283841642 1.9868952758222043 1.2326339471510672 -1.3581361368788933 1.3695258667730736 0.0721739510610886
P 9.104979478556478 3.125246907701205 12.430343484095852 -0.9228134046701978 0.19179658252244386 0.20822978837780265
P 6.731657960516514 9.294623674025488 3.197086621112076 0.7470155115688554 -2.99400540834305 -1.9508006123662727
P 9.133025714646458 0.17124481683599724 0.06416675715970263 -0.9034856508758633 -1.040740393596685 -1.0322485540755901
P 4.806037816912246 1.3399982692771129 5.7969577386820825 -0.07985692152764312 0.2325909908309865 0.19608363993357197
