# total energy = -340896.47480213444 ev
CRYSTAL
PRIMVEC
9.03453275839990 0.00000000000000 0.00000000000000
0.00000000000000 9.03453275839990 0.00000000000000
0.00000000000000 0.00000000000000 13.22295191648998
PRIMCOORD
 96 1
Ni 6.318056678177128 1.8792280238805723 11.41705401299864 -0.17725005216683667 1.0073818727408974 -0.4213688411317646
Ni 4.595948216630667 0.3636688612815531 5.799996683508901 0.02924295602551738 -0.842075366089182 1.80817380670026
Ni 2.6246854057052103 1.4984043914553233 4.853722413886325 0.09859460714646244 1.157483132407084 0.12244390296023427
Ni 3.2801227013302565 4.310755115359842 4.829551424462561 0.5923533720048637 0.22176458963944393 -0.4211657239820231
Ni 5.379684914515891 4.199991741533368 2.990555982663885 -0.9813587092042583 1.1902618695000018 -0.04783331743319504
Ni 7.241449186226268 6.168833297631298 2.455118967341674 0.06034584807790898 -0.44118716140927244 -0.05247492997026447
Ni 4.9510595683128376 4.499450370314145 11.684448180927253 0.2264630235563777 -0.33482345184035245 -1.0325894823547763
Ni 5.580468374541956 7.890544239728462 12.454129855919993 -0.2293125771900309 0.11122283743343425 0.23282033323297324
Ni 1.9399491197604855 6.3938654440643985 0.4445568415868704 -0.6026737800942653 0.6389350764191448 -0.2232774267395445
Ni 2.5928296425639252 1.4536111771460527 0.3915485264765871 0.4500001317152121 0.04849331961469713 -0.065872434323093
Ni 0.3899214070943565 0.16923758136457318 4.6423667434155815 0.43468329885248363 -0.9917140842966534 0.6631993482831482
Ni 8.432327110986702 2.280072181297621 1.2345282706529783 1.2998448573371677 0.3754872481083017 0.4003999521895814
Ni 6.801783640772323 0.8440376879834939 4.8224900335177985 0.11849545983544754 0.18358910701098707 -0.37749913633200793
Ni 0.5339472208406458 7.395036246181413 2.331272686366903 1.6924466536385692 -1.3905484917713278 0.45895502691565476
Ni 7.8223696541742544 3.942146171467497 3.50589387255773 -0.4873826861287284 -0.4971438792805503 0.5636531758566938
Ni 7.665999958074041 3.8200444588031575 12.578544409016597 -0.44976667554816735 -0.4133246306710494 -0.23952679871887134
Ni 7.9296095601547 8.783418095511221 6.9556164400233955 -0.4505567755496305 0.5996753595875737 0.0563081876734256
Ni 6.8748278395804014 0.7215230971638632 0.15348406627964467 -0.2659387130534968 -0.7842908509805461 1.4973678008204276
Ni 2.035064682537412 6.638629010435267 9.05698194598356 -0.773653682981674 -0.9283847281103883 0.39033948262978585
Ni 0.16207229329101877 4.739750877413376 1.373613098335181 -0.6335622421430057 0.061925276749886904 -0.4061787636548876
Ni 6.488538314727337 1.844941971378821 7.0708681698137354 -0.15458449224852086 0.37254822008463584 -0.05717670632130798
Ni 3.3762501317962994 4.2856842864554 0.4263766509546507 0.08539250663389165 -0.7411603383396591 -0.06447169732082446
Ni 6.073898425513141 5.73838297577466 4.762008352760757 0.488717602890068 -0.9274002527099319 0.5255455703516948
Ni 5.090227513698076 2.78052206436205 9.305110875874036 0.9515922765751029 -0.3683184982740044 0.3199115677255264
P 0.18078190755343687 5.5970738460829885 12.382051448683045 -0.09484002520003666 0.25596540389086886 0.7166888355608559
P 3.9357768257458274 6.159862006423329 12.746013932285098 -0.09322537241474912 0.6734421090570789 -1.0517298027286535
P 2.27803941138645 8.440105843846782 1.522530208214395 0.5328104794442243 0.41023339334023545 -0.2276267048471757
P 6.400090237259052 7.87077668165894 5.699912127615778 -0.2705443301463083 -0.8462894041705297 1.300965344094856
P 4.668838828378791 0.9941509700237701 12.756922227355089 0.2188954956217649 -0.7884131006790357 -0.3069529506823295
P 4.037044905453899 6.100730988340598 8.026225758852718 0.1185201424257959 0.8106868244755716 -0.1982467090231618
P 4.676987977089352 1.2447869828046878 3.8959309216737004 0.5386034319769175 0.8494595743683951 -1.0157541559649925
P 0.23648161002611062 5.572138535172624 3.452552183182015 0.6845518458169952 -0.24745762353017384 1.1232650917644784
Ni 1.5775649690627922 1.20498083067749 2.633377529845377 -1.0239001821108946 -0.3292498144073168 -0.09746589285865793
Ni 1.8871422747347315 6.39540131466395 4.8429595747966445 -0.6139670936198975 0.9776943729787936 -0.7240781860463917
Ni 6.069200468385102 5.685820063138246 9.130554664968544 0.10185348040339232 -0.6249603594066075 0.6434465911362532
Ni 8.480490206082047 2.412283536320184 10.209493823167199 0.6259371214975802 0.1405886921900611 0.13963301314501114
Ni 2.302766928039228 5.1788111091604385 6.941626465768069 -0.30704885283024536 0.27754570116480587 0.8062403586684437
Ni 0.5276103994375554 8.862253429932904 9.096901933225784 1.708682398771141 1.482950339843517 0.22746601089959537
Ni 1.4699907853636218 1.0471114021094792 11.35995757173367 -0.21310742818507816 0.2985981509597309 -0.04923071200135393
Ni 4.0066256330498415 7.0321461616391625 1.6879895479040716 0.547525931277528 -0.36176681319841564 -0.19016701733882088
Ni 5.593984035818009 7.734572063077543 7.897725789961306 -0.075873768510179 1.0273706571579984 -0.06509313295490725
Ni 5.192128010711844 2.9749000405346924 5.237597911538212 -0.15425179149945048 -0.7587924495991255 -0.6604220426483272
Ni 0.5988928643226192 7.345111417163052 6.954307336200602 1.1908509092342523 -0.9041235415701784 -0.36042238335537924
Ni 5.336219776548585 4.4668266718730845 7.182601852477808 -0.6387604985144935 -0.03300833660522057 -0.05167634532836906
Ni 8.157821862182166 7.240636078261801 9.289903950031889 -0.9932657450544893 -1.5964863987911602 -0.46367737209198856
Ni 4.601007555076249 0.25900108682871015 10.46057162460881 0.4959776268865909 0.15860775447530104 -0.30721957408015477
Ni 8.211685747561729 7.145122996035578 4.634049552392363 0.3205180909612738 0.08081645722743501 0.20214115898156157
Ni 7.2707301074800705 6.03979306367016 6.8906129755306145 0.4807034743363398 0.74563714316409 0.5902640935760028
Ni 2.328045551201257 5.068454289316199 2.600928197890031 0.3293768269034843 0.6249719293708332 0.44725265087706195
Ni 2.189238987133561 5.510504951465919 11.25922433637556 1.3398558505124667 -0.7817855680601891 0.8612545101207941
Ni 1.0903055040886287 3.328945317330115 3.9955791096258912 0.5395182304817031 0.002742081521511407 -0.8680440222388018
Ni 3.54314505876991 2.752271079863242 2.620497899688198 0.7535029190654119 -0.21499358946419747 0.3447430249469095
Ni 1.1814910450372915 3.2472731395657326 8.340403448696959 -0.259524839107353 0.3045376563726175 0.11065513785542233
Ni 3.590531184032541 2.814735840600293 7.370367453992736 0.2029772817296117 -0.2518480392883856 -0.41524601606347844
Ni 4.09802800278903 6.870437056572273 5.852161173242725 0.10889676040341892 0.17867547175945356 0.35087947686195053
Ni 0.8006457297329902 7.404170158982274 11.306986298208436 0.11605162628064529 0.49031477217385877 0.02965973184796182
P 0.1914038079292759 5.551982492186746 8.19607497809723 0.2731889668580069 -0.02208423349354906 -0.9616067233883115
P 8.526485013272143 1.5552225691057882 8.116882779624476 -0.1682193094231361 0.5769866597408063 -0.2072301434686947
P 2.0073738390807936 3.3609998401960475 10.436612043255808 -0.42898856246055145 -0.39521043756884194 -0.4150539546573303
P 4.219280469357146 6.134953799111781 3.734452197196743 -1.2276217982056985 -0.5733017546900513 -0.3937045424472768
P 6.7990642463578235 3.925369043800632 10.368817811538314 -0.35087690575878927 -0.029486953715523408 -0.10381137546071152
P 6.345097035262172 7.659630612352372 10.344235750865847 -0.37692809431988633 0.8950999979153293 -0.5067194387841273
P 2.25109843416373 8.561403483079593 5.710358758052609 0.04676373851810011 -1.2724219852395249 0.09367762946081931
P 6.872876380465677 3.9968502684103435 1.4501211370718954 1.0484107656577493 0.993940659634327 0.2095557062780778
Ni 5.382503688792714 2.8351719541072655 0.5031448842399948 -1.1985266806119552 0.044990962888393486 -0.8382755327271175
Ni 1.371704101525268 1.0161771613279253 7.082716056309334 0.0037206433846968174 0.6585266253978271 -0.4314097703075344
Ni 6.806391252570977 0.7781407081830924 9.262929545037295 -0.6064720707944329 -1.1300057529224214 -0.26824627814075097
Ni 2.743923171428033 1.4266159927257014 9.213303759059201 0.026562580979876835 0.08056680311047415 0.1942365594225042
Ni 6.4197674499991875 2.0696127364943813 2.515587096299308 -0.24535986046088062 -1.2400638806237934 1.1350924234167095
Ni 4.2915748019313265 6.845167467943182 10.440591755015234 -0.7436985313804805 -0.2713927941895326 0.0762306376289655
Ni 8.070810275451109 7.123449151516025 0.25179152954375694 -0.26153544177947863 0.303596889725903 -0.24384085271319295
Ni 7.76962605087907 3.8126271072606177 8.034728157801176 0.031695274220751864 -0.0359080267505188 0.9503887431853052
Ni 3.0866481784514677 8.381074205626376 12.30676036153315 -0.08098075071944118 -0.6375381960716181 0.9407311654908832
Ni 0.018585841161160133 4.872784374933346 10.308256626891414 -0.1485262018695829 -0.5358569795800319 -0.767717262892581
Ni 8.702324127854906 2.3614913921397243 5.705849622662985 -0.16179026596834073 -0.004814390669507838 1.0218304440660595
Ni 3.7107356447797875 2.46440375684261 11.502963386711198 -0.26765029642796484 0.4383363222240386 -0.25925461616510187
Ni 1.0402090189444362 3.553923256565586 12.454540023715403 0.7957685126028424 -1.0362651314341509 0.21198154211075104
Ni 3.01174286585805 8.304750471361608 7.774487533053297 1.1012639049030388 0.47584126114803216 -0.29266558752537986
Ni 5.819323356371021 7.9064901903649805 3.6193603786394153 -0.909015579555157 0.1982413097065231 -0.44415524289866093
Ni 3.2941352619179285 8.433031804555908 3.7456658594800567 -0.3942861259823596 -0.9027767977342969 -0.28842815240526454
Ni 3.6016797976786963 4.570949663989733 9.443991523111828 -0.18668137278306557 -0.42522421032211283 -0.0627634563804661
Ni 7.073388804503587 5.931749084258187 11.470553806700782 0.5627280929392631 0.33680705792928445 -0.8306213586159694
Ni 0.4278294038511676 9.043386780817649 0.4261652428838889 0.7998732787998354 0.08390126680034583 -0.6471186406712016
Ni 4.618380961917057 0.4034768203153387 1.8889916436272502 -0.1317700654571666 0.5714222782791514 -1.3724746649887525
Ni 5.974355941596331 5.697068056646726 0.2695344487817515 -0.42635652415434316 -0.30493540603166835 1.912707662149293
Ni 8.0900086579455 8.904589251282891 11.207853982087034 -0.9811900448368779 -0.07532355243366382 0.19126462127837385
Ni 0.01588180545265574 4.8604522374722405 5.695032576375674 0.15862420953553324 0.040933762099884335 0.19007214363216943
Ni 7.991450938118992 -0.18708349427806706 2.3734540172036422 -1.646336746654384 1.7851788884669837 0.7175483553476739
P 8.419452901549285 1.674577783756812 3.5570799223743106 0.17453830966262843 1.0335994116765295 -0.7416773871853937
P 1.7467275638039759 3.164435507052279 1.5410031177138235 -0.6367771495358775 0.06628149683605358 -0.41453536314969897
P 4.684947400608205 0.9292197817944983 8.071858281271979 0.3240847252666096 0.056035136517697044 0.3594337941898648
P 8.617254965705634 1.6097640444557415 12.334555102118562 -0.14640195643772852 0.8742185264806299 0.25952381066608854
P 6.221504624662973 7.908956617857202 1.456680207985274 0.48172240251915743 -0.688656354903672 -1.0493214503974766
P 1.8950023183912594 3.1714463046125845 6.145538657902572 -1.3383777233050433 -0.18221613792286037 -0.7254061608291958
P 7.016326694463782 3.842612722083625 5.954969640816817 0.45891208949286133 0.7231052806101612 -0.8445937616356616
P 2.5605492563745296 8.447288297532921 10.151604149910224 -0.7629213841658344 0.16581172842290798 0.17517131526093702
