# total energy = -381160.8485719626 ev
CRYSTAL
PRIMVEC
9.33635788770492 0.00000000000000 0.00000000000000

0.00000000000000 9.33635788770492 0.00000000000000

0.00000000000000 0.00000000000000 13.66470350217729

PRIMCOORD
 96 1
Ni 5.307915373980779 8.6360467769772 11.759242329172173 0.2000919897620167 -1.5535032103614148 -0.4947632948635156
Ni 1.9556868319512446 7.144937100503559 4.8816602320155 1.179071657211137 -0.5627710303620567 -0.18109179451043006
Ni 6.845520111432682 1.797939733499685 5.621945630008117 0.6456541403105333 0.656690857740669 -0.5337903268589904
Ni 4.906274605261102 0.6905403509246858 5.460319274962888 -2.1408681280127517 -0.11031112425244227 -1.7966665773916088
Ni 0.6254276592040997 3.7617772056585657 1.889295059235875 -0.010664421692381635 -1.2701900105852124 -2.5043748067204095
Ni 4.338259943643296 0.24042614704576157 1.66218815997959 1.8382166329192535 0.2580662522839555 1.225417077244896
Ni 8.502434162989257 2.5027973888440833 3.941010063915202 -2.2842860621214918 1.3277521252703972 -1.7146640702758726
Ni 6.3025829063987375 6.458528087828448 2.030356219337966 1.0202289039068946 -2.2233892266361193 -0.5901802756129448
Ni 4.22820295994615 7.572990424947635 5.461850437613578 1.0920763248664997 0.6686536865295001 -0.15986065304579566
Ni 5.2299101060142315 7.9420473055520215 3.292100531645553 -0.8369943520218487 0.992637110331555 1.8992664490427227
Ni 1.8445841761999686 7.775253276560715 9.44467431279329 -0.09611323548550543 0.09619602500729883 1.9384361772636485
Ni 8.683662200870604 2.2974255301414934 10.343756215834645 -0.2337670134169587 0.5408773156127588 -0.2475560967812511
Ni 2.7526850007081936 3.749135777432748 7.281783828773203 -1.6762173362639003 -0.9790717129422946 1.2631133062440891
Ni 8.820579885458205 7.347041234036993 8.44044074835157 0.5468476742635808 0.16066437989401364 -0.04747464854219566
Ni 7.503546596924275 4.583918185502756 13.50520842703856 -0.9756763141075003 -0.036243041492434354 0.6515072566572006
Ni 2.3329410345513972 6.143379336157496 -0.04279226154373101 -1.8131380926840708 -1.0310591617531792 0.07003582167216325
Ni 4.152951917479319 7.160136690718943 10.1521638873525 0.4654673741128758 0.4077160262350204 -0.17000494056864915
Ni 4.521569989275275 2.8430702788870255 6.266304621570776 1.8085383891285305 0.637473918492586 -3.4490806405883245
Ni 4.014895197261326 0.2932279176004962 13.300989608502801 0.10498842648794822 -0.14427154035828701 -2.3015718457851326
Ni 4.235681382404702 2.5575457899638723 0.7457509017469691 1.6284027878837826 0.45052335120853376 -0.4909063830112707
Ni 7.6908712763355025 2.249147224856632 7.548053947363931 0.13669989865861618 -0.4481473947771895 1.65517388533004
Ni 6.112401301553906 1.1915899874688758 9.117336012605627 -0.525469722808437 2.6478415917892137 -0.6174110863044399
Ni 2.889331930924637 3.731798161320973 4.942413778360433 -1.603950054158057 0.15801177276251496 -1.131852062102541
Ni 0.5362477047948043 6.035395023853357 10.279573425333624 -2.2925956104284517 -0.2428319518327044 0.07928459396394087
P 4.377164545871495 2.189077099889934 8.037086758007494 0.5824399695458936 -1.963622446721289 2.6402648078832205
Ni 3.6848456188190264 1.147905170136084 3.3879989290026313 -1.092530124574467 1.8161498829272011 2.6359517823301637
P 7.766318382312482 7.700833169922613 10.746250327641352 0.41994856374547035 -1.5965295933242696 1.2397658897674004
Ni 4.276425247085254 7.408446458144233 1.1434844048000985 -0.3343351993500242 -0.22243101957884917 0.2505221213881105
P 5.407889091441675 6.9002591761948455 7.6938841189414635 -2.024491257182204 0.46986138941551336 -0.5252005283074503
P 6.035609760078758 4.052660763859134 1.8919325802652645 -0.10174935072536025 -0.5501754530852332 0.01784319882900798
P 2.241416720742174 3.427096793833692 13.896456896084562 0.000799098862527656 1.670926520178606 -0.853134452116821
Ni 1.6497063834691796 3.2878356834819242 10.971622531650699 -0.8142578296562815 -0.8817042933347137 1.5859500180362105
Ni 1.4448106790055237 6.02275359562754 7.367884652437391 0.10977762034647544 -0.26727337270452034 0.8492423161512664
Ni 5.510150216520979 5.490459838287412 11.068245430359566 -0.002894805049291789 0.6483224311713156 1.3116989284622766
Ni 3.604347543366295 2.470316200662681 9.94748011820696 -2.6752001863078254 -0.06844790835975308 0.36863063019778447
Ni 7.323046794937769 6.6193188388661355 6.664289272644049 -0.7890039401854991 1.2623327193243228 -0.9121261001596807
Ni 4.1178565491625925 6.900567275996508 12.602982972384478 0.7106176896661116 0.012811807052687613 -1.6315045667375576
Ni 4.695039513969285 5.233065794891872 0.6039521693924119 0.3225240656477091 -1.2243580398527623 0.31891757924337333
Ni 7.826425852709685 5.014725735446549 11.058461861203115 0.026127036104355003 -0.051933198534181525 0.2805898873077684
Ni 8.979783455699446 0.09043756178153878 11.107367569720454 0.8236143311705171 -0.49207829183218477 -0.24603271815818917
Ni 5.106035313030371 3.457029156383153 4.009675239712541 0.918622763627618 -0.008904501578481439 -0.8204091939696581
Ni 6.6478880932021776 8.40673649732114 9.130809310295934 -0.18064416545005016 -1.3982659150202434 0.18585887688177022
Ni 6.816353330208567 5.884500811899397 8.788535638813707 0.4666354262790479 -1.2541206158271756 1.9532089646974493
Ni 1.525756899624311 8.766447683941742 3.355859451510346 -0.7641372588508065 0.37357280469440823 -1.0803945176531975
Ni 2.5502821037307215 5.579846126200247 10.991135519089367 1.6736439191097694 -0.14650814299828963 1.5438584881827992
Ni 6.443720624633362 2.790805348895795 12.51230359894042 -0.7571749686003605 -0.23242592600803197 -0.20604975000734835
Ni 3.1068037091107272 3.4505403878329735 2.5542332502781115 -0.6591529461279163 0.8063632573995533 -0.1013693416781222
Ni 7.861717284536561 9.109950953723336 13.239785116084526 -0.920076722465325 0.7610802171920376 0.17118327714746648
Ni 6.653527253208377 6.867339179205013 13.071518743495574 -0.2977358029594356 0.2385348671192473 -0.24493202889484267
Ni 3.5560505653661814 5.557690949553374 6.2786034054717135 1.1496003872248977 1.0312339967681463 -0.5190157396529771
Ni -0.01986029994236257 6.633024611861336 5.714291543288442 -0.3572912939255653 -0.7433899990011262 -1.0579909531470166
Ni 0.9604777907909691 9.099849014771833 13.095841822383239 0.014612607706852252 -1.8665085378854112 1.3742716089881752
Ni 5.325897198768758 9.154914852050911 7.328612197718721 0.6716611058972562 -0.6139884337761361 1.2794089580803192
Ni 9.041982270204908 7.107152861190499 12.721537908792952 0.35172228447822007 -0.7487044692355042 -1.3829079445069345
Ni 7.966181790015639 4.775518916706764 2.8611015863704234 -1.7133934310935655 -0.7379721704196646 0.06200318117567386
Ni 1.2278150550583673 1.9109563425643235 3.430537241618931 1.1081220654754529 -0.5062401851548636 -0.22446707617227146
P 1.4549873088180358 8.625832801734182 7.577706219184608 -2.510030719454606 0.3058692306998474 -1.1302705765480339
Ni 2.365748995249715 0.8802299297226188 11.843102427006082 1.0047670608258694 0.9560621394209986 -0.9940136789641074
P 2.248288279955026 7.750595956070033 11.67307241646155 -0.06101562045142395 0.09389797300174152 0.24514234513343586
Ni 3.930783951407271 0.09735113460370852 9.787685556527983 -0.03459419303510171 0.413111743329295 -0.3278835301874095
P 0.7662358040145217 4.122422028041783 5.768431213891005 0.19603350342192694 0.2692199549079299 0.11158356320696267
P 6.531715795259898 8.232716127527189 5.071313399018691 0.5412899776701452 0.37761483597426576 0.07358342981410552
P 1.6709465970686883 4.4209240540652965 9.286450126467033 -0.6079373424860497 0.6132862655027889 -1.3518245928385684
Ni 8.68048783927771 8.92986195147238 6.261071593121314 -0.5296829895588362 -0.5728027035664457 -0.07499753655281276
Ni 3.9421089532078004 5.927027920886545 3.4102315974178006 -0.17681810683574065 -0.7460186948732249 0.31073658609447774
Ni 9.068870980168242 8.570991037038132 1.5697190067785993 1.417211859995127 0.10539003280174107 -1.2586154183737357
Ni 1.523394801144893 1.0004374014309239 9.772859420617644 0.9815116898423547 0.6336334617005733 -0.3602089817929926
Ni 0.29028696494825657 1.9868142482768543 12.731622108664965 -0.4861758103048207 0.6820722739282511 0.4438150859504228
Ni 0.36901766790235624 4.574768555029122 12.743674412724573 1.0363677184502862 0.11940974411960079 0.2695356863761358
Ni 8.501388490935128 4.462013363978016 7.400297685208122 0.8149710536732223 2.41777876669672 -0.7656590948119717
Ni 2.1298565834672156 1.378149085554758 0.9038677199605247 -0.8188619040871963 0.34461472689916134 0.7657382847893393
Ni 5.165022420512436 3.9055010949556364 9.601626887210863 2.605393192817016 -0.19092137900634215 -1.1804813930744702
Ni 0.6590525511947065 2.846179285976536 8.09614575544328 -1.0820497938684333 0.8566501785795635 1.722660458217788
Ni 8.330570491806945 0.1084828738013763 3.531628521087678 0.16932539800312127 0.6653973843757315 1.5064556220543088
Ni 0.8039042724930174 4.951201158158172 3.6671140084154277 0.7530365209519547 1.5442130433087404 2.3296405789968913
Ni 6.185887772429393 1.0484449523446266 3.608055944615405 -0.43319617278399586 -0.01841552639271022 -2.029232114301299
Ni 8.497457884374516 7.138709749966912 3.3161911352283275 -0.057360283087023796 -0.9430991515024274 0.6631463835580256
Ni 7.075567963341208 1.9464345015437226 1.362413588411632 -1.0652664037625073 0.47873555197669165 -0.05094975157498967
Ni 1.9667317430229894 1.4304326882612413 7.160947086560895 2.4491644800968526 -2.382641299563639 -0.9438499136255228
Ni 6.711020543470256 8.666940784362154 1.7858127385790687 0.5014327364638913 1.2872510798325572 -1.3513682220274406
Ni 8.778855703226906 6.0079087870019485 1.1133429078398112 1.0685358185423983 0.7883259402818681 0.2369564668885338
Ni 4.0299267330394395 4.0100683003686015 12.35972417443494 -0.558788905785857 -0.5590033357895082 -0.5205658577489164
Ni 5.9360561787110395 4.773735672400168 6.407324701699311 -1.9816343099176779 -0.9530395505445908 2.5769539636397165
Ni 6.73314771104425 0.777908118318744 11.26121860613462 1.6995518972247825 1.3506305725304675 -0.14181279440514932
Ni 3.497418239473911 5.326578752875467 8.80541203885875 0.9763376018405829 1.2472477999667424 -0.6364385352495362
Ni 7.745591668382413 4.463684571993098 5.2758869991442445 2.265177623426815 -1.216147479017512 -1.6490238065682437
Ni 3.383458658289031 7.937211072301672 7.769586107481637 1.3543093069336354 -1.3916610081092162 -0.5821851732226102
Ni 0.13653115938187915 1.7794257363270145 5.7719706270670805 0.657644737013506 0.32843554603613756 0.5868458119230732
P 7.697966908131382 3.837317675211807 9.163235413967342 -1.4784239127280732 -0.5576946442804137 1.7617054879353917
Ni 2.077078153806547 6.727676605475321 2.2126430001741184 -0.8890021125477077 -0.7478225808511831 0.7767798873154816
P 4.6791770423624435 1.566995591259049 11.42814614503998 1.0066825326810276 -0.47275799423701803 1.9746535077244702
Ni 9.160572684772363 0.4443443348659588 8.514545286101908 -1.6512220997711433 -0.15685606189151696 -0.7079362861792067
P 2.2362257059020303 0.5136042366440842 4.997509491983915 0.5212459145350765 0.7387023637174698 0.5010265021644081
P 2.335284460315563 8.59852395567767 1.2042239466085922 -0.06980905037333784 -0.9114401298362498 -0.02912057151504017
P 9.132264848449852 1.6589213684461974 1.335053392388177 0.7924301922582289 -0.6280796217618796 0.3800818094575196
Ni 6.155451246568118 5.8006229749859965 4.494306891371132 -0.3634940803021675 1.9139279077096396 -1.7652242997219278
