# total energy = -381164.84031095216 ev
CRYSTAL
PRIMVEC
9.26845637631292 0.00000000000000 0.00000000000000

0.00000000000000 9.26845637631292 0.00000000000000

0.00000000000000 0.00000000000000 13.56532277667133

PRIMCOORD
 96 1
Ni 0.4022917825732931 8.996844142183344 8.898851534760764 -1.1130117894675862 -0.16796425598953654 -0.3234987708561526
Ni 5.102859811381275 2.800241613793504 1.951710736479268 -0.13626332534182983 0.27839519364929477 0.039997623438860146
Ni 7.1837950723177375 5.078669140561812 9.58796959875724 0.424222765640792 -0.9469853739307111 0.20792794086666772
Ni 1.112993300645357 6.28703485604712 12.73584412806518 2.3885170416181256 2.2562191286819466 1.0175007063424542
Ni 0.016690636019804125 4.617989790979213 13.531531828900455 -0.39776585700084405 -1.429392975442351 0.8398639602601601
Ni 1.3065001302885546 8.168726112919984 6.712460705427072 -0.2889613992009153 -1.156201180370867 0.2523578890452686
Ni 5.0379806176126 3.040600489793937 13.245574001828146 0.6345554592942104 0.8716204267361505 -0.9412618411833724
Ni 5.676883112477748 6.8680836469831155 8.80972791312636 -0.4653457609333469 -0.11445934209286093 0.3066271919117945
Ni 1.3069542846449353 8.613565670766773 2.9020426298903055 -0.7337234224456396 -3.7372905063351958 1.2448407331871463
Ni 0.9011794162118898 4.307320405846042 6.461827745670556 0.9945317562511067 -1.8530053611926538 1.2477987873742058
Ni 6.8544126740104305 2.6519648506633247 5.179348673452041 -0.6219534542594837 1.0826033523790581 -0.13704314093064784
Ni 3.260883889551092 4.12092248214864 5.61506714350058 0.13525519579228965 0.31979509675232026 -0.3129042831697579
Ni 3.358378780872904 5.867108908607501 7.363257410201268 1.4949424792083867 -0.10023882761810478 -1.7769680705214173
Ni 7.424895424818385 3.322593271281354 0.16318229447571933 -0.6577236698805576 -1.0107068233490724 0.657192737077752
Ni 4.243201225490086 0.403239945647941 0.9953163458333605 -0.5664993870562373 1.298271599312777 -0.9399230677672911
Ni 3.227582326235257 0.15356071003982494 7.358672304893073 -0.05287859316658635 -0.6832441827491652 0.10449297490876844
Ni 3.4398763167026125 4.422286337204133 9.647657530178796 -0.20718026406736578 0.1654967682856505 -0.7413896807416457
Ni 5.953240672563543 0.5699998642371902 5.349810413468606 0.4592445331316155 -1.9176089561056524 0.733042337218215
Ni 1.7367696749061508 6.103537959156803 8.730573443037327 -2.653200799218598 -0.07635430769102333 0.6369830948990965
Ni 2.339080304485766 5.078678409018065 1.222258204562432 -0.7207514356660039 0.17473242795130553 -0.14507141055176304
Ni 6.380924317886644 6.188622387556293 12.868187488051397 -0.672038800951649 0.3291505698252912 -0.8261396686955321
Ni 4.492522698686849 5.48486850429123 2.134937921292632 1.2516253602091476 -0.756332418094407 -0.41229258986210926
Ni 7.7384102260211245 2.100584388192119 9.388627349057362 3.023513702214812 -1.5425829639044852 1.4714909330536659
Ni 5.20759336703642 4.477331698888727 7.900064152060779 -0.19762733027160803 -0.02577093831651691 0.3214166915161432
P 1.1393527902279441 7.443246968198667 1.1383323331945252 0.2527402120853518 -0.41728027288468783 -1.2541956920394852
Ni 6.233694890313017 1.155757957795166 0.43256163384888074 1.4072660616363248 0.2806032570442071 0.7704601157450408
P 3.084162234181476 3.0610281673748165 0.5568377295127767 1.2801252674210535 0.3452737006393989 1.7251626558143514
Ni 3.8244431035383033 6.028426389685184 13.338605204618675 1.1624132227188497 -0.19795360326277522 -0.6930668252665418
P 0.30225177316449825 1.299066828373915 10.626096944021674 0.31566410530308214 -2.1360115712513985 0.1823097260779312
P 4.4615197125216755 1.6247418441801553 6.4717032858077745 -0.31787525402178807 1.5137552410395156 0.7526140887025554
P 5.31292937234799 7.989131236112041 13.147591589707444 -2.4561257419060345 0.9606775267058228 0.9545179348623303
Ni 8.405127358100529 4.978764450614306 4.825945217074694 -1.0705101686599499 -0.32288453431092135 0.40541334624377273
Ni 8.754854017882442 1.4372965849262023 13.156125057379274 1.1969899322524546 -0.36658480341234934 0.671828741823372
Ni 0.2577335240916844 8.613843724454354 12.212344108847622 0.2728536950057752 -0.6001810955793986 -0.5121285256148406
Ni 7.313979808842709 8.706370723224737 12.98208198586668 -0.08034388846639066 -0.26801847840066095 -0.4052590800540956
Ni 9.262950789653688 7.106023455901602 4.758280852202093 1.4544046669953405 0.25963282544012706 0.005030363335055852
Ni 3.2529964332800714 4.003342846127296 11.958795292754017 0.8238387884764973 2.095697187903068 0.48446705514383015
Ni 6.429945183007004 7.872784304772302 1.890164479579053 0.18336567814627128 -0.6271563386166619 -2.1215647996984495
Ni 4.574604147260475 7.476696826814545 5.9309491084302515 0.3917844426064285 0.39779953845225685 0.3498443507292168
Ni 3.5817022342809346 6.301521453170039 4.029049836389696 -0.8847356239618699 -0.17327461245885642 1.0545392471529902
Ni 6.995636141932329 1.66696893086731 11.758883032994602 -1.989266886762271 0.21946885162673171 -0.5727109151835877
Ni 6.8456261774829015 5.350355398696262 1.2417210358474091 -0.9141235902056838 -1.465978744986185 2.3049597884207595
Ni 1.2046397960717359 2.9290638872493333 1.9529313921677443 -1.0406887144231434 -0.10259215834162977 -0.7302046106591037
Ni 6.57112230864764 4.131989018914325 3.3588959607318034 0.255993686025643 0.1722932223821936 -0.31051032901628456
Ni 2.476448094606555 2.8485673446949136 7.795990510490824 -0.24565193778000274 1.0005555938476831 1.0394165325789388
Ni 4.056293536698788 1.8388246467042755 11.528788045448373 1.190376026480363 0.5806052303300001 -0.4832887185650128
Ni 8.234420930838892 0.3887913491956572 1.9439104036970227 0.28264856960901 -1.6134302257343502 -1.2070627431074243
Ni 1.9977323291562648 2.719049937020134 10.54929017390144 -0.8168019362343738 0.5258175930661589 -1.1817139799299907
Ni 3.715149467406845 7.80805340630367 1.8895407124732482 -1.9820037774419546 -2.28124316153011 -0.5133217745919934
Ni 1.0325431003722008 4.924321538586135 10.987883719079557 0.4779217978261446 -0.4876822196470182 -1.2493599612137387
Ni 8.035362295900347 8.481443826884995 6.116780729450615 -0.9605677406008359 0.4041558196875878 0.8130949196964319
Ni 3.18937774956176 3.4677929069356472 3.123388194734016 -0.47355760732017804 0.7515967031816345 -0.32042733101968046
Ni 5.664491186467931 3.393255981751693 9.989801665900401 0.525110025476173 -0.6352766537309511 1.7860402080260147
Ni 2.844683861525046 8.018428826326723 12.807074994903806 0.6791445587584949 0.5149518539962487 1.0000742833358904
Ni 1.504483624301791 2.900581921184885 12.86630135720398 -2.037620852585626 -0.7535805663808829 -0.05137244093470507
Ni 6.663028320849094 6.636780052741538 4.620973307046946 0.21591944371257651 1.0617645612568358 -2.526436414506139
P 0.9098213248218773 1.3925948204195855 7.274187545613131 0.9632095490990573 -2.2160363858154737 1.6342654173121465
Ni 6.661081945036033 6.4101848342763175 6.807987903486444 1.352509534720735 1.496162724768733 1.9123983584389903
P 5.931710048688596 0.8901258552849582 9.961844294459855 -1.3399170427677052 0.45484280451949405 0.48144729448089985
Ni 1.3292727273013594 5.0084513159916 3.4075683318970627 -0.6929637240297744 0.8355805023934576 0.5968106364452689
P 1.7696726946031212 6.080691214493977 5.752022487318126 0.6721796974048875 0.7687181933532696 -0.7417167250637613
P 8.64322473077531 4.131840723614283 2.254095048568179 -0.6340916322839144 0.49205258080057196 0.35242959495788984
P 6.938023417865746 4.317673271480271 11.900586606950387 -0.04583865560066944 -0.13779827392911753 -0.981000554533891
Ni 9.286622426923001 3.938176330214789 8.895541769032937 0.48441254775681086 0.35266562222809583 -0.8641503436113503
Ni 7.4118361699583755 4.22118864189 7.063178163182395 0.6382131106514557 -0.11136836187236304 0.021715537300220668
Ni 8.176502347715973 7.011346175280601 9.080911820931917 0.793704430984962 0.41550441193118764 -0.5625131487149796
Ni 8.973737880745444 5.9623608335161675 7.15302194386763 -0.13812506114091694 2.108431604750601 0.1707392476315124
Ni 2.3192643450175625 0.7587223167627607 9.454012600537434 -0.26278654057776035 -0.012166717269520982 -0.20671515150548916
Ni 8.30976421171683 6.736944259464119 0.3346061002513109 2.1083907242103366 1.8174503469061798 0.10548542072902477
Ni 8.338042271743719 1.9779812488818294 3.4200890894487914 -0.3883939288676408 1.0227501276668514 -0.29803276537456413
Ni 2.836166150228844 8.696740797178215 4.847486963097145 0.27596215872776986 0.32507639975591757 -0.4275227765483024
Ni 3.9270356457990827 9.013138088275534 10.750246988680532 0.41613073266127687 -1.1031991742525387 -0.6560437110749733
Ni 6.3444066002511335 2.3537430022774863 7.9925661259992795 -3.405139716231 -0.41970816559989005 -4.297468579159095
Ni 8.415897304266128 2.1686055886304474 6.7288343602430345 -0.15347994633043244 -0.15382550259530925 -0.012708705815920047
Ni 8.698019844141083 3.1325899181016648 11.094927900878494 0.827717297595297 2.5715003967243133 1.9454424333781526
Ni 8.427084330963098 6.49760491365148 2.633680040168062 0.5486423042701584 -0.39297563470105223 0.29778233992665487
Ni 5.023660852702228 8.271559635043333 3.5565698883062007 -0.3540959269167192 0.24795564621251492 2.40837341422242
Ni 5.1919482128819165 5.381840344586575 11.052170658493687 -1.2224741925664881 0.4033397515441957 -0.06412974060037342
Ni 7.562457852520479 8.866418425795803 10.317418423291576 1.6925752087966335 1.19430518633144 0.3353731536962353
Ni 5.7998755269506495 7.749245051380494 10.984669418451132 -0.19986444713224288 -0.9758526917843645 0.8281579846771414
Ni 4.237037702082062 1.9645327188592088 9.02141389286354 -0.09603378839782171 -0.6417612330140302 -0.6855437774166193
Ni 0.42282975478357965 3.1631480183667104 4.6305772814159605 1.1896733439863836 -1.0815833957549759 -0.6732978701697307
Ni 6.132131146696284 1.004357724907838 2.998342817201149 0.2764046455818272 -0.12272055366038866 -0.26744049441000395
Ni 8.396655989085591 6.449705531737692 11.496040735816447 -1.351417330097821 -0.11192834814089112 -0.6481589090102579
Ni 2.9035478271857387 6.703920749835864 10.65938645834438 0.7718431121354965 -0.5875441235416784 2.1470554877703862
Ni 2.1602639780030466 1.9364214910448672 5.718814535410442 1.8153379285488669 -0.3938459531211475 -2.0642327987461995
Ni 5.590491831746632 5.052003791922886 5.595790608186282 -2.313260594976971 -3.319657220986463 -1.1334608013505578
Ni 1.3959963438643148 0.5416828766940396 0.9437207035660096 0.5254864349789853 0.11311105559508261 -1.4034268903958926
P 3.6222980726676193 7.4909609809874 8.860040801048344 -0.35409387003419013 1.4321571684510497 -0.8187824569995124
Ni 2.112624112864334 0.7015952598038178 11.976253356951542 -0.8053340448040904 1.1450019692209379 0.016631695019410066
P 6.086066919120524 8.500249524621658 7.243597005751201 0.43289586793475765 -0.3370392285447486 -0.20521876946562073
Ni 4.5083439535101535 2.1860210179292103 4.395001855687529 0.2610929549254213 0.09335984111008437 0.20075919103237036
P 0.8361370976131683 7.288213500460293 10.433238906316163 -1.0037568743938003 -0.0441052178493305 -0.159447476767777
P 7.5453297453655495 8.333750976498733 3.7352388463345023 0.5692715504847357 1.7052849430538177 -0.12076034461022428
P 1.8122056403466138 1.224668930033751 3.0840222804920603 0.5960272213120251 2.4769195387229344 1.534996924027111
Ni 0.5475034672207149 0.3764364970108511 4.961218336082381 -0.8707825042158873 0.7972803212616785 -0.390281889918973
