# total energy = -340890.7978358831 ev
CRYSTAL
PRIMVEC
9.09988136208057 0.00000000000000 0.00000000000000

0.00000000000000 9.09988136208057 0.00000000000000

0.00000000000000 0.00000000000000 13.31859620351245

PRIMCOORD
 96 1
Ni 6.675927909961448 2.335939596753537 11.27612278647037 0.07987260525692695 -0.8380371914640664 0.6141059331906069
Ni 4.82027096212515 0.45740099673166407 6.0020653005696545 0.20926105785579446 1.2831468278561966 -0.09737898957180648
Ni 2.819716600190266 1.7058728973393642 4.63974660172641 1.5477202851310505 0.028351554559499562 1.8829186038123185
Ni 3.8663576777118926 4.803126785263897 4.975041747717608 -0.24449185603363052 0.07337131380329943 -0.8035394147975129
Ni 3.8004108360380595 2.6618700546301306 2.6439278181559622 0.6628846452562067 0.29463659520882163 -0.22872533722799315
Ni 5.267202545120682 4.536418356587428 2.8281503704211626 -0.31093327548631616 0.896876630199778 -0.4321070534848752
Ni 5.5690001170970405 3.027858191139014 0.4885744609957801 -1.2622879821293163 0.3489555203663603 -0.822292784145616
Ni 5.89994460971384 8.12039760957451 12.351053575789377 -0.2956305836909747 0.13267740776278442 0.18669628518140105
Ni 1.9854576584248946 6.846714487101575 13.565123374155057 -0.19355881662918922 0.46972434961701687 -1.6095216347085635
Ni 0.8172831127129998 0.27537333589901886 0.31654302005808527 0.1472329369794561 0.2722515426454021 -0.1997384630773399
Ni 8.156451340319885 9.38862080311074 6.849061346556202 0.20021514560344228 0.11017639844679092 -0.017764265961956505
Ni 9.054327554079428 2.450343307740625 1.4701595752484131 -0.21070010429516614 0.8681625500945371 -0.14453816375611234
Ni 7.038812986857972 0.9868730554278315 4.8249546711646865 1.0444119289110014 0.36870699196167467 -0.5507642357091675
Ni 1.0705919657906384 7.4702656713179465 2.2803966496685955 -0.1495171050279425 0.9701497278623162 0.3995368328583377
Ni 7.890825797549195 4.288701380729131 3.5495261914083183 -0.12688805477451695 -0.6675254864623278 0.10406257223956916
Ni 7.741824336866522 4.114202051912046 12.715889667292615 0.11685072514317295 0.09350073756332285 -0.1838163925304447
Ni 8.631082962787632 7.097307025533203 9.384190070778603 -1.0416212535397416 0.2644518440953252 -1.4661080714751975
Ni 7.001730969496186 0.977627575761678 0.18222876821514716 0.6613653803982028 -0.412071989210871 0.476246981226883
Ni 2.1972119023534296 6.5013830817365585 8.94495607759567 0.2627325474113733 0.46869025192554764 0.29826467887971214
Ni 0.5114770429089446 5.109865592927973 1.1187676487636533 -0.23883465774785317 -0.46094454654185774 1.30969038267268
Ni 6.51022816661402 2.2373241802750874 6.943703754745043 0.15909729251720986 0.02064878659860315 0.4989842749233988
Ni 3.1613170541152016 4.76341490213093 0.032962500979043 1.3688373253464814 -1.0068005463161305 0.5672704608943069
Ni 6.205227436328128 6.038836101982049 4.56280437316221 0.6870481298762877 -0.5869877368175762 0.6335959235944185
Ni 5.594843780730776 3.267767468617823 9.127354103607855 1.1046518475386653 -1.7992361378909982 0.17610154038469025
P 0.2661278562328654 5.746411408013701 12.366862800025604 0.1407193042306544 1.0088674561474882 -0.6191234410098563
P 4.093445222071006 6.611063954193396 12.516190946456325 1.0372380368703813 -0.6719503550029008 -0.0057258467401836875
P 2.6813984004604112 8.85138199550211 1.2527561248467012 0.196729501047687 -0.20209462201434225 -0.17945580156890387
P 6.794299169309209 8.010980633682946 5.830135778305445 -0.5010367865770533 -0.7419429821419544 -0.4358683202995203
P 5.0014314042450145 1.2191293325136927 12.615987527561416 0.49961110987412016 -0.13357986497239574 -1.0184291316939944
P 4.2100238047512155 6.477049998441976 7.950256214037071 -0.38303986364457904 0.3210724208028471 0.6252295539075942
P 5.126600275118973 1.2473207655902117 3.7919643259729776 -1.1733406682646308 -0.3208559339166668 0.286197720412849
P 0.35213902676093223 5.723607104821397 3.3972678831149 1.2992483614037496 0.8533496534514207 -0.04121452656509676
Ni 1.1282215157175577 -0.006753932094703838 4.483612653876087 -0.3613274116681519 0.17270845554274128 0.23933962240872975
Ni 2.1816420050022596 6.749291155107639 4.418164485711807 -0.6588289871295945 0.5949414444470141 1.1013423235494582
Ni 5.985592694967616 5.5807753638372 9.171025345208086 0.2305168819107772 2.1294845687661583 -0.2423861225445374
Ni -0.13204292140526888 2.5948676266952013 10.258022577477211 -0.137823213629782 0.4651701545874311 -0.42796114963730164
Ni 2.4180205284353327 5.732634187330083 6.661522797450109 0.2653283331630075 0.08126871427350521 0.5307474262676085
Ni 1.0199602247842627 8.764305228843229 8.685069830125613 -0.6887476290658977 0.8124734840623491 0.6837254932609579
Ni 1.4423039278015013 1.1806277336283626 11.45330021043091 0.7875111576900566 1.2928792246526122 0.5066055389140824
Ni 4.081897472369876 7.180043148687403 1.4116646265850261 1.069942469081938 0.7515339682644993 -0.44745165426174555
Ni 5.8122490511088 8.232717447684088 7.934647187195188 0.20600758391550325 -0.5939991351384029 -0.0193434375236183
Ni 5.526794866416312 3.169088352968445 4.883822714972082 -0.8475261047911082 -0.7543200156500687 -0.41808785638764767
Ni 0.5518623172774377 7.658160025793081 6.473357266504451 0.9485779152288114 -0.7765955392188174 0.20605694909619998
Ni 5.073265869288928 4.720590859504043 7.175446798510854 0.4281007605389595 -0.7712458448711298 -1.490820486620213
Ni 1.0460768848648339 7.457180041632978 11.094350832309594 0.34254113219958426 0.3712251303978381 0.6699526078465816
Ni 4.926603078167475 0.5568263026690585 10.272673386790704 -0.15160664056711956 0.5291456289981274 0.23726191394409463
Ni 8.532440246664498 7.579245852894575 4.3019862978202905 -1.4130577286174373 -0.4924708992849131 0.29574371223007134
Ni 7.190380614140898 6.060994313583509 7.066035282548226 0.7702058336423896 0.5825721242483838 -0.7732993849660488
Ni 2.725323528756201 5.546286812720348 2.4730902816790934 -1.8894795448592878 -2.5233786015164217 -1.341100264442529
Ni 2.8462154552964067 5.633836773220409 11.115021213275803 -0.7170971267428683 -0.9447508281732375 -0.0873984813203269
Ni 1.442713422471754 3.3049313849136603 3.701650731442787 -1.4352874865499152 1.0965415597267052 -1.0807729840385387
Ni 1.8472850568000185 1.1664137186298076 2.5666534439147792 -0.6018299440367313 0.5490824771313704 -1.2291904282443993
Ni 1.2432440186508054 3.774485273470273 7.816923839414584 -0.09340637807730365 -0.6558246530856318 0.0805133241647194
Ni 3.6563233113984204 2.747290642844877 6.817749564092356 0.27279147430927214 0.1056250316306826 0.34028010407954945
Ni 4.378826607711005 7.26523623986312 5.692421810711252 -0.27547287779617724 -0.6034070587158641 0.6758903134872553
Ni 8.492364368269087 7.606099603381601 13.23923113578102 -0.8992078494361158 -0.22987667722361704 0.06889887985424263
P 0.3848512809970429 5.845117823307763 7.819267968904742 -0.3200738043350036 0.060292883352786486 0.22114289689504496
P 9.035063104814421 1.8045702127518648 8.122732639183107 0.02818494707464823 0.8785107260980806 0.2644230477399188
P 2.182333596000909 3.302046722458768 10.752449172304983 -0.19135281011680594 0.48843580998359104 -1.168730423186129
P 4.204409177827971 6.485685786043531 3.4729970974669957 2.280929744054749 0.48914646289737046 2.0265142011495034
P 7.122522797339218 4.276416540621546 10.43063186089404 1.8519864330098361 -0.4067891435453768 -0.39240767801272414
P 6.6434686324327386 8.096828916331068 10.065156047717052 0.19008345648607908 -0.7608431614805671 0.6500278438981966
P 2.706559572977059 8.805427593618179 5.933447643657617 0.5473711508672185 -1.5504590242184522 -0.9420228877191132
P 6.9510537290820045 4.316956512976579 1.4512873308786929 1.2278897071551047 0.16426083899602031 1.2275840029892275
Ni 3.1389404453562735 1.9099104417040227 0.22541680610448214 -0.8945742073188465 -0.21751661299636732 0.20599781372349038
Ni 1.6771354713691746 1.1929125737359485 6.888937937545426 -1.069756578323377 1.0105494718356014 -0.4357428504652496
Ni 7.279222757822646 0.7698035706794149 9.094910295877797 -0.32651698885718605 1.5679970331022157 -0.7802267082135015
Ni 2.458232905054164 1.7228168768062715 9.044472382348674 0.5929388121946886 0.8428143011377356 1.3448718156698194
Ni 6.511301952638238 2.406081483827071 2.6544227115604646 1.2007085187546225 -0.5921703094597801 -0.5521215210680104
Ni 4.531904815333085 7.249966638603469 10.275083945416258 -0.21083740120397884 -0.06791363312283787 -0.09055476756112146
Ni 7.457052643291121 6.4028404643105965 11.250538469461128 -0.14699870948146296 -0.8181612784757458 0.8065802585063657
Ni 7.801828955880907 3.99485710523724 8.273418487942754 0.9047326359090869 -0.4624141891088488 -0.024137773588468105
Ni 3.276257658114399 8.611199721576465 12.256611364994882 0.6795752185380103 0.5610339930662919 1.1914242652392193
Ni 0.6434826547998127 4.953274831023278 10.080778724381275 -0.27955373273377015 -0.04143666987823186 0.5994825268504772
Ni 9.006798872685412 2.6942110336985445 5.731111777144898 -0.418698236278137 -0.04989302817570117 -0.177872516242184
Ni 4.201342517741854 2.7936636392806227 11.318329857127411 -0.36004237430814123 0.3202175290017195 -0.054629257309105915
Ni 1.101467863927704 3.688363994375316 12.624737973670642 0.3164362075824163 -0.7689953582740563 -0.4624689536061841
Ni 3.4029189095643892 8.623966855406794 8.189219103833517 0.3454122830997922 0.21274773085281426 -0.3124142309072168
Ni 5.954098004884391 8.248860637573612 3.615719639872459 0.16290406785780975 -0.2187905946127845 -0.5273255450702531
Ni 3.556552209961701 8.715629962372507 3.5144443280136777 -0.2508872180370131 -0.3967867809170263 -0.12969209988221533
Ni 3.6159107373852435 4.167545557623652 9.19482608543134 -1.9603861991721787 0.829398799062778 -0.019915765087320538
Ni 5.423447511526052 4.954084720482223 11.461238037116722 -1.6036854876427606 -0.10516608971639306 0.7091503610919658
Ni 8.336774593336122 9.103612512614749 2.225444284896974 -0.6094239543339053 -0.6153030388225017 -0.2318206883238653
Ni 4.915983516385585 0.48946624938877525 1.4618495634067483 -0.3792156048024824 0.40495389010885097 0.41124795064767883
Ni 5.946217507452413 5.84742009334274 0.3740870310983294 -0.0622237818269122 1.059939078012323 -0.14461786795411222
Ni 8.351825797438304 9.380339910890072 11.084082525955964 -0.26041521213210633 -1.1518215632459325 1.2494751466353642
Ni 0.238600714510312 5.332375896861816 5.551204388716006 -0.6679656593235399 -0.9892280846500059 -0.004002950511806009
Ni 7.827153926265656 6.4921285021888435 2.066460254141691 -0.9715538072986944 -0.5795968436701437 0.579775535339853
P 8.89446083481271 1.560138294137152 3.511101941516258 -0.45309034060476167 1.2715580945773326 1.5322461007548513
P 2.1210458936863974 3.49495511167411 1.5267635685233878 -0.3526949328041345 -0.40928028539834677 -0.4244690773236432
P 4.775399446146998 1.4622690679467185 8.25679755427127 0.21008406797772206 -0.6285804726576981 -0.8307239456321048
P 8.711616914604027 1.9930651594100368 12.575032600607194 -0.5156403954228409 -0.7579820378826881 -0.5182258967618302
P 6.476249208864593 8.06375994673776 1.3966680217722103 0.6445097422934448 -0.44634170902701836 -1.1120872207707881
P 2.0570737263113394 3.7632287199791 5.697323006920101 -0.1375463058193115 -0.39076654286487544 0.5204753549176392
P 7.13718270653427 4.128570764897141 5.787742160076401 0.8013598906476909 0.9819284656647992 0.839893785056831
P 2.598234582872836 8.956239930731526 10.314333554565916 0.013355595371299578 -1.2120738231687707 -2.3254381108797695
