# total energy = -340858.07924262393 ev
CRYSTAL
PRIMVEC
9.34598236723896 0.00000000000000 0.00000000000000
0.00000000000000 9.34598236723896 0.00000000000000
0.00000000000000 0.00000000000000 13.67878990083112
PRIMCOORD
 96 1
Ni 5.049765081103107 6.123898826982689 4.176695190862661 1.5151611202481068 0.040264246836685495 -0.7219791374255179
Ni 0.971524206194452 7.97111353685485 10.84277968529152 -0.22347565879327963 -0.4397067202090041 0.6202336433548995
Ni 7.749052997377787 3.2918886160483387 8.519738586106563 -1.6124745466893005 -1.5813217752355797 -1.5012398821813242
Ni 0.9445703932377243 0.8543975522008326 10.129143841725872 0.11027178637407462 0.03274711252403392 -0.15725252599898726
Ni 6.083617643264417 8.441113640801063 12.86799330108163 -0.3752627908023215 0.9291524595143482 0.2874300501580534
Ni 2.2518116296744144 5.8566504630792116 0.8758353664033783 1.1245349596158374 -2.6981619373103207 -0.5455801204050669
Ni 8.073909996186003 5.607421153052493 7.579869221966354 0.1316253123491862 0.244978565862062 0.2986932817766985
Ni 0.3251841081887597 6.714256491004054 1.6693728164568757 -0.08868094757717629 2.699752935946525 0.3951407606731711
Ni 7.4083452125866955 1.3293912144905893 7.2274069952350155 -0.23595270821436784 -0.40737226974235646 1.3475686457756921
Ni 0.14526086451499157 6.253022918456389 13.126522798096294 0.4871343175633482 -1.08938926495264 0.1173855146007204
Ni 7.097563263124121 3.4072273836277343 5.828463915056953 -1.0902796379773934 -0.553720233013698 2.3571269573426177
Ni 2.2730924313742995 6.218545589747176 12.00919752960984 0.7847523639979969 -0.24855779857288807 0.6748387322942894
Ni 6.157123794063538 4.489847281436826 0.7052048329317164 1.348457990359181 -4.924532100951635 -0.8498388120846848
Ni 6.285603012758452 6.501121364624659 0.367278412473469 -1.0652561193498622 4.354988013531803 1.4842184079226632
Ni 7.212416039623853 7.245117631695833 2.5480026315683197 -1.9940892478515788 1.1977774611507566 0.6375945032308503
Ni 3.1556709240080107 7.428691416056458 4.866188492947791 1.8614907729558454 0.6149780513829151 -2.557326419216776
Ni 1.5861627322343952 5.4529601035601765 7.7463258397422905 -1.6808340091003051 0.34593935924785585 -0.20899366312702072
Ni 8.103630219903895 2.3531874996957827 10.703132952344873 0.3123710363741072 1.7516717578484737 -1.1914808295087673
Ni 6.623422889018466 7.40218621025019 9.005609102598484 -0.06457094190285009 -1.297199963515153 -1.903543993372154
Ni 3.6922891897973424 0.7752501664846938 9.95409639701865 1.1332880232181193 1.1536894696926068 -0.6872700160791066
Ni 3.000518271825404 9.24969064557369 12.12273158800687 0.11582151254771021 0.5809597854559414 -0.32010620023483577
Ni 8.777540965698194 3.509360278215501 4.448246445017621 1.9702841750121811 0.041888669813985924 -2.8241773596718978
Ni 2.0659761175968927 7.811857998442007 6.589825017243799 -0.35971970086139987 0.953495407135087 1.7330502860925445
Ni 7.578143019035319 5.014381192110677 9.89326713661291 1.2773819003479612 1.7156076651360646 2.7885207868105524
P 0.3599866770820546 -0.016215279292622238 12.95503149965469 0.5510154324880252 -0.2189687720618616 -0.7008567536246059
P 3.3445812642626347 1.2762686510904366 0.09639633065127624 -1.1809637320275275 -2.9688528203368225 -0.8979413240188665
P 8.38569196575481 1.3700275455363076 3.4370971430624433 -1.1819656909294805 2.4435466196894433 1.1984089240871685
P 5.215095508011745 8.179099026986272 3.4917029138538003 0.3665053563246656 0.4351142157423152 -0.6539351493724028
P 4.846069396847947 2.908628573839778 2.5784518419057045 -0.4659651396849007 0.44067962564523455 -0.9004180676941331
P 5.90912815370058 1.5070770300014447 5.832608858207545 -1.0518951246619237 -1.7623942864723001 -3.423110441776808
P 0.30995483002891655 6.030476387899662 9.953686108395628 0.09762941501971573 0.6976675572633468 -0.4188705001899431
P 0.7061730766981231 4.972810262834836 2.6010906148339576 1.1572489049090908 -1.7577868696072758 1.5820517114230688
Ni 2.237502930771242 2.8778522541218496 9.840822156929596 0.5863768427064546 0.5073550154855972 0.3061337972151437
Ni 3.539631914889163 0.26669414715301465 2.998773376929766 0.7300266903203426 1.3566778071658119 -1.5421427910432732
Ni 8.072405293035507 7.241715694138187 11.683819959587444 -0.7444346382155567 0.13822764815705227 -1.3621660839738927
Ni 8.644435485764173 6.02228930740379 3.8934352900807285 -1.7090415818827727 -0.9816914099533286 0.6811659600638978
Ni 2.705129155212944 5.420249165505896 3.390739201651916 -0.3418281652929597 -0.8071682697993519 1.123955947183916
Ni 8.458525205828241 3.1172682827322844 12.92157288301631 -0.6734426232777112 0.3270481787703077 0.6018384286771635
Ni 5.371472483875812 8.233604795767006 5.777756353483436 -0.09839637509272732 -2.491247782420148 1.0459466203879728
Ni 1.933459434547849 8.053049763689673 0.1337223147659014 -0.7918789477404491 0.7359841934553584 -0.13238738732619135
Ni 2.3871881833076323 2.626660287811874 5.5294588378921485 -0.1421732630683616 -0.27052247576943733 -0.44788694202695123
Ni 0.5081158235652916 1.6669494032461682 7.842870771512156 1.039393135540171 -1.551698295942192 1.6218089367163488
Ni 7.934580092039369 5.166131906735637 1.904976618886641 0.02264113443828359 -1.501921224519065 -0.9659845407410331
Ni 6.484261212553253 4.012211509950514 3.7259926711720137 0.1839842855668767 1.0804770500646748 -1.8405810193863719
Ni 3.724420676948948 5.444287031984643 5.85777758854474 -1.5633880735752945 -2.3507917591532097 -2.1060217097575276
Ni 0.8444852033721553 1.3216620871274778 1.0616260177658545 0.12711636873523915 -0.8620201846422251 0.28923316480506317
Ni 5.942409196675236 1.2618197624527454 11.418643599960149 -0.3083655147591399 -0.6900745754074373 -1.2706579513605665
Ni 8.920786836429043 8.904356599543492 2.7634163084327525 0.016264798598294567 -1.969417199026195 0.1614295401948123
Ni 5.069746791263123 2.3101866351278546 13.622665483735489 1.2700588843239868 0.8566391228359699 1.218942782374462
Ni 3.1533718123619097 2.006030987116847 7.697493082218399 -1.451042435391327 -1.1822541687041768 0.7074853146847171
Ni 3.8693488244940157 2.4222356169372197 11.597712620851587 -0.9959836582062845 0.49097014636967057 0.758045801241088
Ni 9.166174947729958 6.99395370333276 5.932983773524453 0.4587506242143325 -0.01758634562319552 0.4378370139901169
Ni 5.901941093310939 4.665327445124593 8.434642482655697 -2.2080006599951907 0.2254392102775537 0.666060471881027
Ni 2.6266229038826694 2.7489991961348856 3.093034150625213 0.6527110471573146 0.7584157829859971 -0.5191885177854155
Ni 8.316942919947012 8.219240020970025 0.6965130693915789 -1.477473375889346 0.9515804495005612 -2.7060786210542362
Ni 5.921717191860328 1.1581354348029755 3.5103331949730583 -0.120747746204734 -0.2008746335643121 1.1352178932509807
P 0.32459998429493325 3.3510580299973824 9.077983454940927 1.2789603005786747 0.6680741598769462 0.9097853678416462
P 4.546549356058347 4.213626774524175 10.646653312102123 -0.991553647459389 0.4016741909163147 -0.5831537077834666
P 3.25743932528603 4.221430669745696 7.589320813867582 0.9613233878199379 -1.4853226967304354 0.913648193231162
P 6.940176921171522 1.2987924684363845 13.357338653793144 0.6615988365652476 -0.38912849304082014 0.2625731390153736
P 7.434233583561084 5.491138441260674 12.733243862860823 1.0308992391365472 -2.4649150580628905 -1.147836096235623
P 8.159575269959015 8.631696911887607 6.796785253116776 0.5790391713944608 0.09127467644628152 1.989251717253619
P 5.966680712711513 1.9883110046737278 9.003215596531142 0.030988220851398244 -0.5346842994281695 0.6379701414027141
P 4.093886049280903 7.127461060505734 13.53029259846489 -0.5114803505078804 -0.5009241722585889 0.12488336563966235
Ni 9.315673280620326 3.654951990503956 6.710144258791516 0.5518834369152753 0.9672862902715922 1.2564037554343974
Ni 3.931237919292716 6.319547620476495 7.758609264280788 1.3570971540914176 2.060645595615574 1.915153295476308
Ni 4.118746362202157 4.6354389937252805 13.319448172347524 -0.14290936990343775 1.396297478439963 -1.9466997028240214
Ni 1.2970914996575618 0.8913637159968607 3.6826450706607106 -0.38447222521573143 1.5052191785440463 2.12730478750602
Ni 5.073756217670347 2.909432328317683 7.05508203517214 0.0910029108421336 0.975165950129985 1.4081397224905297
Ni 0.5093579046131241 7.739548133377443 8.306677292987349 -0.7074917424426204 0.015749549524772873 0.9145406231384443
Ni 4.391658391380175 9.081565769956985 7.754218521795674 -0.6625228910414138 0.06475297600666913 0.6175905493050976
Ni 3.9584066898423718 0.4246646129994396 5.124553500673956 -0.8403182741887592 2.3175401961889315 2.1417857547310146
Ni 8.153210656011883 0.3264261892365923 11.48902071588482 0.3551958448491173 -1.4062851857802943 1.2654316699646206
Ni 7.26878165888253 8.951600540076175 4.918236268383303 1.7054921739686177 1.2123795273346474 -1.4440433783656743
Ni 1.2690628987361934 1.996946692320058 12.341756552432495 0.48544304590385423 0.38753183797766166 -0.13732390539586026
Ni 0.6720069691995415 3.6865040267528855 0.9703980153271546 -1.844899701366384 0.11492548309600206 0.8001607281332671
Ni 2.9993780619846553 5.934717453241329 9.806762593629248 -0.58736337498944 -0.37855585973129646 0.3832599500751851
Ni 5.302723438068014 6.225657882278407 10.6919579613073 0.10753741816204707 -0.47512495180729786 0.4514862293424353
Ni 4.614700258998867 5.192104391550737 1.988718489502061 -1.175154581544918 0.05723507036306917 1.0238672719904303
Ni 6.201517209994348 3.7756086220127476 12.001947851138782 0.3807986330188861 0.30344390908780644 -0.3887734236942466
Ni 6.855408861699428 2.357944604687105 1.7033650886846545 1.1588496737373075 0.02019138734621039 -0.2459553279530345
Ni 1.1099475500578688 7.135872444576834 3.8988522214225174 1.7464089667876372 1.923382625364636 -0.349112871879831
Ni 3.293626968756366 7.558572532096558 2.0610788228710515 1.4832370178460006 -1.4908482545343549 0.2891524321657988
Ni 4.546988617226504 3.174876917637024 4.707610538251787 -0.4369080744179444 -0.22284445296718394 0.3698377631320082
Ni 9.180941599765891 1.526731630780917 5.8113102991412875 -0.18110696401908166 -1.6241509545859643 -3.7662475556891786
Ni 5.5501676654752 9.304308566142037 1.309210434907558 -0.11914312072177545 0.04689872143406761 0.5987191663218915
Ni 7.9596460165712495 -0.04252515406879564 9.159290697166877 0.42452821269635266 0.5706841145615462 -0.5011928525389433
Ni 2.776130582755337 3.0969594631917263 0.6772528690652181 0.471582228761362 0.9792532328254812 0.3839999135650032
P 1.665463392060274 8.92329155968577 2.1653117596819036 -0.15372368691012234 -1.4371371381641442 -0.46767672305936875
P 2.4928351672406595 8.614322730789633 9.325596844627764 -0.7592421355420342 -1.110365610093991 -0.9188431071685401
P 7.214509539659327 5.514269747456201 5.371181823826244 -0.06120253965124944 -0.2858087125045465 -0.23655254658189587
P 1.8360182230752962 0.5606879086079022 5.892535296722988 0.017589945167621315 -0.8429418278545353 0.9876304011455831
P 1.4393560422467813 4.498268011490228 5.477958737019489 0.41562062579407777 1.9315440781295055 -0.7651854976096628
P 1.341279303977745 4.314965260616337 12.762762213361006 0.6853784554833487 -0.06329284652137486 -0.621542077753678
P 6.001821606164111 6.289780666847099 7.036396612757306 -0.5977352051420673 1.5246101814761484 -0.08747818551832677
P 6.242144195057765 8.203557462668572 10.849031212852807 0.04205810551231467 1.8980899122361181 -1.0853058389118857
