# total energy = -381177.04736959154 ev
CRYSTAL
PRIMVEC
9.14962615521199 0.00000000000000 0.00000000000000
0.00000000000000 9.14962615521199 0.00000000000000
0.00000000000000 0.00000000000000 13.39140273654722
PRIMCOORD
 96 1
Ni 6.741746621642434 4.7683277647295315 7.965058982395673 0.09758904870008354 0.01696079622405466 -0.09589803415090581
Ni 8.067225539982784 6.683161564216428 1.7154387376459272 0.06690961733835574 -0.5428889467261488 0.07596658533430144
Ni 7.220967450588946 1.4051172659642692 11.059089304296712 -0.19466619076075506 -0.02988290360236144 -0.27628817460862093
Ni 2.088804794629499 1.4678288048675718 10.85659800890382 0.4416959827248909 -1.4408230716561639 1.0955995075284097
Ni 5.65597876366503 6.480204552843061 1.3039626570498608 0.023755193438068766 0.5638948595538547 -0.4931694680138345
Ni 1.3129713791397635 0.06942644967090321 7.511961251599559 -1.575561475713035 1.6669420816095615 0.06086521091648872
Ni 6.718524870003015 4.399341633872749 1.8367646127795099 -0.15187223552368037 -0.4103871453092803 -0.23879686253138227
Ni 4.679393396748775 8.460906512318997 8.25541139460017 1.1760493254450455 0.3748838101963479 0.4051204975937022
Ni 6.0136468067448385 6.785637379173678 6.8202952487698 -1.2669049120760374 0.6988145263835965 -0.6232832288145007
Ni 3.3311776569647864 1.3524154182719692 1.4937039481442775 0.3420343677664948 0.5820951846119653 1.926158131227244
Ni 1.9121255100915981 4.2680444959587716 12.790825356371377 -0.5940824388808285 1.1335590174913186 -0.8204037946530193
Ni 1.086728568742628 7.832363781577636 1.863614191260943 -0.23895215716232396 -0.2295257216421015 -0.003935073388348062
Ni 4.7878439177030865 7.532503077685321 4.900289165515463 -1.1043517997997434 0.4975038337231303 -1.7068060076840346
Ni 6.825053969426877 7.193262382045146 8.906850150283407 -0.27259349936585314 -0.4197891553494706 0.017264443507402527
Ni 7.149481420029928 1.199534311832622 6.4629456126864655 0.6849429106078269 0.09344134508029714 1.6502250259651965
Ni 0.11977135361918638 6.9637806039252546 4.1172000963416995 -0.8990826367121612 0.3901530776505926 0.018788850571728934
Ni 4.435949288840958 3.0035478371443216 12.108452629010552 -0.47336091792833956 -0.038259814812147006 -0.2068064256677148
Ni 6.408617876394354 6.1188858088554 3.50116856465146 1.4549312289227716 0.43816791496697444 0.2853492563696247
Ni 0.0860083174786732 4.887208859706277 2.9061756837569965 -1.777173501664004 -1.5994886759525937 2.3368535518055626
Ni 3.006311024297633 1.0760967029408133 8.71958474807537 0.27021522894166367 -1.1008227036005624 -0.8161805006002911
Ni 7.907354119023138 3.197995696025703 9.43432336363528 -0.2521285466432819 -2.4129049835441867 -0.8662061976991147
Ni 8.11177507061018 8.110338579275512 6.818594333234037 0.78121966825439 0.2749537720679136 2.363703839229187
Ni 4.5156059357175495 5.962125260849815 8.442783847436335 -0.33360166361810933 -1.1508782254960566 0.05415180345205513
Ni 2.090122340821807 1.9828521216647714 13.202168767385578 0.6064340184676459 -0.5179842130646691 -1.851903643488043
P 1.480793825384931 8.274418828349473 10.733369926455094 -0.8378163337025121 0.2927643178867732 0.21530237895386792
Ni 4.100514837756339 0.7379740916388333 12.666888177881651 -0.46054191178680043 0.4563191319547045 -1.3150560178599673
P 5.568307044118569 8.961189781089756 6.298003468811704 -0.8007775357816596 0.03768208793180607 0.6131471688217635
Ni 1.1278652887468956 6.946304817624509 6.522363286109 -0.6418445367564559 -0.3686229168883007 0.193648291019202
P 1.3254423198350074 5.645511591137255 1.6044373008692878 1.603700657151412 0.9662529639110713 -2.502450593114503
P 1.697850410941256 8.354029727094387 4.604459786986554 0.7673992174315301 0.46853932816998023 -0.3102079672845174
P 8.890527216900932 1.7381545149489956 7.847750708185995 0.08416429065374538 0.3172728445510988 -0.34123192646985745
Ni 3.9719168396113265 1.4981140680379732 6.421968096180436 1.3414216523376896 -0.05484960085002811 1.2159901275040415
Ni 0.929592886057288 3.4742869624778523 10.314513757256838 -0.3713655126304443 0.5165179129317878 -0.06537518297170031
Ni 1.1278835879995666 2.9155833295551252 1.5764897672275986 0.5033014142415139 -0.0031922816850525667 1.297226188767398
Ni 9.07817690341506 0.2752225900961667 12.193407824498014 0.3820011379674195 -1.5118138010424285 0.023037084325121613
Ni 5.277916203483463 6.530600694698822 10.618887056857806 0.7066859587118732 0.0025474490122020643 -0.4033801178638279
Ni 5.862879263988985 1.6014133493654152 2.1092267606102655 -0.8189452078296219 -0.31532214858263113 0.5865948722545317
Ni 6.535459146282957 1.1960025560671312 13.247968136970401 -0.23290517963729568 1.9549377744630976 -0.0941838796732765
Ni 4.777687832470716 7.492107477414225 12.695063537219093 0.6650646836266612 1.8002357828001059 -0.6051039868023128
Ni 2.6632549344755687 7.440622530024544 8.880816718471099 -1.4966558623550676 0.39869351102143596 -0.512619092098014
Ni 3.056725465406066 8.381213266937063 6.444384680702335 0.8673436537376675 -0.6755493852080688 -1.0673538824191555
Ni 0.998379776847342 4.717858425863086 5.318234946893339 0.0775825236711696 -0.11099735168618947 0.5050726472093238
Ni 5.658723651565672 4.045726875259553 10.037780563852685 -1.2768939049679493 0.19758413573849842 0.8597771542443192
Ni 1.9131594178675062 5.217180983868621 8.380005516260782 -0.42082608125441723 -1.1569275170139302 -0.3585760741752599
Ni 0.28859751387335486 6.824861827273833 13.000775427152941 0.6595573806551867 -0.3653822984638159 -0.10178997415530856
Ni 4.986884889004873 8.87665638337636 1.0165564245253842 0.609635299013763 -0.8193349870688729 1.27825530409185
Ni 3.0562313855839505 5.6151622805825046 6.453089635197899 1.145976417319065 0.5355201650659035 0.08913628994704004
Ni 8.978153188315716 0.4307982614913093 5.109021421031779 0.6126249777697061 -1.034568460458018 0.08351020200951423
Ni 0.16172513525521118 2.7476053396622544 4.114080073761305 -0.4782519274720538 0.31561653989459837 0.6556138226264063
Ni 4.695213100682801 5.346401156604446 12.551962466369728 -0.2834440689271119 -2.3979743303762833 0.4985075923972963
Ni 7.274813001573178 8.279725611624045 0.17231765766378335 0.49896216343621164 -1.0244154311844162 -0.2546736816626388
Ni 7.818374002910705 5.721727978511709 5.916054147362829 1.1522190557946672 0.7334269742511433 -0.49889505764370207
Ni 7.084683766322137 1.3211511450836724 4.218545932446519 0.08803920022811935 -0.5003050506173512 -1.6657148940706796
Ni 7.762652778527701 5.270788644568132 10.202803224439199 -0.742360015074715 1.4376233337719435 -0.23016361233641652
Ni 7.006125074605803 0.39073753754409296 8.788349679762218 0.009040512935713462 0.323087908570979 0.09518866678870704
Ni 3.271888078310949 4.165513783243509 1.3026716447739264 0.44983789510573496 -1.832460961382399 -0.10034835661277558
P 3.443791257901735 5.133690643557468 10.370958717082978 0.14653899623622504 0.3060597494440987 0.32464573997640217
Ni 1.8673746876848205 1.434277125095408 5.426022119938328 0.4653532171325146 0.24163741730397095 -0.795121880157779
P 5.219010909135715 3.160006447480837 0.7386173103702169 0.28656050306890646 -0.00014192489450298138 -0.15653955909236267
Ni 7.993882135277667 2.337674630954249 2.197770439546497 0.8201775375748261 -0.09701723535701355 -1.0054946830205134
P 7.520059585869083 4.252773769604874 4.36170007112863 -0.5209407245898319 -0.940319274764445 -0.5376978894435127
P 8.958710232352844 0.6706877395677963 0.8931325400730786 0.21629688165665328 0.12677646889731714 0.8499331715707039
P 5.739276961823138 8.339051788783225 2.959727531735861 0.10486038555051619 -0.2035033294364108 0.724988613675803
Ni 3.2335968920970117 6.462051694193491 0.9670642657515666 -0.6341988472857399 1.165368962913064 -0.9215579349965418
Ni 4.117185456939564 1.1133448317525065 3.9635202275232664 0.022831910292851 0.17904365373214973 0.15138269748177155
Ni 5.677068652368286 2.567467496369546 8.275310916917181 0.10341979644924769 -1.226462744900591 -0.2020177460298198
Ni 8.311593760150483 3.459812253615141 6.314421558308069 0.09037376189856694 -1.3327786319507111 0.9050136574846155
Ni 6.960395242181131 3.588483448770838 12.000344304081187 -0.31700673537390567 -0.11215820476351006 0.4408233503119504
Ni 9.14018392109053 0.9057745787807957 9.87826231846959 1.0170253093679322 0.16413151250700767 -0.7466524718024818
Ni 1.7882395695093516 3.0120112415046303 7.420363427392548 -0.5768046256369872 -0.7361320318871322 -0.03214033217797046
Ni 4.9462696977017275 3.5024495123384254 3.3254197971118757 -0.4273230018326705 -0.8857267842305455 -0.8331212422196878
Ni 0.9201413220527488 6.008641961139338 10.21478831997603 -0.10123487298278692 0.4159016473696063 1.9299834185106053
Ni 4.910906391915141 1.3126145437126802 10.250329128513524 -0.2829393613765514 0.691653489858783 -0.07233310234677219
Ni 8.008054906471308 7.640358872927825 10.92818834520306 -0.5396071906510835 0.3034202549387226 0.7110159535457948
Ni 3.4113558325424984 8.202182528430948 2.6497034229101057 -0.3912630228853197 -0.02567220795512353 1.1776125561671074
Ni 4.132931963862905 5.521342012138609 2.9161926946690677 0.11894720266088545 1.606499302942472 0.33492783862870057
Ni 1.9766669742619947 8.719612196954376 13.219993154449703 0.7130990613270687 -0.09232522919798292 0.07940543581252131
Ni 7.247949698652243 5.858551490732308 12.765582452274451 -1.4145003746012348 0.9487612348842113 0.055641500623704175
Ni 8.801245163119427 4.365844851858597 0.5938683918178344 -0.458569618551778 0.6283187343558793 -0.2211207854078579
Ni 7.202796292686704 7.885934843771807 4.965800490077419 -1.6071415645121612 0.8987764183256521 -3.003606935988556
Ni 9.184943893123645 2.499220433533285 12.372451372481 -0.6988898597062222 1.1600629773191184 0.03934096369146773
Ni 1.0390498659085003 0.8431042131960027 2.9442738128552546 0.8910026879175043 -0.3348095678832815 -0.04359922474718943
Ni 2.611623593064518 6.666692236812584 11.980672607459931 0.02309441992561829 -0.699079350009209 -0.7532249828136769
Ni 5.925435259244585 2.716084876936565 5.278262059358943 -1.1874426548836516 2.4169585847882695 0.6559948601149089
Ni 2.374867862007929 6.195449882030602 4.200856044889524 0.4033119836300538 0.9342512141934942 -0.07910821628707666
Ni 0.03914850620157007 7.795262046787311 8.806293926931339 0.8278003442274066 -0.18790753188068285 1.1516822094545909
Ni 7.902285226033289 8.986149961732915 2.7514509276110526 0.28577837348724333 -1.1333242757726933 -1.1989496270819866
Ni 3.266078065587926 3.5995910951420966 5.3572306543351065 -0.6705930696440581 -0.8847780471640311 -1.0719890671983217
P 5.9948809231307925 8.709995939675798 10.917769665694864 0.30471197716695264 -0.7354810285666946 0.13007288026040179
Ni 3.1162346350919545 3.1007717665850123 9.6286467875985 1.4618472393163147 1.8718949990083051 0.018336079305026485
P 2.2893005565186257 2.8158158039931744 3.47301973923039 0.7499493973861987 -0.8580899963498834 -0.03595996303437678
Ni 5.043191689473347 5.226495303478128 5.061869736674573 0.3065652283256075 -0.8685893532193106 1.4466692460242956
P 8.740985724074031 5.82862306298899 7.989940476252346 0.22815095278176192 -0.17810262997511908 0.20506244639341462
P 8.939175780126618 4.797194835817935 11.866122030627762 1.1814293588100362 -0.3657332540453314 0.1691402785755087
P 4.9117756064170095 3.8331627562339428 6.818822158929789 -0.9883711359663494 1.4021593365373786 0.3532307507029465
Ni 3.6936492538707153 8.436934491320068 10.741003459706773 -0.12567449408239004 1.015816890882128 -0.21792027619268922
