# total energy = -340871.8939367606 ev
CRYSTAL
PRIMVEC
9.19159827961994 0.00000000000000 0.00000000000000
0.00000000000000 9.19159827961994 0.00000000000000
0.00000000000000 0.00000000000000 13.45283318321426
PRIMCOORD
 96 1
Ni 8.217849322499442 1.7321106899623262 12.335453609764878 0.5679183788909509 -0.9380173661041459 0.47880445754141415
Ni 4.759005027419853 6.9121736313437285 6.539489259472092 0.18306665884861378 -1.2659919133434647 -1.590877794355131
Ni 2.954813825739601 1.3959004173764684 4.5073041454023395 -1.0539921164002688 0.44180628305051006 -0.40333718044103445
Ni 8.81179200372731 0.12180521871762452 10.534564030095474 0.395956314595931 -0.006986972840794419 0.6854396477385873
Ni 2.4559490344900836 3.0668961720655874 8.97704866379206 -0.32447604716775735 0.5334740811701523 0.813677017452147
Ni 4.411075467351165 0.8137992718851732 6.546969381945447 -0.06732793582269696 -1.8810735801837797 -0.6842767377787377
Ni 6.0634214696460385 8.847657619223783 12.919979498815366 -0.18007723720298663 -0.09687659601409122 -1.2831193170523707
Ni 6.765494110048822 8.206920512446827 3.442983273526356 0.27856231535477827 1.4434774785598754 -0.10158351457145731
Ni 7.046793776028853 3.7182219997682084 12.401749848845201 -0.12999317606240193 0.9440147213381612 0.34632939559742293
Ni 0.423535049629489 4.821195379662073 5.615737334523498 0.3217414218454136 -1.7451524686727173 -0.9202649272167313
Ni 3.8369590630648376 8.861693189409102 9.586986563904336 0.19724886388626675 0.34221023122272676 0.044374155240001
Ni 7.317771277425968 1.4190264780092536 4.256516908228585 0.2696675839683098 0.3667889490033554 0.08566247246582666
Ni 0.6395587439100566 3.045534898253746 7.333677337809527 -0.17091074021237015 0.678141057194645 -1.660515095037295
Ni 3.727597429754473 0.4050746441545741 12.595833198638305 0.48996793035740127 -0.01589507396370166 -0.6523770608566635
Ni 7.974915386678888 4.6764828603446755 8.75180763501127 2.1241042782908512 0.2241865688173752 0.03798753498736684
Ni 2.8941033207795264 6.413612162829061 8.156224253535806 -0.19970581006719154 1.3448579317127483 1.8660609088250315
Ni 4.913460640644544 0.8674754468761414 3.481405072433791 0.9685602718880095 -0.23526622367030448 -0.9268479797508877
Ni 0.14142560386338898 6.411654352449576 7.550120168960069 2.5185510982207915 -1.4237154654415998 2.2436904000873166
Ni 2.4685966733735145 6.321144686690023 5.90458330248267 -0.4005290215682779 1.6759494273144944 -1.2220957261811467
Ni 7.476482600536581 5.201203616840625 6.555013868537584 0.44730407294028773 -1.914706951967509 -1.6150777886401022
Ni -0.03818373651856773 5.175825614691533 12.01507494561857 3.8593826823829662 -2.7924363198148745 0.6021618734548533
Ni 0.5886418866464184 1.674525328331007 5.264375631751995 0.4113096571235496 0.4597484693512276 -0.37909296318168906
Ni 6.2255244924281525 4.363757120714607 10.09731971201058 -0.7874605069577792 0.4232364904681227 0.07341836499115097
Ni 2.240525551560597 0.8640212443380647 7.997937582253982 0.7923913686004933 1.8475080855235086 -0.7139272136553189
P 8.881997429447983 8.999171921080235 4.821858093879729 -1.0841341872012877 0.46764895514522686 -2.1222973069890996
P 2.989006570395388 8.906447080196477 2.5797423958606776 1.2074234688809529 0.4237784790145218 1.2066984177894702
P 4.155797215382029 5.075536088632582 0.6839725455704773 -1.0650005516956305 -1.5102811664479863 -0.1796648322559164
P 7.439311778120451 6.0193937151027 2.538024489901209 -0.383369736180172 -0.5516710637941531 1.0647745517277531
P 8.9613209204102 0.5424991453973544 0.6866711987508374 1.7490803429722135 -0.9939581431358238 -0.10107675013836785
P 2.2432922225663474 0.8714397831046471 10.277251677483243 -0.8054985954064128 -0.08509065912275668 0.4549142811873778
P 5.995615051010086 1.9434347201723285 11.954523455304344 0.13958570484684346 -1.5981840982085573 1.290045868968875
P 5.0256624777448655 4.898312887098109 5.091157209477342 -0.62856838847284 0.08985414194967105 0.10446546410494267
Ni 8.66170239956485 6.4931838269379725 10.41671671348774 -0.689666027115109 2.601351418647475 -3.1088460450347295
Ni 1.194714719788868 2.4811707794727393 11.208025983323509 -0.851118964348689 0.36603021646045997 -0.06979542352658302
Ni 6.456150878492229 2.8493770047862306 7.415079968245168 1.4261222751108793 1.3749940889764964 -0.5207373503297742
Ni 5.03399925715422 6.611681908685933 9.64163153332722 -0.8310566463811752 -2.175509886456337 -0.9089093929945958
Ni 4.951366790902735 8.413391378899233 1.6302815712340628 0.03373750146176125 0.029828396215342178 -0.10759038288716956
Ni 8.673375729057552 7.774327142962961 12.474313838619281 -0.6810795709976787 -0.49578942213518484 0.8993410325798704
Ni 5.455332919056542 8.272576097144754 8.052960326355723 1.7336632370861949 1.885666855981417 0.8030545047412944
Ni 6.984778064149122 0.8507816665417754 1.2135648490200746 -0.4399188362198101 0.09850821808024325 1.241256615380314
Ni 0.05704305734780013 7.035221554114434 5.311891597746107 -0.6135904270067691 -1.7403823009775834 -1.9315890724348286
Ni 4.176083072224858 4.644312267254553 7.5955772169964115 2.0356513875640814 -0.7843340455136557 0.314222230650233
Ni 4.88207133338661 2.6310122104885045 5.100143834867118 2.2875822163742603 1.3305258313607924 -1.0657572273559968
Ni 4.544794835429765 2.229137161606694 8.289433487923977 -2.2717329080468294 1.4046589630307809 0.2738291715451671
Ni 7.074442102890307 4.112734578631394 4.343542958336379 -0.1738680230684812 -1.0209364714968803 -1.4774607774838555
Ni 1.6899672130142658 8.082236485227536 1.1155079621215784 -1.4692165351971922 -0.28092181672589034 -1.1487447240928217
Ni 5.347671731380941 5.240709105155296 2.7339792490523562 -0.631525414218635 -0.19737407661022136 0.3758690569277527
Ni 2.238135736073902 4.555714453884356 1.869674903495098 -2.0072167863724726 -0.28315122027704137 -1.0213280505083444
Ni 2.7724617125067605 4.377461793370999 4.741181599688122 0.8823488688972482 -0.9452110556391077 -1.6070726589474387
Ni 2.923948439569134 2.613879071768508 12.784792232532054 0.011196382936451685 0.6720506280261909 0.5707712749587137
Ni 1.5635919317582387 8.093597300387362 9.093818725111179 -1.4730436222527663 -0.03493306443175919 0.4707329933871893
Ni 3.2744424554870064 6.538277806852299 1.9944094845035287 0.6149189160102054 1.3636475536154256 1.8798919011708526
Ni 2.4259844249261406 4.9675531950260785 12.512492979338836 0.08794098408735822 -0.582338668081339 0.31654059437076454
Ni 2.2435495873110685 1.2539453774667961 1.1319425393916183 1.4576339725659155 1.0355933021781067 -1.1365957474351136
Ni 9.16782855325471 1.3035891984038683 8.479333741455564 0.01071635797623961 -1.9633002874951804 -0.11040882617257114
Ni 0.5489617579692587 8.661233628065537 6.776932134632063 0.22821677302269083 1.4680376843977427 1.2525306456322365
P 0.6249082558168149 3.54466624584601 13.298030844774237 0.2780586362454824 -0.4387096464030573 0.4983425275743418
P 8.54264363033732 8.281115091710674 8.689104391599214 -0.7576688775176434 -0.39323068813465184 0.09654646636818212
P 5.681767936420877 1.0009190670139698 9.288118077457888 2.0406645245079567 -1.5780641875302306 0.9068427402735544
P 4.604255283058338 7.838135216457713 11.294285454155956 1.191822272008586 0.8747998529053966 2.0637892834508778
P 0.16531732461171914 3.334858829310257 9.414884001630009 1.3297580999568324 -0.8152276497687186 1.6874993369356228
P 2.7364582230399006 8.369345241159841 6.876105800690689 1.1757855302606977 -1.2728408179444983 -0.5239340028902009
P 1.648494722722085 6.936770347660634 12.703712227187115 -1.7075871088244334 0.703448425611182 -0.5078381257696027
P 3.6824850666440954 4.660296456221332 10.011409521903113 -0.3414625544234248 1.618337947448613 0.18678601668172992
Ni 7.256978048083662 4.09036222903672 1.4863494185890518 -0.670511051453213 0.07186233335794076 -0.2315720626481689
Ni 4.9001236319091825 5.276161098740611 11.96750566835591 -0.6109478471775994 -0.5702904786675533 -1.2716843357425518
Ni 8.775871238642683 2.4457739354755788 1.9822747367899347 1.129588462879345 0.1419806874415813 -0.23246603521734802
Ni 4.935051704407029 1.9413390358224576 0.7559161024778196 -0.05782925230364234 -0.013641759153150699 -0.5751102686536999
Ni 1.9021092954485597 8.460286912026605 4.625622071828995 -0.011884153032095661 -0.30167961809853205 0.4072290592962728
Ni 7.5385350788084144 2.2043106553391447 9.76090446678875 -1.6014915653152353 -0.04146032402731569 1.4256026551619836
Ni 3.2092188758962896 2.846279436251553 6.417081991083782 -2.9532248839915782 -0.42764593238972803 1.7767014471235916
Ni 1.344326360853989 5.252088303511174 9.889177813037094 -0.46274971807139653 -1.8817430954469785 -1.0630814802960464
Ni 4.15605458012675 7.718203245417736 4.133477257896103 0.7110213528624335 -0.21905284713523562 -0.11426908045892577
Ni 7.537395320653221 7.451214897563796 6.880316471746284 -2.770239729113177 1.7793666526605807 -0.13626718199657178
Ni 3.6594968799816963 3.0024171119149563 2.46283721805058 1.1431790570795861 -1.0450791301813551 1.0232358090540183
Ni 5.942919619528466 6.08742073209127 0.3703055863025722 2.0956802186222037 0.7369329305218728 0.7882302952442682
Ni 4.507927335748485 2.8997837283594396 10.800135952693646 -0.9377944514600622 -1.4020153547603467 -0.04303563893423556
Ni 7.458117787681133 7.64813569366745 1.297532854464702 0.14703059116066292 1.9914237852042738 -2.1371284584646615
Ni 6.7432044848363795 8.042344949795785 10.477523730227082 -0.0701378944676663 0.6882413788534405 -0.07249456762530095
Ni 6.6148622016028416 6.358471766272591 4.749616729196353 -0.5174039150811669 0.5744829194823461 -0.4374775737681691
Ni 1.296042896424728 0.058509117232907144 12.375018843466716 0.4295128103951377 1.0035535001337426 -0.12943421823513837
Ni 3.771524076719529 7.229440020398517 13.262582527828132 0.06959333481810595 0.1902750036715949 -0.9775611898350389
Ni 2.7260349508787005 6.762424116308221 10.734029060532656 1.1607995983748267 0.7000342577233105 1.1454508838328983
Ni 7.313708591098587 0.7336182048271543 6.720617971007706 0.23547422591605252 -0.2759793851189505 -0.14632610889447056
Ni 0.03270922073443144 4.8193846348510005 3.0229051839143515 0.558415067386206 -0.2305793597175964 0.9497706499853321
Ni 0.9445010383319206 0.5782737640733733 2.7709469371521167 -1.5920828704068257 0.1563115022419566 1.9549431737797365
Ni 0.024903715690965143 7.421461694754446 2.8470230365318363 0.602689463823549 -0.5549327652645604 0.8399241240741341
Ni 8.995872137388991 5.7047745062793265 0.7801745679873772 0.543160969440613 0.2848147240223934 0.46910034287977276
P 1.4907760921982527 2.9599243542419176 3.4879697117437813 -0.19443864813098127 -0.9294954446760637 -0.6007351683106558
P 8.096115798246418 3.0156070550819067 5.831479765904478 -0.12039473374068942 -0.3874642179645198 0.9550820348959165
P 1.8932945529418659 6.1100320632346135 3.744340844718178 -0.9751116998532819 0.8749235229674545 -0.5092632882519035
P 1.916935343064093 4.723442734658229 7.23723357636455 0.4148819478558403 -0.1508839034684821 0.0027721634284984514
P 7.316530411692492 5.82858533168617 11.973115300631026 -3.942773070985164 1.8589664638720953 0.09367608679892254
P 5.8641200496537165 8.833272768313487 5.343653164724083 -0.001879476410899989 -0.5112782617994033 0.3039830694207281
P 6.2607926540529535 2.4813546114332543 2.574240305282464 -0.42414177589121144 0.12999549005524708 0.28740793867086634
P 6.256656434941366 5.604512555014454 8.095820747949793 -2.852833332845693 1.283453817573654 0.8214862290839205
