# total energy = -340890.77295148076 ev
CRYSTAL
PRIMVEC
9.04775542351610 0.00000000000000 0.00000000000000
0.00000000000000 9.04775542351610 0.00000000000000
0.00000000000000 0.00000000000000 13.24230462344880
PRIMCOORD
 96 1
Ni 6.32428156181028 2.1314883337139636 11.800045613534069 1.7969121177435117 0.6866156703245594 -2.5915112926286015
Ni 4.678784366456259 0.249736147019606 6.064127829120131 0.015944953365030604 0.34247196952454567 -0.796483536391996
Ni 2.924560293385601 1.516575727384948 4.703004303125949 -0.3122689635786041 0.006193530405221592 0.5343526271203637
Ni 3.5292579837670353 4.148432082931579 4.978934607063041 -0.16331107348824134 0.4016518223188115 -0.3691163115849514
Ni 4.982988001522312 4.73398472269735 2.557181610390061 0.9732008559838142 -0.09419133587244423 0.1590049899137197
Ni 7.251070299860396 5.929356082451583 2.5439926972131 0.9344363336211069 1.6249032593709563 -0.5295001841240686
Ni 4.9605314723975145 4.584108653014728 11.563035134610365 0.17513197738256936 -0.6190229108762499 -0.473199709760127
Ni 5.548943202897952 7.948815107695263 12.443886608489478 -0.013877272202724488 0.23063103889113828 0.5152197629456545
Ni 1.9126412239353159 6.173699767199481 0.507480462422918 -0.6632124609092707 1.5667297363540178 -0.8844839129623799
Ni 2.763465006896068 1.3880975994348572 0.5286060667152185 1.2101079576916514 1.7015157058193726 -0.9020622881657755
Ni 0.6577320139583533 9.180576540028035 4.547248097150737 -0.21984191869543426 -0.758959571304609 1.010506277302492
Ni 8.7794262048926 2.277935304066088 1.3342815497836502 0.056683054514341094 0.14889541228354358 0.7279191570590368
Ni 6.952521511975246 0.7544651869981844 4.80740725849418 -0.046711030903293746 -0.027811365785313392 0.04663698313224872
Ni 0.8924877922140886 7.584407707602456 2.296480488492799 0.49340395262214387 -1.4471672687066366 0.4905790815788389
Ni 7.4460946694353405 3.928978773535138 3.818021624090354 1.0052537706543008 -0.9417220686492427 0.03641556251455664
Ni 7.679146755332414 3.9200214956005897 12.390665901149479 0.7643586308329933 -0.20109292022270528 0.7933213366139305
Ni 7.812954011265786 8.902149960351405 6.973450779973426 0.37608117293855875 -0.5269460502436473 -0.09492178628056555
Ni 6.999452219698986 0.810335981921044 0.43570642767626444 -0.12264444900681458 -1.044537141634956 0.26066795157286077
Ni 1.842059683362171 6.454026375528893 9.125775189804028 0.4981633216840001 0.06368416842252259 -0.7444323242227114
Ni 9.411203827453937 4.639019481080157 1.3934873473799185 -1.2287291723372644 0.42865406193926825 -0.1117907941217623
Ni 6.43572276617375 1.9269095343421674 7.125843030457664 -0.13419101619383342 0.2048971244601439 -0.4199580768271671
Ni 3.289890564538331 4.258579458260058 0.4114014421049737 1.8431834900062256 0.039422724771996626 -0.4308153312566452
Ni 6.005393419584862 5.589712389133382 4.615923275642256 -0.6967694709291097 0.8659169485934701 1.6528521791753987
Ni 5.1025178992933435 2.9489349466741603 8.96500019385882 0.03886530960662984 -0.08251467086546434 0.826357698243609
P 9.108284973667386 5.5280247922063595 12.246417535381289 1.368184522253831 0.8587276299338824 0.6717603504792817
P 3.8476756427070034 6.238807415701513 12.57287955372692 1.163577161119964 0.03082469869034046 0.6581299041800407
P 2.608060758609395 8.41520880766507 1.1532739630129514 -0.6507058438018277 -0.7247955238283904 1.25337319613819
P 6.366923633432026 7.863657633028625 5.691635354721957 -0.0005795266525538406 -1.5104680856478117 0.17296608007950212
P 4.799001893644489 1.308233061729544 12.724305503924885 -1.2001354198599716 -2.855639949056553 1.9859262524248122
P 4.060958382859644 6.266267353611973 8.262668173990807 -0.8249322786509921 -1.665249781508803 -0.4405639260029768
P 4.825837536426176 0.8659027722594581 3.6583323588038805 -0.6055539298555378 1.542200383754086 0.4573635140588188
P 0.3656451330437625 5.555991404424228 3.3747747969891875 -0.5360246155061479 1.2206764772361172 1.5087261632560403
Ni 1.6895959556095668 0.9835724515018602 2.54372759797726 -1.1874521679653487 1.6205879198250543 0.2555594267017018
Ni 2.024932917314793 6.583671663937123 4.78941036805013 -1.3965561314179884 -1.2105231908521992 0.1529803809861946
Ni 6.217536142545832 5.691725832276851 9.35253637130929 -1.6022572398366663 -0.37356920514998243 -0.5304046982162091
Ni 8.542365963313703 2.3887703088117647 10.090093112848804 2.155894940438887 1.0358365285371642 1.7521934346798984
Ni 2.4223374816775984 5.095858751253114 6.980217596303979 -0.4639313970843236 0.5227081009028998 0.37232479121992007
Ni 0.3732588192881288 0.11116524782104156 9.267097511446933 0.3635748129414319 -0.4430244717283273 0.48218828641198247
Ni 1.3750959747965277 0.8439058691135244 11.571099399078104 0.5819674007848493 1.2187828597578299 -2.6261664208086257
Ni 4.012200028527035 6.833534479533581 1.64612420480944 0.518865587228358 -0.06748862977027732 -0.23170601712287192
Ni 5.625559596382555 7.729108461145119 7.909747804267397 -0.09154412805758427 1.5301123422413003 0.49973323727428126
Ni 5.478081181904633 2.7359145914307144 4.913014470118058 -0.5826333165036224 0.05787938881528742 -0.13329910050718333
Ni 0.7217919323747077 7.465284958828449 6.85649496863914 0.23502094042871785 -0.38732434995254583 0.13777796221414337
Ni 4.979911764655902 4.688863566071499 7.1291536041912495 0.6771288138800468 -0.7388286048826888 -0.3191453789834633
Ni 7.833818135424442 7.406926935921542 8.932107078776951 1.4345053569682518 0.9045935392280614 1.2172363412063167
Ni 4.61640009235655 0.669254330574159 10.547800062773199 0.15238825592815047 -1.231473567851621 -0.33731330814174165
Ni 8.246576740852833 7.092245999998714 4.7248274893664854 0.19713033603053148 -0.10740989144524728 -0.13287358293399051
Ni 7.232115252110014 6.251401891342818 7.138714367416944 0.030272168620980124 -2.019945032572418 -2.709181942569908
Ni 2.4832198283660607 5.025485309056227 2.8414810881548886 -0.7765088930422821 -0.13698014890319635 -0.9481518834349864
Ni 2.285408750100368 5.222789713014509 11.511032255159241 -1.3449985710556707 -0.2972004992812559 -0.6991580257659442
Ni 0.948213823049117 3.435830860583047 3.957303676870388 0.7804791905439397 -0.30483179057426857 -0.8760468379386203
Ni 3.906648912987193 2.7611397337352814 2.7197182043290624 -0.8360605273536698 -1.334834486038475 0.3281241854433059
Ni 1.194864685446823 3.4192553725263872 8.35443774836913 -1.0243462685093778 0.024757923670970263 -1.5209039362691548
Ni 3.6435763743761473 2.446884042320457 6.943562424489599 0.14903116653045947 0.4199668185779154 0.2812403764075737
Ni 4.096452727644729 6.850779501496459 6.071702610015892 0.5519469431633591 -0.17638076218800589 -1.073439426491603
Ni 0.39804152634926215 7.189391750688864 10.782890607982042 0.37977919061543625 0.5063574274590183 1.6359327777122408
P 0.13134717121579315 5.610268889605396 7.965312785054714 0.8101816027043789 0.13880794614055447 0.06903232010831337
P 8.535607289963089 1.6164358047219307 7.944946287447977 -1.5082965319177895 1.2318219523299752 0.8706413506523328
P 1.6612493376611417 3.1436697880734426 10.358766212107813 0.8577760646538904 -0.10416953013107867 1.650309615259203
P 3.9646721689409907 6.223227180748692 3.7962771533225754 1.0931106796682852 0.07764397303672435 0.9248180938050524
P 6.725811902676273 3.7898242941075044 10.33849200160707 -0.8805637519723672 0.04409827587079502 0.5460894559413176
P 6.261490138713547 7.854962740003271 10.259899578323573 -0.6220807238659674 0.712330044371528 0.5634991667773327
P 2.4103944444315335 8.532476766563743 5.68584841031091 0.241597565204971 0.33850784267047507 1.3020830026390673
P 7.17045479844946 4.055194962612868 1.4801983216640935 -0.512599294603672 -0.9720952816244613 -0.0279031541681713
Ni 5.361944192442143 2.9747120020635838 0.7885444628247203 0.13408637229516907 0.1657489935057726 -0.9653821312703439
Ni 1.2997643625914252 0.901869409881092 7.258981657260366 1.3994560786736028 0.4518659812793573 -2.32698282965907
Ni 6.83045824266717 1.1752491515457106 9.496692449971489 -1.8395536065631224 -1.820688394227503 -1.382535391658864
Ni 2.637746444370258 1.4681340444944702 9.199826544607372 0.4696369321095331 -0.41196580265030985 0.4794886280926323
Ni 6.494406508278278 1.914278867678905 2.6385951238351675 0.6456775373493009 0.16365174465711171 -0.023385211693159724
Ni 4.153915022758181 6.7865675807878825 10.342425060918332 -0.10279578971200361 1.084876464683951 0.8776411790089337
Ni 8.438868688269965 7.364646774519375 0.17346447301915036 -0.5279562366757166 -1.0069656111390852 -0.238174398456035
Ni 7.630098872824143 3.8755970161474242 8.381081578734442 -0.42569986440695073 -0.9979135282391458 -2.9522710047187415
Ni 3.0657233745318906 8.383505472430063 12.21876759460555 0.6502458734462737 -0.7753524108403357 0.40736687042571773
Ni -0.4548107633922234 5.061594901214593 10.041414378764502 1.540522738941347 -0.09061338871319878 0.8792650877656019
Ni 8.622420503884294 2.5080740126955603 5.757277725573415 0.17348647135934636 -1.4262312898849179 1.0321685927672741
Ni 3.4413771346980755 2.460274720444833 11.689697378033724 -0.8362304772726308 1.6304203325344435 -1.421302485124733
Ni 1.2818136157003701 3.1984810908284884 12.673044540423897 -1.0469660627914226 0.10374504099915037 -0.499742750355978
Ni 3.220467136667835 8.25652022413573 7.876151678583997 -1.4549769945590425 0.5607820249564858 0.6536214747867258
Ni 5.782682918212222 8.032362081884779 3.4959685769947275 -0.24787465646293438 -1.3693062945630998 -0.1593927122704416
Ni 2.935833796725447 8.33044038648448 3.49251233439776 1.9702150123371425 -0.2325429112018705 -0.1587064848366944
Ni 3.2572010239549734 4.463429690296537 9.485423470509387 0.7059634787235519 -0.4074787134132337 -0.7024410673925903
Ni 7.078601984720635 6.210876994505602 11.523122770819784 -0.1338320901925179 0.2798548089139567 0.7142514297639571
Ni 0.7585041050486717 9.15108085713245 0.33671222053962163 -1.0649051637683467 -0.304970630144978 1.264633085322725
Ni 4.724674582298714 0.14874419547089415 1.4773781362780343 0.5872705581653176 0.3782462989106776 -0.24191381089380917
Ni 5.829441718581664 5.510861200042886 0.44444474992796856 0.11929712980113648 1.0063799138389442 -0.42109964663077804
Ni 7.918550365583076 8.997133297479577 11.283436870597852 -0.13231231111388178 -0.6467342607485894 0.3929452956837491
Ni -0.006577718240825069 4.8010285908741235 5.850489512176755 0.1965929754698227 1.4265459929118594 0.21877876753824257
Ni 8.080450902311169 8.7618554637321 2.689313222006789 -0.7369141614687954 0.8309437749523947 -0.35392469144617755
P 8.589803345344853 1.742190558269699 3.6707929276639413 -0.5108069785899396 -0.1807449526939726 -1.2493149669084163
P 1.9894657157961764 3.1956943821377397 1.6506137010833015 -0.6595496673457028 -1.591363475742298 0.7767400352164816
P 4.645705772386855 0.8436443889798795 8.202257215363344 0.8116605012427505 1.3340266454251992 0.6169444310806665
P 8.632002076947616 1.6210139689995886 12.411840363321422 -1.1347471242621492 1.187316927939065 0.4338690304813044
P 6.639152500598388 7.7721033952309515 1.29570644425441 -1.0824655412496131 -0.42952180925620226 0.03529481864655212
P 1.764004696754746 3.1853075588358593 6.06616719320745 0.43170776116392745 -0.16769454726791763 -0.4600701143567044
P 6.934525526306744 3.9264815930200516 6.142641536930871 -0.9649982655683638 1.0053802689298361 -0.4756803100901356
P 2.3522897586783307 8.394018964308795 10.159125677682155 -0.6080568987830496 0.30709461846651626 -0.5999990614755796
