# total energy = -340866.3653771791 ev
CRYSTAL
PRIMVEC
9.28229049606713 0.00000000000000 0.00000000000000

0.00000000000000 9.28229049606713 0.00000000000000

0.00000000000000 0.00000000000000 13.58557040929712

PRIMCOORD
 96 1
Ni 3.013913324425982 8.973877147195381 2.345711860555409 -0.7749716304621492 -1.5194132106562412 0.6197410199891972
Ni 7.931819365153669 2.470435213752454 8.811003579910066 -0.9824560560334953 -1.479786854513871 -2.906282453803769
Ni 3.2666886602050003 0.9902626008707773 4.694562063539831 -0.06180726311478387 -1.2947797841094346 -0.6815945629608843
Ni 2.9440733704600106 4.990094414198362 4.514267493383259 0.6203033202505703 -0.8345667164169627 0.17631365639549634
Ni 6.673363543929514 7.082888919929606 11.173004003891776 0.8454332268178214 1.6005561979851597 -0.5136243934340767
Ni 0.9505251151014628 4.378057305652336 9.379152162360677 1.8722305279708529 0.5074961690491517 -0.09227020759033142
Ni 7.336388274370153 8.414841917589508 7.918010101528579 -0.9848286700307298 -0.9923807713463748 0.34586171193238496
Ni 4.542743704278634 0.34191874113622234 9.271961199521277 -0.622092036719877 -0.003936616050244833 -0.34452242429567115
Ni 0.47690830766213044 1.2039966226704129 11.350336595139451 -0.5354227202560907 -1.9319850223216664 -0.14523673248503371
Ni 3.658011464471006 5.8380223720449225 1.848453059129988 1.371936275986779 1.310728079908575 -0.5630803340723594
Ni 5.208803743723377 9.78000695077443 5.817653313700567 1.3783928302454003 0.028683741087937694 1.0220230196928397
Ni 8.14652802745921 4.290803774647534 0.9637347427581578 0.537964255731022 -0.711388249283549 0.6529992678216948
Ni 2.481870995688402 7.004518540964336 5.962516452665817 -0.550299380257607 1.160792656396291 -0.7076048709817168
Ni 0.6821406795631172 7.939959933950607 11.947652919130102 -0.04178119770184417 0.020802024347015786 0.9799374033766994
Ni 1.47911443176098 1.5644186817539727 2.9362084856918864 1.530023896292552 -0.8802660182262905 -0.4624383574785649
Ni 1.0359593171619093 2.5409434926367602 0.6765694487855552 -1.209779370707639 0.8270863488795176 -0.6030296207717871
Ni 8.488190577376736 0.8038649246891356 6.972141911587234 -0.989925367827347 -0.029287693220523756 -1.4998612566662428
Ni 5.188939641983986 3.5990317904279725 1.3825767537656455 0.8440443168900947 1.2816825846058444 0.44284372317608894
Ni 4.367373389249514 7.9444525625683 7.178791689252522 -0.5771362979447932 0.9559312702700893 1.873139927159
Ni 4.0223784970308465 3.0218589651217385 9.619956128040023 0.6353427310821962 1.2730881580686138 -0.2840526490453882
Ni 5.451860521314946 9.11063313360961 3.3165503402580323 0.6347904581231519 0.4164444072469538 1.0423365344392113
Ni 7.535307760480038 3.7610263247998668 3.7026518560995476 -1.0019846129847259 1.0723793606582046 0.008724524357191425
Ni 1.7540187481693013 2.254324925576517 9.47726690151747 1.3050235733246298 -0.6630288841435549 0.8218006750005459
Ni 0.6120825917696338 3.488154830018147 3.617918466974299 -0.3874050825918102 -0.6766058514970411 -0.05131176290009873
P 5.235833773753801 7.541731105528476 9.396011586654721 1.5820442552239011 0.6273113761372874 -0.6477099943982975
P 7.414201715903478 8.92672311129066 4.974886309390035 0.45729769381788987 -0.9762342434934993 1.1146922624938027
P 2.7205743790202632 0.026522288738300124 12.100354952449985 -1.8165766860519748 1.6254236506508006 0.7461961009913536
P 9.071554690468098 1.0807278043997988 1.7169174329111956 -1.8462806408743107 1.0719255609502378 -1.4263888985087048
P 5.902153717333452 1.249173530691729 8.002403758820341 1.1347165281345297 -0.7124668270597084 -1.0285993873587769
P 5.730589141422627 1.8680424050696194 4.166952956760538 0.327892529048474 1.01276576276063 -1.3638429574556836
P 9.172750221852604 5.884220332024806 2.7959103772104843 -1.9923748362636333 -0.9149337448118049 1.4662543672450747
P 2.1015569879938543 6.120018358420016 13.75756405151135 1.4697523530960042 0.2710145849145074 0.4730557279830949
Ni 6.656859631362861 1.5497433804222076 10.78005494232449 -0.12703717875787154 0.15954055070221557 -0.19392982681536278
Ni 7.833408520928891 0.7121558942287691 13.231570991513754 0.9860648564306761 -0.01566367467918593 -0.43146684879771496
Ni 5.17571237797528 5.49894029889541 10.79764859579965 0.9133360613073819 -2.41417125185112 -0.9001388458908175
Ni 7.122858462962232 2.4928055339356 6.0176059187467095 -0.24782811949571515 0.2895720362017207 -0.9137896039050326
Ni 2.058060174558907 6.649443081227453 3.2194130262943026 -2.2564155609634686 1.2574710203566473 -0.12113135479639785
Ni 8.397066331219913 5.422751258205258 9.718519201829533 -1.7010058560624899 1.4064636203396872 1.4970412707189442
Ni 5.9265104476905375 8.418341341120232 13.329836103777172 1.1417405248608465 -0.5519924516893139 -0.13321476832349316
Ni 7.088003462012972 6.341271035550918 1.1855935534608255 -0.037839696555592904 1.2924408515636128 1.3229485332341668
Ni 7.904046751880651 1.4569576042600796 3.9106744845345816 0.08685315033981816 -0.6480946314312258 -1.2263534730162364
Ni 4.520122762251113 3.3227815418924496 5.280575342349146 0.6262099155429924 -0.3282280580110218 -0.22422642091637512
Ni 6.89823631436806 2.9410380614559077 12.883210340748027 -0.3418955281957854 -1.4496548110151808 0.6496576050429715
Ni 0.6844955966711936 2.8263460796372546 7.313166768145184 -0.39159855184786746 0.989624034536844 0.8660398473245794
Ni 0.20240405797575667 5.608462044887501 12.852262255883867 1.4163600535177931 -0.43484502124132846 -0.48613390132329176
Ni 5.950106030223963 7.287619119912788 5.807424229533835 1.492907965276861 -0.826727422878202 -0.9758295518559128
Ni 3.678200446379032 8.343154787807583 0.10065158915930549 -0.8365294965702883 -0.4814282683175064 1.4989870815914053
Ni 1.3748000507575793 -0.08266436656557084 0.34728761798017743 -0.5103089559075986 0.7247551575087583 0.5635169073891457
Ni 4.708330485086577 6.336629890284704 12.864801702164122 -1.530282035049945 -0.18255732331236302 0.6153233505374758
Ni 0.0986874564826442 7.441482367778278 5.310585915869532 0.2125836944711242 2.285272337294161 1.38052401765579
Ni 3.7039031088633187 2.092024075617053 7.257018192714541 0.8696265362345733 -0.9976260789057142 0.15369489055471594
Ni 4.090826107416954 5.596172292222569 6.924252718272343 0.07760026428298249 -1.784836160415584 -0.28147306124367005
Ni 9.236621663006225 8.002132715936794 9.728233118871719 -0.43680034519548644 0.7264744541927102 -0.9261391266093211
Ni 7.614188665424591 7.0430400466739025 3.9410786271735425 -1.3494085271979084 -0.7565594465035487 -1.8514112772326567
Ni 2.7182073949344945 4.428849999445771 11.348203524775098 -0.4844781108874237 0.9037018806517274 -0.24202642521227347
Ni 2.432201459049392 8.470582072236724 10.215479113499812 -1.731545933632876 0.4836612714130832 -1.9497598298065841
P 7.796093712988539 -0.20502166390590074 11.127465086539695 0.3634359733707224 -0.17650520358101213 0.1600599135407953
P 0.2714253139167681 1.0021717796238796 8.699778533605276 0.665112506145461 -1.3882686945982154 1.2481098908567212
P 3.0136812671626716 3.2770569787297203 3.133213035264931 -0.5003649573210092 0.3856724161714196 -0.2766897809224138
P 1.1139676867964154 3.1264239679695147 11.80109204922647 -0.20447032133537046 0.7784750156297173 0.5783840543089652
P 8.706872060030154 6.651141740394887 8.017741815696121 -0.5194070615541249 0.46196861693099794 -0.983627450633777
P 5.306379181800238 1.1935911749835637 0.037251688364731056 0.07008955772823412 0.7971378821465432 -0.11825814701366086
P 8.95940605625533 3.6301460282926636 5.642780529443986 -0.4506305662103594 -0.7010174475721862 -0.3649313269693264
P 1.8593634634218013 8.438678839676777 4.371238535027217 0.7753580672672904 1.4062093382370362 -0.17062431932020292
Ni 4.200542781510227 1.5993850701896206 2.282429844850596 -0.3319263327982155 1.1678513630152856 0.41393089679648065
Ni 7.5292185778907665 4.943172435556949 11.984402435577028 -0.9511965837985811 1.0208367126942224 -0.38581819772066456
Ni 0.5494280589048132 0.8137180760893057 5.045259995061621 0.32527514603028496 -0.48161055953164145 -0.15273149820018211
Ni 6.525942205693529 1.7980632167456614 1.771409119481801 1.7578357205673403 -0.7603880762210194 0.22557059364909537
Ni 5.785317526401809 3.304031315016949 7.685792254591724 -0.8834289893353044 2.081170455041803 1.1667311333679131
Ni 8.37524366617818 3.179017426126239 10.753359074753233 1.8130838424073679 0.5402677070532179 2.858570492439786
Ni 7.949028731800786 4.6269712085698655 7.522493558400024 1.111001443905777 -1.324574498873364 -1.8122675171536595
Ni 4.358137510169751 1.413859929318027 11.322526852704303 -0.6881961274378019 0.38414955176898996 1.873619695008896
Ni 4.053771203611511 7.247269002968333 4.223060690112838 0.8372337217261646 0.691301505836003 0.018493173708181054
Ni 1.4457724441685067 4.810844101726688 1.9017352632442184 -0.11672268420574092 -0.6874772469939063 -1.0028893841871827
Ni 0.24775732951718893 7.165046473432106 1.207483050994392 0.406229671497481 -0.304478778110224 -1.9748761652582374
Ni 3.535030397206897 6.378400197680621 9.682639436005495 -2.2525694477445013 -0.8849544248408951 -1.5300886880922164
Ni 1.1423529312445735 5.540162951149912 7.05929333739618 -0.42850005285990717 -0.6252586073733167 1.853537322436724
Ni 7.491745971011363 8.661258884353815 1.632456014898547 -1.373501820701686 0.15114024245366228 -0.1002866501369047
Ni 3.0687252500199564 1.665669906881673 13.68202755584563 1.5169490653864648 -0.7719176741271737 -0.8567149703792278
Ni 6.261248408870875 6.000555279267697 8.13186015195987 -0.8063079786815857 0.8565123674501184 0.7332493110226984
Ni 4.7200354534479665 3.7500268105189423 12.295891971889853 -0.06761204272201904 -0.8365500653955786 0.1339328774364403
Ni 5.298962631664829 5.20250106845186 3.5506840519607796 0.7220524138656145 0.24006878726527042 0.623117649770914
Ni 3.140208169410167 3.9813414905869924 0.5954552247388996 -1.0406573469645755 -0.35864035175429204 -1.3995432390707703
Ni 1.7852258089393167 0.7993388798255248 6.977888577655858 0.5494532302072279 -1.7118291719302388 1.0024888063146542
Ni 0.5378029182420031 5.344538678179039 4.880426008015857 0.1904218136621043 0.7500000481184761 -1.0955462856929712
Ni 2.1459077721577846 2.750519048277869 5.507535699928436 -0.7684356291158444 1.4365576115115903 -0.37023834100453656
Ni 4.390300646864606 8.2843329127036 11.338652976046287 2.362228026014609 -0.9628040861305226 -0.03593913709877036
Ni 0.049169221179312494 8.719143248114023 2.8946637379559084 1.8431099564558129 -0.7790846241892583 2.6558994290966838
P 5.3086626252712135 7.361348353611846 2.216825400054571 -0.16875409888068357 -1.2716879352869777 -0.5908690741498532
P 6.08054077678561 4.973915381800344 -0.0011398652773818834 0.15369026256902563 -2.1255998889997714 0.03062286709217952
P 1.5368781257442654 6.4195671561919285 10.574994292798355 -1.0906061680788766 -1.1336441210059571 0.05548440622054961
P 8.00027625783031 7.294692225298497 12.873482500270047 0.2256634104732178 0.15332233770664563 1.1394836105058699
P 6.011582640420219 4.782922971805151 5.93315842416986 0.45850996895843615 1.415574324391704 -0.16621153496448793
P 2.771274249908373 3.921155118774743 7.798008649525379 -0.545240477677461 0.29818703156424126 0.48139792930020325
P 2.380350584135262 7.615432492355937 8.047562102260592 -0.2527975476858485 0.33450514926898517 -0.09385914934400609
P 6.568733565048011 4.0012520037790456 9.742049808329234 -0.7177841255075638 0.8457399594249628 0.07414830117864005
