# total energy = -381167.73845231574 ev
CRYSTAL
PRIMVEC
9.24339699238988 0.00000000000000 0.00000000000000
0.00000000000000 9.24339699238988 0.00000000000000
0.00000000000000 0.00000000000000 13.52864583524862
PRIMCOORD
 96 1
Ni 3.383129543128956 4.241693236204159 2.0760789974321923 -1.5178890607022308 -0.3649403258303908 -1.059911052987865
Ni 4.728237927565422 0.8504026978056621 2.7776740945522778 -0.8138698501892435 -1.0989339712182815 -0.74082223827395
Ni 2.556492543519599 8.39458515679558 9.203889862566545 0.21095772883192704 -0.5679001240585059 -0.5803818014652844
Ni 9.02431006870866 8.617295565702971 0.6338012500191698 -1.7796790416946768 -0.5356062970218065 0.2794532026001639
Ni 5.709942156353426 1.0762641807728393 4.749568914974551 -0.8141033063562881 0.28482012333903206 1.1307768267604912
Ni 0.46291394676211983 9.082866989121555 7.49235380730134 2.552327166229972 -0.6862837409064374 -1.2977422091718682
Ni 4.880448947050687 3.07894783248214 10.233284474176696 1.2091237394015113 -1.7483452645784017 0.7756676280879093
Ni 3.4850564825753647 4.5438876164817925 11.9569691262057 -0.24814333674328878 0.7301740145314844 0.025767852992723363
Ni 0.7288178258190626 4.879071680887858 6.151502007213751 1.6033355605025095 -1.0800489613883204 1.1269122015987623
Ni 7.982597706168402 9.121781690769273 11.548904573293317 0.39229300681173085 -2.613925141547427 0.6131764793978021
Ni 2.937995270623222 0.3590690024245226 4.447258067893888 -0.3386173716651459 0.6579998063600797 1.1598973982755314
Ni 8.328984767818419 3.582768432959693 5.034238738754819 -0.5793762430189053 -0.37679491117613173 -1.4245235631651918
Ni 8.6103075575211 7.8961442134104205 3.115336313711729 -1.1670869740454353 -1.583861768048614 -0.10420501135470439
Ni 0.7368078182428838 3.7512385878839933 2.2697956427627655 0.9305948483878296 1.1200699818659485 -0.4445915591051311
Ni 2.12924424433651 4.386019637992155 4.164103236892732 1.413262645539392 -0.7500442710928502 0.29146513945937547
Ni 4.180677572171716 2.300163899483291 7.997973172847931 -0.5426356930647622 -1.4072969148742602 -0.22128790711334145
Ni 0.9736439865464827 2.3904903756119125 5.053990953945082 -0.4446566080151116 -1.192505671228856 -0.16114183375106442
Ni 7.641488624243052 0.018537632815795194 6.7525261712370055 -0.8514076992337015 -0.055860044392413474 -0.08076117850946736
Ni 3.0747051132288616 2.579490115419723 5.579497488279099 1.7613085096072891 -0.013384905947338238 1.1979569241514143
Ni 7.193461168455671 3.6992259925938016 9.410580540018909 1.4628502266595325 -0.21652699538958836 0.9150589575357594
Ni 3.2184584243987677 6.2487859883139265 5.169579634254989 -0.797461326924233 1.706456851874732 -0.3138465924783691
Ni 6.301103615707295 7.167228407582458 1.6628057902731372 -0.304298800888934 -0.8599789858424802 1.3327809459435562
Ni 3.1309234541840683 4.644575940721362 7.276923497923105 -0.5180556897325529 0.1719037002532588 0.3531559316009531
Ni 1.2687301944803873 7.492568254113271 4.358862537412347 1.4902049645234012 0.947445087175949 0.34269848371305495
P 6.837645841798368 2.8571617632813475 3.6834854117301674 -0.9334752552594181 -0.7257391186885823 -0.1797548208665614
Ni 1.0348907355055748 8.96773123526788 11.991318514042536 0.8604795796279827 -2.031662578119662 1.0590911281897308
P 6.295714715217836 7.383570115911398 11.311260532086152 1.010426315994176 -2.1233180349441305 -0.22920073420251497
Ni 2.4511732773499806 2.144431145715892 2.9983944000713647 -0.5235429380993694 0.19291526950791935 -0.3454351659179277
P 4.118229181594049 0.8531258025812957 10.086092619298249 0.13771137064226605 -0.043136426178157966 -0.9569957069788615
P 0.017801858409344284 3.8558923294648624 8.050275086466288 -0.16355918494330543 1.2361889710494194 -1.372861616014526
P 8.11995458656866 1.41732704571286 10.127720257984828 -0.21147812011177128 1.7135106733977201 -1.1181331698545518
Ni 8.269799296405038 6.799313474165806 12.515012418211917 0.722469189688059 -0.45690662902705825 -0.5166852917475875
Ni 5.517328248292824 8.801923178698578 7.461548337899594 -0.4557995120058085 0.5695643991348063 -0.5535330567035563
Ni 5.68394972380393 6.109931677588982 6.042177577095449 2.0736178395055256 2.062267961710345 -0.8686379470690588
Ni 3.857417489980747 2.0771484584727244 1.0016283711636953 -2.0908912818739926 -0.6855915999354193 -0.3939361988421087
Ni 6.376058322515214 6.3478105010816215 8.221046847260013 0.01952007231079864 0.7679106098503098 0.244568732018153
Ni 0.8198079778570205 0.4143445168790004 2.937474867368408 -0.13212770590690148 0.4563150181896463 0.346639470638674
Ni 7.119772807045789 0.2764117728415332 2.2889793890334715 -1.1372549782856671 -1.3057329406868285 1.1933168542762416
Ni 7.569990947937803 4.749562444596606 6.685356253438042 -0.47473645811962756 1.2853021836363026 2.097161945374053
Ni 6.540747928039535 1.6511295310994087 8.565987317269206 -0.9363284084374971 -0.44214643999874814 -0.03329038662201364
Ni 4.928902834470482 6.569374728752831 13.11867372341809 -0.03049199794127007 1.9117154734393527 -2.3940425994220447
Ni 8.733309442277912 1.8654469354709007 7.442176026328743 -1.446725810293844 1.546281495801995 -0.42165757601677706
Ni 6.768542205333206 8.260907148427577 4.959304367420445 -0.42440762795808845 -1.722024624406002 -1.2334887985094372
Ni 6.59868554084901 8.391765920690462 13.36473295331411 0.6938083314182568 1.1592026862013518 0.378247070241626
Ni 1.0576757092731814 5.631216143542592 8.879757203692547 0.3228266844897924 -0.469560827455959 -0.7858448257312273
Ni 1.725437200112711 6.9910215293139455 7.018918101659032 -0.37052604744828443 0.3712593260698832 -0.20387819627732628
Ni 1.1633462245313069 1.235232123513326 0.5441698773499087 0.8743653364711393 2.130731296689066 0.3597749795793675
Ni 0.3880322627910211 0.006132069613561971 9.690649925079443 -0.3618765993034026 -1.4308690457672455 -0.12216133872280896
Ni 4.441461533593821 8.890650547134788 0.649382844453269 0.011513142845922107 -0.851538568384611 1.068373324822605
Ni 0.262619700079405 1.8474407979863985 11.99295551966292 -0.3964923896050591 1.387864002960629 -0.0291460254363369
Ni 1.7056193568032794 2.1087886066295267 7.741551170501256 1.174778943373054 0.5374330658179002 0.21596238113537
Ni 8.470861669383934 2.156022365636614 2.0926514840317627 0.07473219870656807 -0.0996778129083122 0.5035279284300231
Ni 0.18867806958991507 5.442003805602265 3.8471406811228057 -1.6774527513328983 0.48796658365665646 -0.12931620460003534
Ni 1.6217170416355042 4.495063993179358 13.52373509662374 -0.33345253963475474 -2.040493031927099 0.9457417313315969
Ni 7.33704809847839 8.771004015512922 9.14307847760926 -0.7253115442328605 -1.331010998527327 0.1939712215762595
Ni 6.400340726607507 2.6867597383702604 6.472496532783853 -0.31528126804236667 -0.289976727839307 -0.5425978978482914
P 7.282364161436133 5.993455631160741 4.283480785659979 -0.3622380964078794 0.7855442637716729 0.33154272420655156
Ni 1.8229273089674563 6.157405764919784 2.3541065160808565 0.11368081205562358 -0.0076914551069867535 -0.7698145117412419
P 0.587792241123323 7.237108489401163 10.671003693556111 -1.2787057613657073 0.9487478651477727 -0.2768877558658328
Ni 3.3328177328989015 7.4839071910624595 11.523011045092426 -0.24416069794645692 -0.3561844340146318 -0.29081079370482815
P 3.402198671276044 5.816231979214972 9.397741461494281 -1.7940625641098586 0.5009046318745631 -1.4610774510298257
P 4.505961958320133 8.204134203648414 5.240740850907036 -0.06692607239858796 0.2086617337088987 0.6354435183261185
P 7.250779473661727 1.3097523906591453 0.5256313201944071 0.4424971384699476 -0.5565996114440219 -2.310240577203724
Ni 3.9902266190245492 7.055327842701872 7.307511747493801 -0.09650481449696928 -0.5001317582642806 1.195198901790303
Ni 5.097585587527298 5.418081893995545 10.444615336956174 2.743713400687875 0.014118698789569232 1.2076155302871008
Ni 5.918787469661867 2.6301901483265477 1.6044429811986265 0.18875393904137813 -0.014382751084233295 1.747023460443185
Ni 2.070197423879118 1.219370454148128 10.331515903476133 1.1383937198758007 1.9524070376214442 0.7240501610219336
Ni 4.940420107214675 3.112843369523038 12.787587256931367 1.6471142482503567 -1.2278999915677498 -0.6455952620481397
Ni 0.43551189616006303 3.0589913382167193 9.905227993248195 -0.16382837944429204 0.017349032801408832 0.6579861795133248
Ni 1.8697913320919048 6.634106238405793 13.32579699185314 1.0942766749519284 1.881084121706741 -0.8541950321708515
Ni 1.9669579220493416 8.509693180458058 1.1656931230463556 1.3336211824566644 -0.29340632234614633 -0.025590446874594632
Ni 7.991258769219212 5.8664421120773005 9.86535937302327 0.3345072061515142 0.7913888954779079 1.7077400894625296
Ni 8.049436710352404 1.2033608904298745 4.598021571398623 0.6976593297332307 -0.6692923485547634 -0.17836333983567346
Ni 6.752920864291721 1.6991212486659053 11.776699774926694 0.3259341197705225 4.253102394338894 1.4468451094805275
Ni 8.646532430622623 7.090480481743742 7.933495856614283 -0.4729094322132178 0.16335941022767347 1.2677068391520425
Ni 5.4254950984424495 4.220766185246812 8.162954869719535 -0.7546817698648616 0.6923286615489368 -1.2580423194790848
Ni 9.019457285249027 4.315658899526021 12.099926580888225 -0.1357071957280437 0.4720123743202452 -0.8878194050935162
Ni 7.534810578704736 4.624397604926357 2.486253817894735 -0.4173622910755328 0.3559026411081548 -0.1737744349134104
Ni 5.510774679773053 0.003025363859690734 11.499687181275874 -2.9373367520064124 -0.15900781812719714 -0.6396236178457372
Ni 3.3184812240495885 7.9658486706848715 2.9671433989310394 1.370788278425265 -0.9840282856166213 -0.2833011155913443
Ni 1.6708826706293785 5.552906083599727 11.099375065482716 0.071628877190896 -0.5628196242118049 0.5126473742327882
Ni 4.535651749696016 4.542843112613338 5.331747641059713 -0.43518594952051504 -3.7655860108457797 0.8656081591037995
Ni 4.468128734129133 3.0307435167831267 3.667182832324923 1.5883030916494196 -0.222830569010113 0.0059215076907575435
Ni 2.7799331807952 3.641685845858162 9.652837960701696 -0.5822129411367521 0.40421161262618766 -0.5662900992589085
Ni 2.9845265314532954 0.041477895654110086 6.931239858789809 0.11531294834240785 0.43260584749816466 -0.2859375247729269
Ni 8.86597067696866 6.803851982125195 5.812380255657584 -1.8035913295359 0.9962533669279036 -1.6673120633544702
Ni 7.382812157351988 3.5201351744407066 0.17466045793937737 0.7690403525793787 0.23273960059370885 -0.902926950158916
Ni 4.7176080209395606 5.647244194054978 3.292412071304444 1.552223829428359 0.4445488787926537 0.9987067135644025
P 0.1247220809507884 6.107814939660876 0.8741443631695963 -0.9841097895868343 -0.2767337467864718 0.6425911851144933
Ni 5.232243395984294 4.809219329260352 0.7419110977630037 1.5323425171233997 -1.6294826512115226 1.3039881900815802
P 3.992694606041162 6.373109678851171 1.4725665109187804 -1.3313293010986942 1.6799883732705583 0.21860290408201064
Ni 4.8360159373545875 7.639676918418123 9.57176042767728 0.6020937392210792 1.0999094477576734 -0.06192630519115142
P 2.6059539612195843 2.7069750477535286 12.771204259971649 -0.26883146122025964 -1.0536709856154243 -0.09217404833209933
P 0.7678009286050683 0.16778429486200508 5.3307327160618705 0.163458397699383 0.08356136696242383 -0.15173648127676448
P 6.915244160167155 4.058452132768445 11.635446802663132 -0.8960307372597149 0.14738848872071392 -0.747144580947552
Ni 3.2245960400505695 0.44502797343947526 12.441389684921203 0.05635626730254165 1.4879542208160115 -0.22996615161362977
