# total energy = -340887.06326392724 ev
CRYSTAL
PRIMVEC
9.08148043773903 0.00000000000000 0.00000000000000
0.00000000000000 9.08148043773903 0.00000000000000
0.00000000000000 0.00000000000000 13.29166459074488
PRIMCOORD
 96 1
Ni 6.639670173040199 1.811837089505003 11.042648895921149 -1.007718687255026 0.5249336477993088 -0.26005731457205533
Ni 4.883357255202807 0.4816163381115685 5.990593151134644 -0.21440326417836622 -0.39377447645326374 0.9220744696216442
Ni 3.073590743247725 1.4332937385692706 4.8794494941513555 -0.7588639262670093 0.25561470541966946 -0.7053993786899657
Ni 3.356397126941068 4.620575535972512 4.48654832257341 -0.911268637255392 0.3961805147915951 -0.4512882543990163
Ni 3.7663079114620035 2.6401407613171637 2.198388489929859 1.0640849818598963 -0.4826942795141235 0.9337411073262951
Ni 5.232948846361578 4.368945874774248 2.5243927518324485 0.8003293925006475 1.1596881104782029 -0.6483797667718124
Ni 5.400656546424677 4.652124599167358 11.33370943722468 0.02580076311318782 -0.12214642632447352 0.398871431360197
Ni 5.624297084777083 8.080002058983103 12.242620329796036 0.154424826742205 -0.6483358009077543 0.6822064855132701
Ni 1.9056306199242206 6.709461350545203 0.2979097938831385 0.7887864248580544 0.5586639501722185 -0.9073808721652116
Ni 2.8045337210042933 1.6035260902063964 0.1533589609013678 0.14842232930186697 0.7886308731167966 0.29363335075528785
Ni 7.606984066591995 8.926913684303104 6.9122108511965665 -0.00538260446815202 0.6736925345049881 0.11314653681870836
Ni 8.969505827764193 2.2524160336140193 1.2728312436347975 -0.15637192316624682 0.9292007962537804 0.9572998684828415
Ni 7.1190906091711925 0.7961561390535442 4.700783171590496 -0.34779466728903974 -0.1310326730705098 0.018574677678393815
Ni 1.1528485398012753 8.01336215520539 2.5008135959087014 -0.7996963869023389 -0.49288073312882213 0.6159483857159844
Ni 7.903721441344893 3.687980142303817 3.6204239171454597 -0.43830726875831616 1.2925434385797483 0.43299305563425433
Ni 7.650211913686832 3.545618854266283 12.400378359842938 0.41779680750979015 1.1369608440840162 1.1696987006366695
Ni 8.314949040535735 7.10103662597276 8.917457138677085 -0.6605261723263591 0.9374530089602435 -0.06498180418802357
Ni 6.9845212313873075 1.2853655029962037 0.04928610272445154 -0.7402239425683187 -0.14873960343196965 0.853318285992853
Ni 2.003065824016764 6.6847688051143495 9.126615440104672 0.29517935508616905 -1.01229756487496 -0.14195806173376196
Ni 0.03466310285216028 4.8625152574963675 1.3917041905534062 -0.8532570937376145 0.04859976328557436 1.4297842973434989
Ni 6.411507057407702 2.2838379560821154 6.674515813650049 0.76649933132508 -0.10999410723265574 0.17068602579607378
Ni 3.364897392672322 4.7354017751882935 0.5671756901776582 1.9140348656011485 0.4662770144983647 -1.7137693263757452
Ni 5.7881542371157675 5.771644105599295 4.49898904268585 1.4602796377188787 -0.9500894667773315 1.5216984071459922
Ni 5.739413931368291 3.109008517127948 8.770890217028285 0.806346545229005 0.8532272689409435 1.966709313176729
P 0.19590751325614297 5.766503987646422 12.524204346216488 0.46362800691129186 -1.4222890174077183 -0.7225568643058589
P 4.082497817407579 6.185986652595499 12.16846550091938 -0.5298912489149004 0.6393184279004925 1.216271663300202
P 2.7120206793330532 8.769922131208894 1.2632203128405821 0.4553997054642286 0.04001099317529883 -0.2697537159242129
P 6.251609430559216 7.981440751310779 5.441195367148761 0.2636738282787201 -1.6692930983402414 1.6755758460251595
P 4.690630076411498 1.4876191548132442 12.063541708021289 -0.019812663850552976 -0.9356164699721371 0.24584631317899594
P 4.067785819026563 6.21966986370364 7.992729939698087 -0.49437505828616146 0.6640660671588177 1.3698968769592472
P 4.987231228957165 1.255541921092959 3.8660534441891956 -0.029681072004200497 -1.0248610033622672 -1.553315519830641
P 0.2822251689424887 5.993032436792138 3.4520051371606106 -0.7347464643935153 -0.727025955820806 -0.7874196264175148
Ni 0.8736393305268948 0.022595631587534387 4.830230594382472 -0.097228065816239 0.15711754308301973 -0.6655434230352925
Ni 1.8473910855924582 6.587942060214107 4.842060130858466 0.4911640075480315 1.176460701950851 -0.4062759513543841
Ni 6.205766117085532 5.650869496667733 9.167141546756081 0.4681274374435421 0.32181958338151667 0.007643632588186837
Ni 8.92430729940474 2.5609230070717306 10.44001819779329 0.3345678841861206 0.30057532929075975 -1.443049389883521
Ni 2.4611811069367318 5.114308385343311 6.709167110577582 0.49287944757724145 1.7250338435459711 0.6322766905623627
Ni 0.4662386672112141 9.369181783781793 9.139441214989555 -0.30615719425391147 -0.2983220144802088 -0.5638071849360548
Ni 1.816005489046291 1.3675983087616972 11.18542793206086 -0.1275763390907932 1.0346754183495277 1.1271533710752912
Ni 4.383648791674782 7.17351592170047 1.0907775288541113 -0.8060472688210313 -0.24624791949278885 0.3159893498529848
Ni 5.501415572373671 7.911204581262151 7.760564615617126 0.6211656682508657 -0.029562029927832956 0.608197795236288
Ni 5.036407445767782 3.20299275863729 4.712400201423209 1.3106416908423557 -0.6302653165592887 0.5396205603875223
Ni 0.45021348675248524 7.69973322675577 6.8019961877696 1.353013213830031 -0.7183615952775886 0.28536545431954075
Ni 5.294103535928096 4.803930626906285 6.9533081829703 -0.21102946261012687 -1.188688868585927 -0.028814867349163276
Ni 0.5225701824936855 7.267436592846436 10.878496595466794 0.23834434837499596 0.9522425085645924 1.0255318041770467
Ni 4.848075703529815 0.14200620215068382 10.090686336976308 -0.3528044617988053 1.2284414658935165 1.14021148981083
Ni 8.194101779760315 7.409970429013131 4.606890653034023 0.043047980229409734 0.41824495079080226 0.22909634741416673
Ni 7.278189065737253 6.146400479173988 6.908156878309352 -0.2907030644823703 1.4361938004142685 -0.9696961852646654
Ni 2.242517219888521 5.810240397648256 2.4162123400334745 0.06313343812537513 -0.5105992334545076 0.7570523269795671
Ni 1.9672575464758097 5.368308312947406 11.353540666153462 1.4514314432996294 -0.3041998134172245 -0.04744225264236345
Ni 1.1891926246906739 3.5285093450379903 3.5920588210076416 0.47268857445166335 0.12977103274926685 0.8250968292533145
Ni 1.8567904178914407 1.306216582183125 2.667636759772844 -0.6972019304808379 -0.3981705486384304 -0.1029433710334614
Ni 1.3689423678730492 3.5104281173981122 7.886116991430326 -1.0621368569945902 -0.8031066981354685 1.2456604008749645
Ni 3.982047561794975 2.807367142914711 7.161269545270346 0.6650199464316547 -0.7357669352382297 0.922887709551559
Ni 4.161070786538782 6.640878009944318 5.901897963858081 -0.45915403030033825 2.335641276665016 -0.4657707642859075
Ni 0.8386492943773787 -0.19190802925182235 13.213004671898835 0.5124442570830464 1.1258783610176093 0.12009828554619317
P 0.5598278643195842 5.69513263253753 7.811325550771872 -0.6810296915963497 -0.14589802021811646 -1.6636608397551282
P 8.507449182314991 1.824287799245974 7.8388651403338665 0.24903628087120339 -0.19510764917354786 0.17907347852882063
P 1.9765388195285245 3.4623961671282397 10.071439955390574 -1.983312983171681 -0.5113582231077194 -0.6758136946130491
P 4.126061679280253 6.349162693898027 3.356530624704155 -0.46977217213581673 -0.4308883505864256 -0.886779650975092
P 7.210123369523849 3.9788690436262377 10.339053930385399 -0.36742812524925106 0.10158171479924441 -1.5167760301437103
P 6.639552113793931 7.754294761492278 10.256220838760038 -0.47099935967469847 -0.4269723033614711 -0.23841428238098292
P 2.5854702488148695 8.3738969303451 6.070795337864337 -0.4781200298798798 0.6900030987395536 -1.4699423576196233
P 7.048781787278709 3.685083150030024 1.3205644131968086 -0.11653782188844447 1.0091528485983912 0.296372861173638
Ni 5.234401883238714 3.1263087374463647 0.09158491436596873 0.008935611926732999 -0.03980890446682176 0.47551807348065855
Ni 1.5117304854932425 1.3267407280726906 6.819686911748747 -0.4176355993415775 -1.2006779226270032 -0.09214448064574453
Ni 7.199089370738088 0.42605856496617284 9.251344125638145 -0.34883982072410247 0.6548576611866722 -0.7871614876601217
Ni 2.589239063214945 1.4621910094633404 8.87576133733958 1.0294439947472593 2.345496315082225 1.219414322694242
Ni 6.657460793304649 1.977746656432645 2.6537075850093856 -0.8425201669360843 -0.058468428549538015 -1.0361568879910608
Ni 4.3990509825724375 7.038120129192713 10.122333480160359 -0.8731908565470639 -1.5997905234637286 0.20649017997887664
Ni 8.582008137073101 7.056083297586323 0.6437952328571601 -1.5993439228446134 1.687040137911017 1.1090093531764127
Ni 7.99626172745758 4.056642842475015 7.893255035089263 -0.663103189024916 -1.004242041560335 -0.3427072254638033
Ni 3.389063212235213 8.64553309304545 12.244254996282816 -1.1503773746002381 -0.34973045085917187 -0.5801645432481557
Ni 0.0963499671749311 4.9715293492036 9.762714118253246 0.35414914875215786 -0.2632285132111854 1.506321924689922
Ni 8.718302996148587 2.484547756217197 5.741919511833305 0.20563477395711682 0.6347783739382938 -0.33969466388972464
Ni 3.49306432671632 3.260741893023018 11.424611424258394 0.5927346666036825 -0.2659759940493355 1.7148021385156338
Ni 1.0235918280994236 3.588928434685459 13.071661417823345 1.375864921617224 0.25467136766979365 -3.2326495473466523
Ni 3.0740175728303836 8.493418294970132 8.139549326504289 1.5280549454916392 -0.7357175700575329 -1.028947514726815
Ni 5.88084890839665 7.788268579975846 3.339531001389696 -0.2820597869850755 1.992614720188581 -1.168874147852845
Ni 3.5861949090603438 8.413882688907826 3.5804554133956517 -1.3062070521097697 0.764709843524825 0.022830110520638103
Ni 3.7113377101038005 4.516837784425386 9.328754665267638 0.33220298349836985 0.3370364003312712 -0.5909078978075888
Ni 7.378085351040448 6.249384467841099 11.62507602442046 0.4818203615496024 -0.8854262222709911 -1.0584036152044032
Ni 8.198678845923299 0.22290312213725896 1.9012933048459657 -0.2679328606653902 -1.798850215306489 0.8477410490153916
Ni 4.924578095111098 0.5431306543051794 1.5158344065231075 -0.49784424778168457 -0.08315153311851485 0.04951841844510181
Ni 6.325832370539489 5.821437863082696 0.32691150180275225 -0.6183341123393415 -0.9370241489529412 0.7629118710841377
Ni 7.879791740274537 8.716786388908075 11.911737496578457 0.8325067485641405 0.33309644184691667 -0.7216749759215377
Ni -0.02084381400253564 5.207130197350942 5.599977788194044 0.23542254674251067 -1.0281180768469842 -0.12544412323913878
Ni 7.208797473373462 6.101710513721531 2.700959436105845 1.7860456073426532 -1.0816085925659567 -1.6170814493336925
P 8.83994034572595 1.5913750693213349 3.6614013733768296 0.8432454751378832 0.25440962936797473 -1.000119020530897
P 2.034869168665108 3.6275973785782774 1.6176886590182447 -1.4705591652680157 -1.2117622054656227 1.0535504008771597
P 4.948889218361702 1.2059570376606463 8.350528464768539 -0.23664742028854727 -0.4635698999798468 -2.036258682130777
P 9.063708024805106 1.7300583577636153 12.392868883632282 -0.6874841889724418 -1.595876276010987 0.5437114426274443
P 6.471199628616601 8.052703128653885 1.070232495559437 1.0056258092817392 -0.2372475157663914 -0.18062462506602442
P 2.4124044752673264 3.154824586160186 5.959264767915514 -2.3323302100139123 0.06659774252489176 -2.200924984095332
P 6.9046314475861985 4.207204707387894 5.623330815253786 1.3523352139264 -0.3098045611985116 0.003093037103026931
P 2.2451417677478505 8.709739160053958 10.147680800333973 0.7185536566837367 -1.8385387921453629 0.7507148147973135
