# total energy = -340862.6848153304 ev
CRYSTAL
PRIMVEC
9.38214868520442 0.00000000000000 0.00000000000000

0.00000000000000 9.38214868520442 0.00000000000000

0.00000000000000 0.00000000000000 13.73172296292206

PRIMCOORD
 96 1
Ni 2.2728254470780067 7.183010334715006 12.446268921576623 -3.361499096722914 -0.8226594234564155 -0.07919306269139909
Ni 4.729784938425788 3.8906831151652375 13.134420421202158 -0.970217090765142 0.3971868445689224 -1.6902447608912439
Ni 4.545209933181762 2.284956564944145 3.2135528252514978 -1.0061770537995187 0.1497410481132905 0.23564571849691032
Ni 7.74548889489342 0.1392667342470032 10.520353102232084 -0.19118851662479974 -1.146004185233207 0.8240902423656711
Ni 1.7577267362607654 9.067893328083091 0.4963362904702173 -0.4097780509703717 -0.38851245672337603 0.03064112192462465
Ni 0.78841945766668 0.5554973035626416 11.469105031922131 -0.0329779975879174 1.1880360654932764 1.2610744214371894
Ni 1.2808508979776658 3.904043294470249 8.465154092740587 0.20620967262398035 -0.8693156898623738 -1.567203333556327
Ni 0.19209292074761297 6.205728229990823 7.116671039890655 0.143877647353978 -0.44197854696231625 0.7071428437436338
Ni 8.998061997628596 9.045826515073692 6.80798240826165 1.2074764336060753 1.0377879958365805 1.2744693546868566
Ni 5.949661254027562 6.096060297479389 5.375598555234052 -0.18461523428265625 -0.9026958079847164 -0.5713428311914677
Ni 5.297714526817835 6.943615436437845 12.585453092917808 0.22975095027903011 -0.2920289823826454 -0.07211918656375321
Ni 5.381412672590312 2.2052739786818805 0.9554564129283631 0.7957191474221457 -1.0286119857642673 0.6365856023503617
Ni 6.63102101643477 4.121699754931601 9.607729011341059 -0.16200803840610165 -1.2941508922761842 0.6428616651670606
Ni 7.264090861087135 7.706768768494696 0.7640784118879425 -0.05717799187288863 -0.19244655740161695 1.3627080725202918
Ni 8.100059046785978 9.244718678758343 3.7732026676908235 -0.9329180972043676 0.09253708809847289 1.8957707771846384
Ni 7.694074721725258 1.64090022452902 5.936772996786484 1.003046478590337 0.3601747861209474 -1.1362813015184883
Ni 0.21422634701057158 3.811891832999866 5.714415141767729 -0.8137340959423276 0.7695090646856811 0.9599650740198307
Ni 7.193358844387358 1.0082994872960718 8.36886698026062 -1.4005248862577493 -2.6263682524067864 -0.08154330809113053
Ni 5.738178247205744 0.4372916160178086 5.724507518789078 -1.6855746091090844 -2.235462355750569 1.0831116594740442
Ni 0.6391203921480132 1.3809865677265347 5.524230550002307 0.3174556499858662 -2.2826837506313784 2.3875281953422944
Ni 2.919199178145054 7.903671916721017 3.8147411914654086 -1.5263297352704166 -0.5782089621836816 1.2147328580581722
Ni 7.540310691788575 5.975762390843954 12.738053736454335 0.7447364857266916 1.9547598541243365 1.0117535194460316
Ni 0.41221594802026307 4.602891381473343 0.22644847171607632 -1.2178204958445606 0.36799839593042427 -0.860258464756112
Ni 3.5692694756771117 3.880888152247799 9.90536453395375 0.6832462396316942 -0.8217312552151912 0.7855779452230858
P 1.9842774733942747 8.45825070795644 10.623176757494216 0.8131856796380252 -0.1214763968406424 -0.9177197921973744
P 3.6943522779906064 2.0400637277114093 11.4140412030309 -0.9659454599729816 0.4442120642785253 -0.43153524014180517
P 1.5650737012543678 7.739212237621614 6.279076927876112 1.6719608749803916 0.054462135603622334 0.7505947442796815
P 0.2706196263284324 6.48583227012504 12.37993056496711 -1.2411272888913012 -0.7562406297115492 0.09406612314848961
P 7.248826105659288 3.871881289794982 5.9752079058742025 0.269640073164484 0.628080393092828 -0.49974197902502965
P 2.435277346422303 1.124450484343856 4.311650731202154 1.0043682827255542 -0.7839982594407918 -1.4411380317934213
P 6.242609455305431 1.4905700609024735 4.086190199711371 1.7470681976381912 -0.29277125986530866 -1.3160044978161658
P 7.389295631329679 7.0893389652057115 3.849180243554528 -0.1351955461989478 -0.7626676162838155 -1.0127932735644558
Ni 3.5057898596815296 3.09940210224011 7.440588774783632 0.14164670114093025 -0.5096813496259287 1.4718915109261943
Ni 8.387049583837245 4.825848755774113 3.861113398089672 0.2880915950014522 0.22749455014468561 1.298963483173479
Ni 0.03457790788526727 2.4028338772953854 3.82843162239369 -0.7117985973480903 2.0278725149496104 -3.216092928539551
Ni 5.6230968150742315 2.408406873438066 6.823718147538593 0.0859820605887745 0.9942556197715844 1.1319788174883922
Ni 7.196286074684524 5.492816302553591 1.829779759453623 1.425549690436861 1.2466327920905627 0.5532111545877634
Ni 5.477054293261162 1.5275732541461293 12.384750174594206 0.17942520544128454 0.7704362044856409 -0.8177882114070432
Ni 4.645542628046786 5.391113814023867 7.926197516786608 1.1397306935196694 -0.135889744052495 1.5125362810307499
Ni 6.860724155426765 3.3722349773733544 3.1615372563716417 -0.7474194318754934 -1.2430229632521173 -0.6596208869032705
Ni 0.04946456273306365 6.646445268385219 2.924541373437381 -1.5866755833483255 -0.12112646970039141 -1.5192337476555835
Ni 5.210094643019025 3.977702541467192 4.952853960292382 -0.9324187889704457 -1.05850543088959 0.08803868600748709
Ni 7.978222467814852 2.9152117650800053 7.98494196249059 1.6536497353760293 2.2220278275122185 -0.9767764891502144
Ni 9.275557800510851 7.581338826690833 5.045584300318325 -0.13443681365605234 0.6270236696935395 -0.8129378252932774
Ni 3.218320833062458 1.5017160531878344 13.605116238341852 1.4038940598402982 -0.06841268424644346 -1.0367317866579242
Ni 9.13595143249219 7.4633958393008735 10.366448340069576 0.413301747852914 -0.9454563388806941 0.382975843175863
Ni 8.698199152988513 8.532538558895402 12.67115338915636 0.8958106508291089 -0.6702030332944909 1.0512752316897378
Ni 2.5322230857191332 5.435313115081389 1.5633699031070436 -1.227272642396396 1.3492475761400118 1.3177309935889692
Ni 4.222942518190297 7.721892791696718 5.619886243895738 -0.01466942908671667 -0.5672010411089522 2.0778745578993503
Ni 3.3814857756842684 3.4058793614939806 1.3683685163590418 -0.3702905343987107 -1.4561702435361954 -0.7341224576562712
Ni 7.126192044075154 0.6066206301307657 1.9417200483047152 -0.918634847812476 0.687518641754803 -1.24445995280896
Ni 6.442768209022509 8.959520132049251 12.851505489410792 -0.5472834762494188 0.1453658018637303 -0.9175745248687617
Ni 5.471650175789471 8.222411643918463 3.703761634609283 1.3730040551296612 1.0038808015661744 -0.2533976431636927
Ni 2.465178253335977 4.869766592379984 12.826705656575863 -1.1045772855469882 -3.2554063814271936 -1.0585717653511513
Ni 7.256594524524843 3.948420856347149 12.098664076647577 -0.3530921682425532 -2.9726670518765896 -0.029944352967916168
Ni 4.219489887583383 7.372661082237133 1.9733031744244207 0.1456805048906717 -1.4524151473691371 -2.070541000352415
P 5.533412858629986 5.118168353109962 11.366776754094905 0.07102235395514865 -0.5295060976613397 -0.649032826974779
P 5.6040885824394335 8.297027870051016 10.728979244869649 1.1226048324726603 0.3270309523791271 1.6559513869260127
P 5.801320105859346 7.196670742768446 7.361343396636265 -0.8133828832504959 0.04599575000382401 0.43279996578684166
P 8.763330027100444 4.642643544194786 9.114925099739057 -0.4969356199244861 1.3456894264751083 0.47634159782321833
P 0.9022239794025376 1.7842219233094685 7.657014297376432 0.01808333986427208 -0.3158235136990819 0.7113630524725685
P 6.413261352341145 4.075736609977071 0.5970330126927099 1.4528110972559753 -0.5444616905299074 0.12680989323841388
P 4.614938060003985 0.656178076132874 7.947179753442317 -0.31311177119487366 0.453561109593593 -0.7462377528625663
P 5.104395359275864 9.288993037002971 0.8989636828375858 0.033674766544625874 0.05161746706597562 0.14496830931499552
Ni 1.9641621472496507 7.511873400023483 8.656065801006108 0.007126583742452243 -0.20184805322117497 -0.7315860643876626
Ni 7.878011740878877 1.6334695630054463 13.106283358185493 0.21561733909112546 -0.09032825337261217 -0.278359712425669
Ni 1.403043998587548 6.039485942697634 4.630419543059603 2.1835430411734587 -1.9687669670367058 0.8682155148196596
Ni 1.078890771770024 4.839237081524291 10.986297799427916 -1.1448752138350864 0.14459292825344774 -0.6581232193118214
Ni 0.16261890158560857 2.6411685928046635 10.134066597712707 -1.2118730200118741 -0.6975585424893083 0.16870653347219977
Ni 2.9119092488473055 5.293717731604397 6.6828170430423395 -2.3742412484254016 0.16093614549816154 -1.5712340519822745
Ni 5.103016183462777 2.0082300982297348 9.5832594301294 -1.487489365364451 -0.022218445078568187 -0.590620448474157
Ni 7.126370304894532 5.4643227178981695 7.613663142533218 1.3310354240073592 -0.9636834034116821 -0.7055981249643332
Ni 2.8558696765236857 0.3400625358396504 6.3889587733708 0.009686374049828477 -0.3712572691873542 0.4356775444449529
Ni 6.296913330177206 6.3822533519176465 9.66832736956658 -0.48513348508323545 1.5830595838622932 0.98689275164861
Ni 2.4279967992729423 2.842584554405781 5.511268173788961 0.6652611159081834 0.7717189278528064 0.5194392003436409
Ni 2.7524314905421168 3.919842832356232 3.5521357962903055 -0.6429033170382734 -0.4409249088868213 0.12967667326324764
Ni 7.243168670181113 7.872232337471653 5.9251006659765375 -0.8696311642202637 1.2061042358488971 0.23010293430181017
Ni 8.62283235498489 2.723862848699589 1.466012287495965 -2.9464528553750675 0.771304208912891 0.981269749034878
Ni 2.3805981856149936 1.4356657285338439 9.632295228681118 1.1531999316506978 0.42023447041700535 -0.04563579556124398
Ni 1.18001156709967 2.2156506347993967 0.6315771448437791 1.998010694393172 -0.8108133227511068 -0.9093745055564726
Ni 5.00849103845014 4.948557874545355 2.4321211917044616 -1.0072558886859944 -0.19191819570197272 0.615473760072411
Ni 7.7034943987071625 7.801978810339682 8.310108461334055 0.4044106160108713 0.40092317168290303 0.837356363346958
Ni 3.4755699597226517 0.18515013094023328 2.4673023717311 -0.012205798037572527 1.895764092316419 -1.2135786898490712
Ni 3.6149886847735457 8.737913787116403 12.298487887667191 2.672906762287958 3.063126688620744 -0.56510122115713
Ni 0.5082478660640676 0.04171303173460813 9.224861361694398 -1.2824534013335978 0.7556868140906082 -1.969514386725692
Ni 3.6999815670236167 6.237693209549935 10.715659408802708 0.6316454847362671 0.5527648110789642 0.17294499703357957
Ni 0.8303454641697038 0.23754286218530124 3.0129456048414562 0.9178174941175032 -0.7687341341928696 -0.8251083992175402
Ni 4.454540851156739 8.041917873223367 8.989210878839026 -0.3882630597167313 0.20818556540342853 -1.3454621409556506
P 2.3413714232032987 5.494251771257009 9.285857523011583 0.44011732538386134 0.900939744525558 -1.310098673854692
P 9.143391476164151 0.5105052109663049 0.9493908539952941 -0.6944793893433524 -0.5577866897735877 0.0076006951653933615
P 3.742604667151895 5.561174635711116 4.3117060858776455 0.4945882027382321 2.216768635995808 0.8485380909953902
P 3.6094156886308655 6.183961645729849 13.67362374765875 3.4079658728258857 1.7020792916323269 1.842638416136033
P 6.957454105310663 2.0663712717923453 10.496144344745623 0.9978464224466362 0.9919506257874917 1.088123510866339
P 1.0733553042208972 3.828235535492374 2.16254016920262 -0.5794729164977699 -0.17909456157474318 0.4665433807858739
P 1.7044924263052625 7.435390126361646 2.0619278863156225 1.4268966913830585 1.6909366447519458 -0.6949049069165452
P 0.38452266062236773 2.5764599153702075 12.334313621288109 0.05415874543059059 1.34368165201646 0.04225222380099175
