# total energy = -340858.13748192426 ev
CRYSTAL
PRIMVEC
9.36407453671715 0.00000000000000 0.00000000000000
0.00000000000000 9.36407453671715 0.00000000000000
0.00000000000000 0.00000000000000 13.70526961964546
PRIMCOORD
 96 1
Ni 7.0291236757725315 6.955484595156484 11.422588167211908 1.6162741229410487 0.636326178041388 1.0767656626513586
Ni 9.426064512935685 5.903561940008421 10.630382795943092 -0.4845297900609656 -0.36707794099868396 -0.7213607871152286
Ni 5.297200670144284 1.0849122890507 4.814866564924038 -0.22750097790258883 -2.213553214382304 -0.32837358244995063
Ni 8.036754259288612 7.379152774631621 5.142435931476719 0.37246851588663593 -0.18221408104033135 -0.5258093655360428
Ni 6.5625680358165335 6.810266530279364 6.832899497961077 -0.13813020334723952 -0.196937503293435 -0.662735264162536
Ni 3.8362084274183914 6.234984623152341 4.666740018556665 -0.5607228895837763 0.5701796641213018 -1.672435757734281
Ni 4.1199679721676405 0.9418573253463046 6.926616090371233 0.5920481820596191 -2.390429942370122 0.9676706701942044
Ni 2.0593004086569424 7.282075415940552 3.5652889014052453 -0.8400547361147275 -2.121727036307927 -0.9372678895326311
Ni 7.697278472211605 1.9858298813790287 11.078462180817258 0.9472034034787881 0.9454617381973328 0.03137851431128145
Ni 9.128848793358706 8.245123641520085 9.552709872765265 -1.1449837143884927 -0.5053636960871812 -0.004820561317094923
Ni 1.0893695884369203 8.04479799914736 11.857182348627887 -1.1675860251690409 -1.8978549134071767 -0.3636380620791995
Ni 4.528485079359364 8.065857802339817 5.846092742964066 0.8297137592000355 1.2821962910174691 -0.8467938546107738
Ni 7.811351625831226 7.377251867540438 2.364898847583805 -0.3911162128948103 -1.7200836986295471 -0.47657299710773404
Ni 3.946432946483943 6.8147519218886075 9.330218530020431 1.2226479991401913 -1.3437590422216146 0.5010486136515951
Ni 8.52764712845635 4.164353684543031 7.717752084350329 -0.040447309381769055 -3.5529074426680034 1.2608936728849511
Ni 3.283278565742857 1.9289244016099896 10.586896034704417 -2.5953257812786847 -0.88392007003911 0.4362992371893518
Ni 9.271023534075066 -0.3501133755281559 1.3365324578474576 -1.5002134977993389 0.9586931492859423 -0.9426605213031121
Ni 7.884073027161875 4.948688551328405 3.6561681792901397 -0.35517836134762054 0.006740661157943229 0.7330981301568149
Ni 6.169323733874654 6.0437795891875545 13.39050082874725 -0.016607783760010108 -0.07425500195983341 0.6887075198565816
Ni 2.5819468539143307 3.07380422273917 0.19778048696689635 1.3512011003219568 1.1295036164750225 0.6665428108340843
Ni 0.46626160802169775 2.8656595782918766 10.448362982499193 0.2465993892949366 2.277886329242735 -0.17961880950932937
Ni 5.900865086598271 5.263686648078563 4.9285108439388505 0.11196537202641363 -0.8400534505631468 1.235882238442278
Ni 6.943891871122575 0.4119677685863076 9.482895080109998 0.4579481829176952 -0.7187138364106848 -2.2586449645146196
Ni 3.0357486246181606 2.4110712253434197 5.8371013587820295 0.6959320626294789 1.047822497254447 -1.8684600051848272
P 1.2238283318964618 3.9980009038787268 6.428360249549325 -1.6461853086781844 0.39320394866177444 -0.7098643564398549
P 7.66079603857985 2.6585824383194345 13.128277718574404 0.07517391422967698 -0.47936650069247116 2.083878340891269
P 8.955379316195392 1.4442024574328394 3.1716185340808605 -1.1119080148804463 -2.313780214925867 0.7449660852389944
P 4.060918119374559 4.915511635938952 2.7902694157740995 -0.5047900829718984 -0.11122463720564717 0.050536575296971024
P 4.3785475210144815 3.8735523558894998 12.193797410993781 0.3481412519951811 -0.5246870790061415 0.9749654040834048
P 5.914180800310888 1.7497241109501076 7.9642004748886635 -0.7771997484617195 -0.5036089181796036 1.1792382646959885
P 8.022165031465647 9.095512688705458 11.438678456151703 1.7706665537834216 0.0749743966243612 -0.13633531623034584
P 7.890665335497798 5.086302987840796 5.948087177091489 -0.22033248517860765 0.5041344516657704 -0.5817493712367723
Ni 3.6517174347559576 4.2424500645453 10.1242470865634 -2.812378053044124 -0.387126632119443 -0.4661821407917133
Ni 4.89440501237479 3.924998580317853 0.9312141184505518 -0.29333433145763027 0.6478706883458778 0.0823506344837743
Ni 7.212790629892975 2.3294071330173063 4.53274386036956 -0.16228443199593987 -0.9473427572701298 -0.9029225792835417
Ni 0.5511900166630137 8.60003142311073 7.0069289467699685 0.8570777530352852 0.35464460033133766 0.3861287869825479
Ni 3.7184364644341548 7.623648755669898 2.0925475546039514 0.43823630631106464 0.44707010255261065 -1.1602236712666987
Ni 8.681395865057938 0.5451211600827415 5.449653418857106 -0.4120475637308388 0.037106417933994156 0.045858710205327474
Ni 0.6482055724634338 0.707408059668271 10.836153647544991 0.723259032579206 -0.5739321891851986 -0.5932594287589008
Ni 3.09781370934898 4.694444568901355 6.08034255385864 1.1837142981894713 0.7732430778068167 1.6339404298725602
Ni 7.822195223917872 4.437119806016183 12.177474893010334 0.13723957321217012 1.7912731742901795 -1.06707131818173
Ni 0.5746657510353983 8.990503959047732 3.542565102202427 -0.7827525599591486 -1.208325668980248 0.577714024825134
Ni 3.0396066232465695 7.605154708846818 7.454090652358738 -0.38252358612979287 -0.650130430914332 -2.9341141313040566
Ni 6.005517981431047 0.43522063798938115 11.574497799612962 -1.819532169135873 -1.387266478585946 1.231453513246963
Ni 1.586695576676787 5.8482951732490225 8.523745118678539 1.0997994045423705 1.2497931920964154 0.027786426084648923
Ni 8.951755419425504 3.270468512044643 2.378810116424497 -0.8914495456469357 0.8442284078764428 -0.9854660465044124
Ni 3.4579091881244284 8.066129360495701 11.588339774303531 -0.6464506680698996 0.06852735544743682 -1.6593280167077296
Ni 5.400139939372694 2.4589965578196322 10.570202699377074 1.2420058348415126 1.1152460781147437 -0.570097903040773
Ni 1.636446903649455 3.6580194567873154 8.47392730677805 0.08742933455826232 -2.1061510362465405 0.5513095666896763
Ni 2.1166553639943397 8.33663874005272 9.227949728514822 -1.1662086852055398 0.9666725679469932 2.5899521756715975
Ni 5.524504210692854 6.328550453965611 2.1175187316485613 1.2130636978858655 -1.167538459760557 -0.009096820094945623
Ni 0.7574927476874717 6.660244695265414 1.133058613681355 0.6008043309856943 0.5015486932164652 0.9150540724397531
Ni 0.9224249982742773 6.604284987004795 5.826301771844785 1.224879202463555 -1.1368340886981647 -0.9608040249813581
Ni 9.360693909962563 1.3248666940336895 13.040042855283353 -0.9313001019849703 -0.431374803304541 0.8023011715150375
Ni 3.9008954529646345 0.7090561367522518 0.35878919040490675 1.6635705940341672 -0.5390214933509426 1.3847761080639247
Ni 6.89500203898926 6.819967711296432 9.14745895470361 -0.12111309996395273 -0.2469513733177166 -0.04434381622269783
P 7.874296933550081 8.342238456508518 7.658641365074032 0.06484656416173994 0.5410308104714876 0.5441832400575403
P 1.882122758054673 0.8169124814170156 8.23688044687788 0.5801390893268589 0.8942471629967309 -0.27519005644843575
P 5.3917029083916335 7.972919364507382 10.491986459223243 0.04291711107850028 -0.4595160416254473 -0.16753616731318244
P 5.017514497733282 3.006607625269592 5.358047488803366 0.6532414657394878 1.9574168321312095 -0.7663260389720092
P 2.170142956628987 8.476041714764204 5.223132714923427 0.7537150350762181 0.9109662755236247 1.6014938793080806
P 5.737152974898072 7.274162773122575 4.114733454611134 1.3057182853988094 1.8884212787981025 -0.21768502025343153
P 5.345238371512586 0.8154910149320822 1.9222328340860542 -1.3079196639255024 -0.6496774025373134 1.1847501956531532
P 1.9630845448052263 8.445842575015124 1.2365044793316022 0.9870102510630807 0.18367292497404497 -0.3332805328332647
Ni 5.846338081711795 4.004434022950856 8.116781511419955 1.4702228649745197 0.9110827464968309 0.520231100117317
Ni 7.553408834039561 2.194817292516994 6.730342282965771 0.13585683393203052 0.0499400793635527 0.8905090361105373
Ni 3.6873477376227 9.724965765894009 3.2517394269556097 -0.27689546917531666 -0.8280440848070965 -0.05699030134211476
Ni 7.258534133047782 4.418578938821399 1.3143133822516084 -0.12472575701587552 1.006175254027306 -1.5987908785546208
Ni 5.440658289045334 5.18180718204261 10.65472283437713 2.3855546165556913 1.0339205424613742 1.0915970712372363
Ni 3.2798325863854423 5.779665872405301 0.36653140706987986 0.9801232941352604 0.04654056676370049 0.6955913914606084
Ni 8.939469753890375 6.199232587319169 7.727427982366678 -0.8832855217789045 4.011024547063395 -0.4078934323531492
Ni 3.9193801357133733 2.8365653993150124 8.33854620199594 -0.6692008172822216 -0.9854436779069092 -0.29639857220525084
Ni 4.432231759210285 9.277615842410988 9.14270294134592 -0.28148463120789585 0.9481914784236701 -0.18785996647219905
Ni 6.233505099406495 9.071737303954169 0.26694260364060807 0.13624121385464277 -1.2195256514611255 0.07861456448010977
Ni 1.7446300545087128 1.1536539587865098 1.5965540741427806 -0.03105635508517232 1.4645772366529681 0.20863216602254392
Ni 9.1561825263595 1.3677166982171882 8.43889630466912 -0.4403592661913384 -0.2441542701885537 0.5443012536926433
Ni 1.4471615049245319 5.703779413947462 12.715351068775599 0.08289390858175401 0.22074180480188435 -1.646384569173184
Ni 5.580632472291606 2.181482850655695 13.249555590991836 -0.18280054967142068 0.08862849707268607 -0.7034656520023627
Ni 6.109468570688263 3.642671738942745 3.163381894290693 -2.5820174942055534 0.5023408501004574 -0.6245780363665243
Ni 6.920462957121893 2.040900002577271 1.6532114059417884 1.7511760491589776 -0.12860272347277854 -0.5672740604387326
Ni 3.838792911936452 2.756118636653203 3.2606484072834467 -0.4113304830591561 0.10944543381803733 -0.008094604082676381
Ni 9.242463107335627 3.1546723687463154 4.628063582306861 1.992906283287071 1.2464913814166918 2.044669017681659
Ni 0.13191171523884385 4.632370120096195 0.5568131433046639 0.2314730751764594 -1.6284189858336988 -0.45666803065369094
Ni 2.192523094303498 0.3511275047792645 12.928166513504085 -1.7317811895721338 0.13278487987492615 -1.0949783290046433
Ni 1.7104043627930903 1.5384050453012832 4.008914732522928 0.5402692497151147 0.9448035357880437 0.5775021659246442
Ni 1.0323049194040879 1.876008017510131 6.377225848796521 -1.611781377277018 -1.1827743028737048 1.5381349554354604
Ni 2.012583041770693 4.686831576462285 3.881030505658062 -0.2950364017504016 -0.21888906786386175 -0.2564906802667195
Ni 7.3239141000952435 9.122621683922075 3.661663954520755 -1.4376014793950727 1.8758966639685304 -0.19577047956852736
P -0.040882612164496936 6.36086587451571 3.5875875716329912 2.840723436956037 1.5074249279461136 -0.0650090578815332
P 8.329325397992555 7.404398319054416 13.95991333407746 -1.7200813846367022 -0.659744042744696 -1.2855328115898699
P 7.380866400235987 4.626011913618791 9.914007698686069 1.1995612925240566 0.07825152471373621 0.027418244111952775
P 1.6532835093142126 2.4392851813322487 12.224702601948158 -0.38532068925895574 -0.6428799199995058 -2.495068955938452
P 1.6025489545357607 3.4716462851823815 2.0987016242607246 1.3575540391231782 0.10950662607327592 -0.2139944587757218
P 2.332890568672084 5.9201176234429544 10.524399266146487 -0.9819446636147154 0.6508567675573952 1.4425701362542576
P 4.809154479576151 5.73772418343286 7.128000809551903 -2.0503956357527913 0.5932689418405976 0.3927097826341753
P 4.536191712541842 7.454383747885605 13.194185819414688 0.9479989027968899 0.03918772594305509 2.247905723720245
