# total energy = -381168.70309777855 ev
CRYSTAL
PRIMVEC
9.24511752751084 0.00000000000000 0.00000000000000

0.00000000000000 9.24511752751084 0.00000000000000

0.00000000000000 0.00000000000000 13.53116401231065

PRIMCOORD
 96 1
Ni 7.69897322868813 7.38954839372232 6.863574248891033 0.23170858822603324 -0.13815462882727175 -0.48500724391801636
Ni 6.078313389891885 6.974100552171673 8.862520255252191 0.2506439916779554 2.018028018055363 -0.5032749318789526
Ni 5.874199687469488 1.8149552265174644 -0.10940671956094887 -0.4235635347902383 -0.35665057501777286 3.8774925046097994
Ni 2.620676454881184 4.3590451286825 7.096243345491889 -0.6183186857203739 -0.868542302031459 -1.3423814451477978
Ni 8.314457675878481 6.830117093455921 13.296073634254583 0.41877202693886584 1.5887553486954897 -1.5217588280702823
Ni 6.02654997745131 4.571460946549017 3.0500058402395682 1.4042326741266395 -1.5079766866845254 0.30464641403633985
Ni 3.5866987742088456 0.7433203838184615 9.942753057152789 3.240484470010039 -0.12697701494389746 -0.010229905258124316
Ni 1.4042408850864054 0.31107231489024495 0.3145179701530779 0.40145693269918603 0.7467414319718623 -1.068498794656876
Ni 7.099926600272443 3.3294718722023995 5.10356275520699 -1.1998006622283726 -2.9714874297461917 0.21906750242325496
Ni 8.788075796242504 2.2157310667208727 1.7864386618321724 0.8101666903060434 -0.5332550231808106 -1.2106190930001148
Ni 3.366886862405472 7.17943461009365 0.6146357454110964 0.1358871729493337 0.22536644805808928 0.6657221147050019
Ni 3.5139489452224413 0.3748996810535739 1.6223461482138493 -0.3814192973220205 -0.06505508062812021 0.39704594811568394
Ni 4.537882680075689 3.37800873866302 12.1214602021375 0.08182690076982037 2.1706116778237714 -0.6601975853423468
Ni 4.668664111114152 8.930062309595305 13.244410993593899 -0.16706616965529938 0.2905120315174868 -1.2812573241429677
Ni 0.6108868502968523 6.718583996888125 5.129718116902941 -1.5325281507716444 0.11223508074803251 0.5093468491046453
Ni 0.8891445454127493 7.2891279282946515 7.5570874871152185 -0.034474379627785795 -0.9952388096204601 -0.6090190055860027
Ni 1.7416784258380595 2.6900980415960025 0.8664246693504685 -0.8200746934483747 0.8084538213799948 -0.3796331519558752
Ni 7.003860585150099 2.4303657127684466 11.708772952648784 -0.6368139163110839 -0.23949054616429727 -2.7090587867284825
Ni 3.339567540426209 4.022347197324532 9.316205902456385 0.22050063532535571 -0.9481979061815735 0.9229787266034685
Ni 3.030734392975347 0.5009956865830393 3.944131654918791 0.8835742566639169 -0.9858797370030634 0.6618225225402796
Ni 8.05787793209151 1.4016799875607688 3.8477892107855567 1.3760531263686302 0.3391331349592998 1.519628411990841
Ni 5.496000424008335 4.666833577864781 0.4345519521895474 0.3979892858655597 -1.2546008978977037 0.3896650822705805
Ni 5.150066620346718 1.438752908419262 5.280631715637528 0.11372014993399125 2.0455228810415225 0.14760497560689417
Ni 3.742192404113831 8.07947452638713 7.983467680016282 1.7688644675776763 -1.9730661086326924 0.5509344427384447
P 4.988924223697458 1.4075136566534643 11.534383227246874 -0.12205103839718981 -1.7793843932723934 -1.065229894097617
Ni 8.716537077638261 1.8076146032851346 10.209507052661648 0.6523814317320378 -0.890864105457111 -0.9329458651185095
P 4.690528813814985 2.9012010527887275 3.615229206570269 -0.34791679468920084 -0.6585420520167949 1.2855148138677408
Ni 7.8494929854205795 5.264484193549886 5.120719844117013 1.3366545699663495 2.818435314981798 -0.23637642601534772
P 7.250039571838365 3.403608468801964 1.088993475168805 -0.8312253107485555 1.2893329020622506 -0.3836602708373973
P 6.223683616220797 8.949366114770502 7.2911322697515395 -0.9181288547103349 -0.37950716790097216 0.2840079118503818
P 1.6670610831325992 7.134725222245352 12.90634848290458 0.07874491941038697 -1.8344335117277377 -1.1285235119499402
Ni 7.067901513525855 4.645079816573002 11.906882875817937 -0.7030370491053762 1.2895648155673984 1.1215751056565653
Ni 6.758920444196256 6.946744249722725 3.6105206682677182 1.7137675266035324 0.0320670557378738 -0.45101366058139103
Ni 2.098355055942961 2.450834402738697 3.0896109987596927 -0.3321135091083571 1.2068727385838054 0.8342502136178083
Ni 5.549095133357542 2.535473452728598 9.633783081964095 -0.8177239338280109 -0.6668950519671805 0.36843574057815903
Ni 7.7891501040132525 5.877518684623653 1.5117283182707402 -0.7879973532978558 -1.7844332685502107 3.090912857595077
Ni 4.165480105237546 2.8677614630767154 1.540969700161844 0.05719984624975955 -0.7161111086805151 -1.1033197589908033
Ni 0.9785032278461068 5.295862122077 1.6699483333031993 0.8247011364767927 -0.03201511945401583 1.6651631353322676
Ni 1.8207334249056337 7.356395402650362 9.7584044912649 -1.966255513468762 0.5043892479890538 1.4017150499111084
Ni 5.907519090655027 8.935822017748633 1.5120666895683514 0.8802976427951742 -0.45230923946436297 1.4329313276129128
Ni -0.023955948261478004 4.4073970927946995 13.430694562558017 -0.7098702699771258 -1.0685885261572048 -0.9779648530313608
Ni 1.0709081764697068 4.878879591034455 9.311064692658528 -0.12811884185782452 -0.8692812370800126 0.8514105274471788
Ni 1.8019288560711761 1.1854921617864553 11.169623590980729 -2.3627887836140853 0.31895666001142486 1.2569241467142418
Ni 4.328933781242073 1.130677860596928 7.573528079425109 0.24405219739305065 0.25016499515900786 -0.3044715790213724
Ni 3.2492057627526654 1.6603398827674807 13.064447386898824 0.29921110195338146 -0.38900353742718163 -0.7205722297756623
Ni 5.750601712667197 6.404499622742096 5.645918323596672 0.45036085748874055 1.0871269512810247 -1.448555664413731
Ni 5.403151709748523 3.2676035464205957 7.111397941968508 0.019564809505805015 1.253409448692764 0.5205244629880197
Ni 2.7729250485713735 6.488796603387416 5.856111615235164 1.3321476832349315 1.1795262282500525 1.3264416339890899
Ni 2.740483931540837 8.424770416946695 11.637572605342152 0.8610832746502526 -0.4168709532614111 0.7224416788842332
Ni 8.949911576698344 6.017674664727083 11.312147245655696 2.2579970465179757 -0.8652965414006517 -0.9852055937541743
Ni 0.7716733099254007 7.581282883917902 1.1955721133106485 -0.3179117636866783 0.015209874971218968 0.8431246332893029
Ni 7.00351851580552 7.2605882508158075 11.2280111300535 0.7861273899686525 -1.2010209077887188 -0.5788607368350676
Ni 7.705814615579723 3.7394003786526677 9.085865650933897 -0.5752833038964544 0.44638824599423765 -0.7170870994405392
Ni 2.97022509945444 4.817760119763757 0.5065242668008395 0.07860813672220655 -0.6577380680582608 -0.035928852686125216
Ni 8.309825872050524 6.058565819080478 8.95592552558075 -0.385443073769433 1.3412990107168965 -0.14431602044297726
Ni 0.7216794129592196 3.243501525303864 5.471420430320935 -0.06096419838819823 1.5648019232036858 -0.9637178561940435
P 5.306780605751284 5.80408471694809 11.805805082541632 -1.3618876335015255 0.31834036658366466 -0.5236684079336401
Ni 1.9413452267809201 5.1586368441960495 4.368942026881756 -1.0854081688177049 -2.1601670854516795 -0.05039902127784223
P 2.6753335890745533 6.100788270342506 8.350054151484828 0.2740986231564699 -0.6120667912733911 -0.9313877766027702
Ni 3.0397114019912066 2.516030970792086 5.311766497576468 0.0850664907530406 0.3839029829758227 0.568158262815899
P 6.921662246159361 5.178476866181668 7.080424949584437 0.059583258880271585 -0.511779626915854 1.3045445768056823
P 9.077642118987855 7.383788685568993 3.1135475322745867 -1.074477123727498 -0.6478742878903035 0.5237545398895431
P 2.5050570164132755 0.013037464587193686 6.38543711513159 0.7842898225392816 -0.33540195005164175 0.15414637626983776
Ni 4.565765954217637 4.454769074460264 5.205587248507214 -0.6210350562102724 -0.05075537617599646 -0.24490811763544273
Ni 6.332665060380378 1.857196168014336 2.5088669293024988 -0.8588176185445273 0.43856155086096726 -0.5047941967369565
Ni 4.353886353161543 8.41505379853715 5.678352969045014 0.747320444403784 0.04778138114933707 0.7318861121265846
Ni 3.359795857343511 4.5262893028296665 2.938616967503542 1.0118347663059282 0.7770490818164683 -1.1809899572797724
Ni 6.907480236035438 1.6963403700051296 7.9675688515872665 1.3034559717271939 -1.0225027875427357 -1.022882796589974
Ni 5.063523076168075 8.32843629341914 11.015057246353077 -0.6157349841535976 0.881430727958353 0.16882171889382538
Ni 8.637001332464791 8.627987342979246 4.83548300985995 -1.0027829405163053 0.013793968460298824 0.018963685586696373
Ni 3.019205731551272 5.438699186232539 11.776672793036097 -0.5217614207189143 1.3554832726370787 0.921082280911704
Ni 7.309374735446797 0.0266814088772096 12.32146444986623 -1.2731231250716073 0.505894886000303 -0.9557510359384831
Ni 0.2654864899104303 8.296623844373237 11.780515063836292 -0.5104526805743145 1.642437668710294 -0.562351940546767
Ni 1.047323881928556 1.003418819295892 5.331995739005512 0.06435394079603757 -0.5098135043284188 -1.2412211341566879
Ni 2.0472942724263885 3.464672469368135 11.676663735333666 -1.2776696067917093 -0.7694121340965007 0.04689460766900956
Ni 0.3731338636261494 2.445888264918424 8.017214207626674 -0.33896164237844206 0.718138423523189 -0.5659576556201543
Ni 8.868757935976188 4.044627930309312 3.245368114511179 0.0037707798963418936 0.2301232460167843 0.3058062386723959
Ni 2.0539969825566646 0.11811654468333943 8.45280993357306 -2.411254592424957 0.3059877585555827 -0.4878909932237146
Ni 6.797953329948016 0.17790194551017635 9.921901619321305 0.38993427677156717 0.18561976428777063 -0.9253603394617677
Ni 0.9894864273423386 0.5545138223101325 2.67389319978035 -0.9499771095691832 -1.6729489499252739 -0.0766129606690487
Ni 5.99338774126193 6.84461343757216 13.604096909419358 -0.10791768431960125 1.8948235827800208 -1.4788463449774725
Ni 9.217058489697598 0.14946488883470546 7.376175331372742 -1.6760849244510942 -0.059437477331026674 0.3105964609721877
Ni 8.302744112105984 9.219332788583182 0.6678247549579995 0.3131552228382994 0.34032972637056225 1.800993486901737
Ni 2.0627058831673133 7.536323877899236 3.1830440044405157 1.179281459229098 -0.202791905191683 0.11988231288064514
Ni 6.225504904352748 9.11085982588176 4.241275275902451 0.3349638340729586 -0.8188145957890285 -1.0899456516767423
Ni 5.1519063987135105 6.363377340453174 2.104041727668662 -1.8477299717263276 1.2485336086577015 0.6877729238574541
Ni 3.9652031265448944 6.574535822350425 10.139117502152844 0.6917709892732538 0.06428529234163122 -1.2518904409450762
Ni 4.642833253039681 5.770645127236078 7.424901722740494 -0.5402101143424052 -1.2633439341976564 1.2609306967704736
P 2.0076234735725746 2.0316792691022005 9.232421101316191 0.6957515711875566 2.7753171436360846 0.827929156495787
Ni 0.0893873422973627 4.69377385002978 7.144238448071634 -0.8320236382801348 1.2797910240100863 -0.19603581741477205
P 8.76886444224152 3.900265421779295 10.964085215963747 2.157864919681064 -1.1019012813767217 -0.05853476301109919
Ni 5.537825335221258 4.856330749644464 9.71626894410663 0.9196455484651774 -0.13778541841331107 0.3797300825450557
P 8.470108472779625 1.8593872608431297 6.173147030862 -1.436278389708275 0.05210263423251026 -0.3357822162091959
P 8.77336681442558 8.371028549378012 9.672211337036519 0.07636536343461686 -0.6053680390969768 -0.5900051834876614
P 4.2828561160154575 7.729528341764769 3.673088849438297 0.4784540161805309 0.07864336083551617 -0.9749211811090305
Ni 8.959924038865363 1.9830407063499482 12.527070314240387 2.344735268546484 -0.37224380147033953 1.905601647232131
