# total energy = -340861.1592391625 ev
CRYSTAL
PRIMVEC
9.24072392344998 0.00000000000000 0.00000000000000
0.00000000000000 9.24072392344998 0.00000000000000
0.00000000000000 0.00000000000000 13.52473352866028
PRIMCOORD
 96 1
Ni 8.235942815968524 6.157426842515258 4.379835959210493 -0.9834744699956803 1.6542680856863186 1.4646541126374903
Ni 7.486159738699932 8.755715040548614 3.439907435206691 1.0138595100454408 1.1026111629595525 -0.7445572798363499
Ni 6.431053910891751 8.515641039791419 12.606633230970035 -0.2547574996256967 0.25764587691708535 1.10195784564627
Ni 3.9127534168828078 8.869357460152617 12.850552296843283 0.0629820001491754 -0.7617294207402624 -1.0096935515932095
Ni 1.150719595546237 3.9828905094827736 7.970220262613113 1.3528921148711346 0.682732018999437 0.7439710683155767
Ni 5.166821265872788 1.6065644938277013 12.140097739483183 2.8439085195522376 0.3880105773862931 1.111663760080124
Ni 7.646634145826547 3.98823164775982 4.733291791164402 -1.3731575499883901 -1.5428570435014783 1.8720994017096275
Ni 5.856567361504758 1.0205917249279606 4.538184075822318 -1.8174254072055152 -3.2889867884858 -0.32256186086418
Ni 5.470951963059887 8.84488802389376 8.81525856754165 1.3934962615457418 0.4015721181208116 -1.1589293779353071
Ni 0.32259551120992436 5.162718384566546 6.2049444917336425 -0.9657587978834721 -0.34434501817754243 0.07813428240958156
Ni 7.05886867653624 0.7767567496400426 10.629534199715005 -0.8825964661316799 -0.6708144416262447 0.5545442715768901
Ni 6.979435415931589 4.888047114416166 13.426989562995475 1.2019107665928397 1.1078610985045825 -0.4529026500739877
Ni 2.001097190607087 2.2705289704407106 9.375885879579311 0.7878567139549334 -0.6760679767157002 -0.6321129112909888
Ni 1.9542559623608122 1.8215961334589532 0.08291978564259196 0.8417058985649052 -1.0587921088920735 0.5126679430580784
Ni 2.2418827270863106 8.431402602882157 6.0136781452181465 0.5432064779665677 -0.4365038970009902 -1.7339825680988266
Ni 3.4606972153030546 7.886301554742582 7.90273156141488 0.35700847257782387 -2.63828377289745 0.726114242639814
Ni 2.9990399018377465 8.041481027210464 3.553691237882733 -0.16974577336999153 2.168995996597219 -0.41692366087621746
Ni 0.7160812339983252 2.5407554525093268 11.591318883325847 1.8670196731938746 2.5064090635416187 -2.049459497091767
Ni 0.22050399618430877 5.044400158789212 1.6029245727769599 0.047092582612428574 0.244470772987708 -1.3992575895095516
Ni 7.272403318934133 5.213911993657956 2.6624520868577473 0.6538096795381321 -3.5605940126789837 -0.1554355273949065
Ni 5.423916679616695 4.966205155155364 4.217999469415995 0.46887691401505704 -0.7644524760983802 -0.4948671674312316
Ni 1.022994313080265 8.417144166270598 8.016163292519373 0.22528134454345075 0.7766243355742238 1.3817866864182977
Ni 6.696207235669539 5.450982759224772 9.342452941367625 0.11351986099772707 -1.7124678339555022 0.619284649178069
Ni 6.695052145211702 8.742630175842217 6.0049271799095605 -0.5735100140461156 -1.1683954084442136 1.0245380728052096
P 6.4743744234225336 5.502333460618448 5.882258421431823 0.7092945999793139 0.5330639902159271 1.5863603661007517
P 1.3894074877540257 9.245344024540945 11.975028844551469 0.43932773960303045 -0.04535091733097351 0.8992983522673931
P 8.189997937917534 2.2229207621304305 9.649789245593318 -0.3993468283347187 2.49333834640059 -1.2878971980569884
P 4.369734924174786 1.326746140597192 0.6664132683836275 -1.0198635501476758 0.8687410483058264 1.0344563603601862
P 1.7841249990066659 6.325968401399417 7.300285354441627 0.177738561767481 0.597664499805132 -0.4218758626751702
P 1.8804318210194253 5.878338506454102 10.221655125749567 0.13610494538709464 0.06286578628628528 0.048348309396400606
P 8.367318184281267 3.2428471549546765 2.2599021382285946 1.1292663036532355 1.0773372188841124 -1.1116542469984274
P 8.618638145735979 6.4901483387147785 12.803743411129828 -1.4265881590037044 -3.231543201656351 -0.44980755608843176
Ni 6.9412157828626215 7.0421984110487115 10.88870877628302 1.2604177616897971 0.6343477141587784 0.025076483352653587
Ni 2.606262942554275 2.1139541486997593 5.244499713053893 -0.6203933088612154 -0.9812139560962779 -1.0702466305859182
Ni 2.4209494702222973 8.972687232149035 1.011050677746213 -0.16863891345905796 -0.9898189241564694 1.7683931843682124
Ni 6.338535785580702 2.0180354370808335 8.170872412152823 -0.11933621056918804 0.5916494039593037 -0.41878462534435623
Ni 4.691506162833996 6.939182823656826 9.985013129760702 -0.7235953328727022 -0.5762009306147173 1.1971493406484544
Ni 3.062440506887597 1.3579428236824995 11.465781804223205 -1.4175587018115843 1.278608573666211 -0.13822250595072968
Ni 2.860854120185587 4.707677429243738 1.1755438755937402 -1.2853775169589283 3.064373159433335 -0.9719970654837002
Ni 0.38429212681637115 7.371269821401463 11.142906299086299 0.6068927032716193 0.17501653485062763 -0.9110840320484116
Ni 0.42004079037792946 4.427101336672886 3.9055234746891037 2.218733215921347 -1.394927851785946 -0.41349997990664916
Ni 9.200554236947792 3.1117767305228035 0.1201506612796489 -0.5410539503999391 1.6460883780890037 1.542570622609311
Ni 5.50281397824891 3.3202289749062066 6.224460900109285 0.9536579008548802 1.27164062698881 -0.017942443411033616
Ni 4.395257802931189 6.788448139270707 0.35154022993862954 -0.6010719828247841 -1.5598597487070622 -0.02131393098642781
Ni 4.007304501399653 6.245971456651341 6.021021748312902 -1.3265609331757733 0.5584076111870383 -1.2697534372684263
Ni 6.5897725805224505 2.443293540038729 2.971018331402946 -0.18093881387233354 -1.0106011510091435 1.9956229108872858
Ni 5.834703809318787 3.3214025468113704 1.2654487242529742 -2.035508434228314 0.28081383039311636 -2.151010615763392
Ni -0.06579857284032363 4.854798990677737 10.797903881139039 1.6374862382422894 1.5347336430633953 -0.11724821769190776
Ni 7.263153354547761 1.785612755516362 5.779835164426717 3.6902917689881543 1.0169636028920614 3.0431407324171205
Ni 8.0353267052511 3.9289616461872003 8.217478926018066 -0.194438133910349 -1.2700439719256515 -0.2931240152190371
Ni 5.334946992192127 3.828709035170464 11.01283849317183 1.3284560933159573 1.7796201634322835 -0.5419528080651247
Ni 3.6552052076794292 3.1496636975399124 2.344931581083383 2.07458251741164 -0.8865780764872474 1.1762228749084325
Ni 1.6746409050508826 6.550573430745236 13.314274912047207 -0.3294390475999875 -0.20878051867495012 1.5623766015916447
Ni 4.1596378309794195 1.0577856376703667 3.0632841849580026 -1.761140102350225 -1.5176620322930896 -0.9594392834233476
Ni 7.626092017124343 3.5641563574307513 11.423815057709009 -1.262708871716819 -2.0262090112042586 -0.06372787717626444
Ni 0.4170181496678572 1.8109415790758492 7.651185202230431 0.29032434098671284 0.40613582623209404 -0.792016758869894
P 5.697747043913768 7.874538113519953 3.8958401203629505 -1.9886891598819298 0.30564888715892524 0.012112981213450107
P 4.9297874632006256 8.996001577950052 10.867920844331389 -0.20122430359424703 0.11917654506287215 0.25309810964540286
P 1.7093952667463335 0.6959133546044616 3.3347932794710027 0.7327299481841186 0.5575298365677753 0.18169703219459676
P 4.841298293406518 2.7785192723508447 4.263712405303053 -2.130765492361111 1.2221800583648372 0.002491141852969903
P 0.18641404252020682 2.842234062005227 5.611087537404878 0.5834159603059178 0.5490074009190609 0.9727799663963117
P 9.206061708250767 7.927348849252339 4.66984683064097 0.864373258255434 1.4082767622890264 -1.0433184387365062
P 7.395498998845088 7.415274147483286 8.391961346144981 -1.080887912349848 0.6961212958221495 0.45754914770706356
P 7.634907667498568 9.262716585026839 0.8104290225945902 -1.5537981158940144 -0.9677825131817204 0.7801272065211596
Ni 8.871140919819519 1.014566773099874 12.706243611692212 -2.611089214760529 -0.5685210454719564 0.14896791739269183
Ni 7.98148100846849 9.669770462369195 8.255875980981356 -0.7806979914229651 -2.505804597188401 -0.6233811878449458
Ni 3.239169346936918 4.3818957165149115 4.805715962870889 -0.8419609519985048 -2.691443387639565 1.4500011386110059
Ni 0.20213898197703972 0.7178406677837051 1.6384542311877117 0.4699176965747456 0.4078260694503234 1.028991737701189
Ni 3.1384454590133832 5.501159888713285 12.052565908660531 1.6785603825747801 1.68315083015894 -0.3691145118127385
Ni 9.066110948379029 6.04809984086174 8.775617711173357 0.7581656146484039 0.8013999998570069 -0.2814092978852702
Ni 3.467313573445555 3.1636356717179295 7.201230341211577 -1.0848996046124024 -0.2220911197409272 1.2695058400339942
Ni 8.693913080692413 7.456857403965479 6.637370624036701 -0.2514713726752572 -0.44591079213718693 0.4014397063080054
Ni 5.397867079611516 6.286760010898541 7.712032595332275 1.5468121714944845 0.571499668484306 -0.2522488742712301
Ni 0.16044114052142897 8.186394055689076 0.01499492228747885 0.04905202033164455 1.336851516468504 0.5508166862136579
Ni 5.153699438271741 8.643209229955126 1.4173246380114375 0.639877385727756 1.714148564092035 1.3879755888378291
Ni 8.65877984932679 1.8096478777630698 3.7319337084680053 1.2416242831323778 -0.6833660530390101 0.28519421884899915
Ni 1.3951644585958938 2.9601549366650644 2.205911362084481 -0.5271687077774146 -1.260367882288468 0.3997121820939374
Ni 0.5025687693372225 0.6292803444173952 5.44769490974558 -0.1381818825207814 -0.3379316584520309 0.15878618903469427
Ni 2.456304478955824 8.747573963001766 10.196553623992182 0.8049468366680008 -1.6111375730454318 -1.055862079729472
Ni 3.620441605260315 5.9469786018207085 3.40693468503341 0.578923471752203 0.557241358793079 -3.189873589831706
Ni 1.767731955229019 6.257263620967171 4.671104493131466 -1.0726935494645138 1.1679665484369113 0.5951666730839427
Ni 3.09423783701098 3.854019377282626 10.562518623568302 -1.0067205850078147 -0.7360173606861388 -0.3942874115339403
Ni 6.571097078000115 6.79466714629571 1.51761051563336 -0.6212268605061043 2.9756775565681397 -2.1495468867336727
Ni 4.20881696231236 3.583617321464418 12.981769648781393 0.693607014040728 -0.7688994561261403 1.0303978740200965
Ni 8.75992881053881 7.2488764364888745 2.1874899794628697 1.4664376869004745 0.5141375856250694 0.1878432543016507
Ni 4.668894112031346 1.947990751717495 9.844477432081115 -0.7332832495844274 -0.850087180650065 -1.0232077840295604
Ni 0.3632288212995909 0.848464765262669 10.118055524622196 0.3503508580519902 -2.561058118345067 -0.3440529408584204
Ni 3.3382945896668037 5.276268396933922 8.598389872046251 -0.7069410121454728 0.3709348528509289 -0.21523604449230674
P 4.293656046259697 0.1448039879393918 6.5374774771704445 0.7790298596919228 0.2132113007527941 -0.9484827844118437
P 5.066679543540005 3.855063579056512 8.683934023209053 0.5653164224917295 0.15468656504402392 0.2860686510341525
P 2.1509540062452484 3.7671380934058303 12.856462663697952 -1.9290007428823621 0.6530118662271851 -0.7841152446346302
P 5.190311185423397 5.202083867369689 1.9533503714418665 -1.6222138854642512 0.55570383910263 -0.3338096658638574
P 1.7012819113704742 6.427117362611436 2.3359921050120778 0.557793374641807 0.5386751657551174 -0.21879676526037156
P 7.101930448804467 2.604849111833881 13.313138303036695 0.21568675887648014 -0.9374604651594113 -1.4522179437566667
P 5.502527515815366 6.022937350328181 12.186569338782949 -0.6838131678787578 -0.39202818318611843 -0.8285045693832828
P 2.9462661290000116 0.6315637272344508 8.278841027427921 -1.002910467233105 1.6263132523446056 0.5895938069818555
