# total energy = -381166.79469648807 ev
CRYSTAL
PRIMVEC
9.24229760218022 0.00000000000000 0.00000000000000

0.00000000000000 9.24229760218022 0.00000000000000

0.00000000000000 0.00000000000000 13.52703676654583

PRIMCOORD
 96 1
Ni 1.668086810389794 3.1648306686186403 2.3845460106883944 0.04927313520351514 0.16528696626768954 0.44235829889923817
Ni 1.6465892265542925 8.19055171443378 10.840715808046514 -0.05261531220287067 0.2668265149750889 -1.1638702668803502
Ni 6.71319819622509 7.858355817701437 4.637433645945368 -1.241366915705933 0.08543724382889802 0.5473253852309476
Ni 8.30180124866763 4.3622812089863325 10.095700681360746 -0.5421009036072149 -1.1367854948484162 -1.4967959874773575
Ni 7.683704123058499 1.585710213345157 11.166352446288723 -1.483356317032684 0.04734866448729265 0.8107032795358037
Ni 0.44271528946877015 6.5577797225459005 12.897704631085558 -0.18541330470391937 1.0360956957358223 0.05405178753908111
Ni 2.895232852418477 6.297886318653251 11.995369890138072 -0.34020014277123345 0.13710407607557032 0.17296248053507632
Ni 1.9669272556765982 5.54494407345686 1.1748207750963136 -1.4392564984999923 -1.8470164905990705 -0.6282806820290922
Ni 2.9940884657910156 4.979870008236498 8.879160175639562 -0.15460146152938534 0.4766614430564823 -0.5251704464004633
Ni 3.830571837508945 8.93826281928155 11.96772063312935 -0.3464525514388485 0.3690654037423579 0.06771668662068339
Ni 6.335474742324354 4.367336745683676 8.708976207577054 -0.12712793869946495 0.7168788400844751 0.6595542953313931
Ni 0.2336877937433888 0.7926416096018133 12.611675858504157 0.5960287639739219 0.9177380470298195 1.688135427857725
Ni 7.809889209948484 1.4731759997677423 1.1066264834668003 -0.8378834394950215 1.9842033561964343 -0.36025988963558603
Ni 3.354935484574114 7.192660860298311 0.7955261306315037 2.533621876510985 -0.3005187650212115 -0.5487585181330485
Ni 5.712137234069166 8.071566377246228 7.993721278634329 -0.4652323752839342 0.27670649309296214 -0.935198408598112
Ni 7.814316270420196 1.0258488038785443 4.400831755820494 -1.6841592168187964 -0.5981558376192537 -2.097442452728949
Ni 2.5206887488356307 1.6504432645849907 12.00002338689696 -0.6014967290670287 -0.0075266473943483275 0.9250924305123616
Ni 8.572258598529315 2.598379501080354 5.778046829772568 0.37872529542962513 -0.6274209051319581 1.2055817876865238
Ni 8.745311375715872 4.395322422319057 1.1886906908581096 -0.8573528610735428 1.6723084881277974 1.5396498494180904
Ni 5.237748591288159 7.283752943824839 12.293614207240271 0.30464769958792054 -2.081430393571409 0.2764977195162657
Ni 4.475074206891947 4.398594195611305 7.049384916990181 -0.7680543345170256 0.12237654005740857 -0.9122322867202419
Ni 1.9909110175223104 6.058806568585859 5.5589766536535254 -0.17701916710295318 -0.2731154333075942 -0.17306146800678582
Ni 8.900600457230961 4.497227993845386 12.457277734461874 -0.19013822098341449 0.8745838802398487 -1.1681796928889818
Ni 1.4535268754193862 7.734130097867827 1.9427669659498636 -0.9039636189535465 0.5324548958770184 0.7035962640429559
P 4.719311158928475 0.4739690424774254 6.770971797495821 1.4135626932783139 -0.7141061624353444 0.2677199733236357
Ni 0.48731214728538474 2.768862919579779 11.102274673937082 0.6167251159810089 1.7659658058736427 0.9914731719304408
P 2.452351201595864 3.3162934389953382 6.076101679777335 -0.9221174070444377 0.5965519834672436 1.372623788972107
Ni 5.449794621356049 2.197171369395435 0.9256225577962873 0.6226450810098696 -0.9803469801102922 0.706083549241184
P 8.224933060894687 6.694445574727999 1.6121524263087728 0.5318116058660648 -0.6645923719759329 1.7583373427941071
P 6.520588717664535 2.397313320366108 3.1608897529920466 -1.0712673585409487 -1.789242517013396 -1.460528520504891
P 0.003406710834809058 8.34637684920014 7.127327983954899 -0.8500907801944907 -0.84311486309729 -0.7929896643061246
Ni 6.709445823466185 3.1289797968654547 6.768915386316372 -1.9166419642066925 0.14649657303406383 0.342716481435184
Ni 4.233157071511787 1.3105577763861216 10.454153945107993 -0.5031803152826173 0.9483444590617666 -2.606540419047582
Ni 1.0984562925336174 5.420256238751465 10.454789815171571 0.6772419424191433 0.2818157892950695 0.1799031735189676
Ni 2.3984870921404458 0.7707142589355503 0.9745161596907717 0.8567993025629179 1.1937865948238084 1.142732970681103
Ni 6.617521933170441 6.928386607421127 9.947457927410657 -2.2134516558074333 1.1538169964094065 -1.9988283051984608
Ni 7.4285797446426844 6.394052423471993 7.559408161764378 -0.5398504170101412 -0.7495614179191606 1.7422504645345738
Ni 5.140565833751487 2.113750392740561 12.21304725203355 -0.16753179643780824 -0.9808393463656786 2.0772009288710938
Ni 6.106395158082418 5.571765220615341 5.773555997448548 0.4102009974404033 1.195678412529883 1.6444333589840843
Ni 3.943022870409438 8.484955856951435 9.606549316885653 -0.5317511849417745 -1.1089802997106901 -0.26027225879633886
Ni 0.5380736174916295 5.561487785866812 3.1369873233637686 0.13771239908353056 1.1236343021784392 -0.5295297518104235
Ni 6.572059072084099 9.068958147320169 2.2758695320606526 -0.03430108727471512 0.008165052309295614 -0.12067909775032765
Ni 0.6518675562095338 2.74632095613404 0.3793805978309622 1.046051007176321 -1.445760618167097 -1.3678237964803022
Ni 8.582785575308609 8.21112506852571 3.5510903084310144 0.9942368507185071 -0.9312317106408801 -1.5549049758049478
Ni -0.06322563252806643 7.099748044176946 8.999767536027084 -0.9394494705649821 0.8680357947086857 2.54687282798362
Ni 1.1598066629119745 3.6176570314820964 8.361994483407035 -0.6838486491023836 -0.8650851967207941 -0.6493750408055461
Ni 3.3464880247178597 3.237937241335243 0.3764951525715281 -0.5030371048365337 -0.03758490023230947 -0.2533675612567056
Ni 6.224086573628969 1.2694387950945711 8.626109768768323 -2.877010958533161 1.678839861488412 0.0565940943449606
Ni 6.4133318559229195 4.286864061910798 1.8932439636000062 -0.26538746853571715 -0.5697916846542639 -0.5498370959092079
Ni 5.403703284044077 0.6519719941705576 4.210546715065024 0.13640139358159087 0.13865625105403862 1.2625103825527677
Ni 2.7855082972615235 4.2524457462601495 4.16740921601351 -0.09044343879423779 -0.4624154746604294 1.2767838617526464
Ni 1.027484690524668 5.86691798922529 7.619779772844292 0.33996437261134355 -0.6891618337851808 -0.7073827276685818
Ni 3.858067672380233 4.636287601063338 2.2298909507773965 -0.17627071897270288 -0.7305419393938645 2.6866775908198055
Ni 5.688458468038832 3.8051555195606945 4.488406220942984 -0.6725915881313255 -0.4191047276879363 -0.6969504765916642
Ni 7.472249600026496 0.5581894778604898 6.641666510991536 -0.4849488798762551 -0.27002496730772846 -1.0463834508150753
Ni 8.483246031925827 2.062427915079968 9.082688504390685 0.33921721003267385 1.937346543743896 -1.6766030017380933
P 5.068577579024607 6.001032967315128 3.973729479409898 1.1367543845001649 -0.16370830892666 -0.20175086552167837
Ni 7.233548784153969 5.684872456633771 3.626098021730146 1.1968778321546225 0.5076769176013902 -0.5601659886390418
P 2.305324733988315 0.573843157027381 3.4396818066812713 0.5986464041024271 0.49922030219360475 -0.4806445960739464
Ni 7.223188168728519 3.153961726834225 12.940382787954515 -0.6131530823590343 -0.32881298398021436 0.7472006309964679
P 4.757389424363671 5.295790219184526 0.6543897791797438 1.0934441517483038 0.05231115069889055 -5.240855951325904
P 1.7840129471261206 4.147684304826182 12.497845874826254 0.922178085079044 0.4510293443106748 -0.1756179158800524
P 0.5520562892821412 0.9335090101981934 10.340797167058797 0.5388795684564397 -3.082411504992285 -0.6746345867032832
Ni 3.369972702502042 6.800953810377321 7.284024667369449 0.26303722313598565 0.19290807041906777 1.311517922799722
Ni 1.5262175447513808 8.000234325637285 4.373655704440482 -0.49501114920826356 0.022398936520490458 0.5148518380832746
Ni 8.423679424952564 3.257789696227185 3.4359488427469813 -0.01432155882899469 -0.19900621289700565 -1.4415000431185303
Ni 4.400664470236908 2.959854996089082 8.871260784021246 1.1341706829333886 0.9622554127159041 0.665168556194377
Ni 4.219515440496654 8.485796906018088 2.659740037985891 -1.0346152545355536 1.7102343166392935 0.2709883596622623
Ni 1.9283314215850011 8.362985257692143 13.096173726220364 -1.5230734331166478 0.17609639817836767 -0.3055820384767318
Ni 0.3438199342172581 0.9868370664023395 2.4132100719555587 1.0478492367273244 0.21826249002345635 1.2022658359394134
Ni 3.0905225972353936 1.5045628418594719 7.858125684495287 -0.8018537995649739 -0.29483302749034385 0.122907215749898
Ni 0.6211766591147144 1.1522372213121141 7.354893679876862 0.7270616941547479 0.42706614862685804 0.42420913879403715
Ni 0.40180980524798504 4.262177885459971 4.955602507859509 2.0993892920426744 1.4701444463281004 1.7782986164073824
Ni 8.47064878052093 8.579772586344562 11.316475083537242 -0.3648264259603459 -2.4958066054354244 -1.1064572761785203
Ni 7.860093369619354 9.186483201512877 8.728239003892597 1.7493035147266132 -3.4751577972913505 2.075848014387625
Ni 2.568942783747563 3.362079780491931 10.331679640638452 -1.3865314001921347 -1.8502848769376974 -1.1662865896313268
Ni 8.68427524345033 8.659450432537966 0.9114356312324461 0.5147443659711328 -1.4085996928460836 -0.8656778359994703
Ni 0.7141818982104376 0.931826912064891 5.06687607206669 0.9855835459188834 -0.1837199761618965 -1.1838523664292322
Ni 1.8140781406845414 8.394178011537724 8.31636803365608 0.634194733520682 0.4560640785211049 -0.23116994211374384
Ni 7.105672356833247 6.1542055627174355 -0.10731786090469034 0.02418276789379061 -0.38677259121413393 -0.13350967385609264
Ni 2.7903235342255375 9.338787020956225 5.9194586016879125 -0.4823631214269499 -0.18612884271370525 -0.3532230373934626
Ni 3.156300028085464 6.626579384657454 3.674700491255405 -0.9329574350827352 -0.5585919592837024 -2.0038987777428323
Ni 4.240643332434726 2.287708915075819 5.623364967199007 0.2046505556669766 -0.1049323764390322 0.03835880228385652
Ni 6.659713020964537 8.974261567793707 13.055551980530856 0.14025881965446813 1.0586468415634607 1.2858395441970112
Ni 4.126528685995802 2.213779777887437 2.8513910903023616 -1.0886559863310414 -0.08314896201535357 0.5601389920558483
Ni 5.57524956674861 6.772820256982966 1.8193185233305986 1.4295235874829446 0.4537912233265281 1.299921219101058
Ni 8.519900983555921 6.633196869621435 5.717756550910088 1.809083462998723 0.44677314013748215 -1.6972214493193933
Ni 3.953512877998988 4.181695959389658 11.636294619773404 2.152086365326074 0.8902316140794346 1.8858776864406424
P 6.142033456994582 3.0557715588770593 10.71678122058213 0.270155836458638 0.9721456752464226 -2.043312246543449
Ni 6.17351272206067 -0.16890760678663305 10.83242361878718 -1.2618938320146913 -0.045134173334477105 -1.0253731671119954
P 4.443631911015603 6.368608378631436 9.276895976177876 1.6408476985153546 1.0628153711188537 -0.1831103676023556
Ni 6.340021952662731 5.125999972992781 11.352524664685294 -0.616415298050074 -0.7206581046212491 0.6340134707478113
P 8.219221321079408 6.291296560581577 10.919564620159935 2.7887167048714425 0.19536424526904417 2.5904944213283128
P 4.5803347323874455 9.05939236947419 0.49220317108837164 0.7517322003182344 0.5487304931085905 0.6136567614683301
P 8.554457933668104 4.321337831346061 7.19703246698541 -0.14308754735251486 0.729409625561634 0.4082958099978904
Ni 4.434583701826027 7.644526024228451 5.461797593035827 0.7615036778827015 0.4693775078005593 -0.22290204567799676
