# total energy = -340866.9738933835 ev
CRYSTAL
PRIMVEC
9.33090259100562 0.00000000000000 0.00000000000000
0.00000000000000 9.33090259100562 0.00000000000000
0.00000000000000 0.00000000000000 13.65671912402646
PRIMCOORD
 96 1
Ni 0.4202367817010049 3.203168140111401 11.059880284907248 1.3884239892291574 0.8186119928599193 -0.4410904879304081
Ni 6.306924846710376 5.441772912803986 11.315834400769145 1.9673410332234569 1.7140873718367964 -0.1181226498770611
Ni 0.22178715076968447 4.067489623709681 1.6794756435052671 -1.2100454798848321 0.9710683830218437 -3.358593493040345
Ni 4.675985757898331 3.8475882483025705 2.046841666376902 0.7712538152909297 -0.5800588709082267 -1.1057124275926957
Ni 2.0133847829526332 3.8334052767483286 7.1688762811147235 0.7531933582447932 1.9641479802074557 -0.2484233298775528
Ni 4.933994538455127 4.529714532842878 7.07351072685619 -0.36648015951368496 0.041421757479896404 0.6698649332287818
Ni 6.705186420314411 8.755139009530907 5.976029588718285 -1.3890767923218077 2.596645014310741 0.22748195173919533
Ni 3.5170876874793913 2.0704525816537784 8.503915661154535 0.4204725545697403 1.0210102621576091 0.2628356486481409
Ni 2.0104828723254164 0.2517720054338653 4.794942632538829 0.3678143049440762 0.6120295102775525 0.17329749527699187
Ni 7.108281401329694 7.699618006118179 3.8333045030030752 0.7623770816265902 -0.42170565564589313 0.39299208976128447
Ni 1.0754144871980194 7.47942737273858 5.262534676697026 0.8348227982918268 -0.5602690898758093 -0.7323694795209064
Ni 8.1899755858014 5.8142065487355605 9.393514559187317 0.7298906789631107 0.8878731411495869 1.1808495750471664
Ni 3.035743759454984 2.6165809646131186 4.985739990462496 1.3221880009190585 0.3205995949314866 1.1662325964649398
Ni 9.128319117649546 1.4735640899739948 9.045719170880066 0.4060530367103007 0.1665918011220421 -0.5491020175153963
Ni 5.0670718676042 3.622722832851475 11.19947898170057 -0.8870475599244981 -2.6420316699756565 -1.6936275613205478
Ni 8.100958777493858 8.546397393320422 8.267518183503514 -0.31835733586452913 0.08712902970902414 -0.46677863672513153
Ni 3.2559064001275675 5.310468455099193 0.5290789582067682 -1.1280640558150183 0.15414277672541196 -0.21058337621164377
Ni 1.7320954010617367 1.707480480693257 7.059089817292322 -0.8305959046946728 -1.4446491302704734 -0.4990171850438632
Ni 9.33528786241575 4.097273863973588 3.7587664558538996 0.6318403743558925 -0.04633050763542343 2.018531182944027
Ni 9.368785801810308 8.77796239665043 3.384545019034303 -1.2254119350385735 -0.5636729733510357 -1.3756132106177341
Ni 1.0765621881856324 8.869955762803894 7.200709587532124 -0.17699988382924353 -1.7723629676492378 1.1766242241119091
Ni 5.638216399732568 -0.027786494073273424 8.357748009115037 0.13677420353997735 -0.5526653093866224 1.9232980360706293
Ni 4.403831329396646 0.5975136621364509 1.786107329247083 -0.38069938843686046 1.109068231438806 -0.524314269047755
Ni 3.554028729836787 7.118760004655623 4.832908207972972 -1.0275141247143982 0.3415579423507085 0.8697900583956311
P 5.0882250232051645 3.8825604702665815 5.059637004621029 -0.1893722893516674 0.022463471209838732 -0.8672688346356741
P 0.4700236773075616 7.596539527986795 9.27659928597844 -0.5438471968743602 -0.9167342883556534 -1.6268814661432498
P 7.380501146147746 0.716505994205835 4.005283297090824 -0.10973056915862392 -0.1388313431793222 0.4718930751335615
P 3.0177631106490472 6.082134078477988 2.669205387620758 1.8913027141109557 -1.930996690266468 1.0798854392272628
P 6.969549545363601 3.3327650426882824 1.4422038603051461 0.31607213937477824 0.49405161350847177 -0.4103555207403965
P 4.8747899631185065 4.610165572803844 12.954121575172614 0.07612470817872051 1.3259793496406906 1.7268426146199358
P 4.134998702127403 7.972164332518073 9.389622639822003 -0.3136113365391115 0.22565749693594686 1.142743255093748
P 7.958494560592438 7.506244386058903 11.236530128705558 0.1569838457186329 -0.8974214469596545 -0.2519552542902112
Ni 6.877005655972175 0.04869518003297358 1.8986800005077056 0.05016170845605555 -0.7769536938891846 1.0565771035186255
Ni 5.783675836284587 2.52788140698508 9.073483270787726 0.34200968517614644 0.552826517554835 -1.807436157203287
Ni 5.74540980579515 8.096871842269676 10.82154291266009 0.24765945512833473 -0.39042175793094697 0.38307045977219834
Ni 5.751866790213265 2.6142669008332167 13.317882137380723 -1.9113033256025986 -0.38756371965686154 1.1672417544557447
Ni 9.272798809456043 1.2430721404128948 12.07064094980307 0.43647998574159025 -0.9940280771418106 -0.5501826521740848
Ni 1.8792157382299768 5.300111153503661 4.84685137533712 -0.468339039233716 -1.1416891027976208 -0.9458762000269323
Ni 9.227161366119336 6.633273155993003 1.2563126908309663 -1.069644478225545 -0.4074794847441821 0.6575732603456222
Ni 7.525372735852452 3.488684420761555 10.235492264046261 0.49215696758892014 0.1358419215336951 2.458149457204283
Ni 4.894328872614943 1.085771788793551 10.547275034778776 -0.27453622491452073 -0.4625216612209905 0.19693236108711246
Ni 2.9569256274032223 3.1438609248490597 12.57289449687741 -0.3417613166107662 0.028019110920745296 0.5543095298582646
Ni 1.2590559761184312 8.675555743487404 10.795390259586258 -0.3587557942862338 0.8003129374404152 2.8532182269889375
Ni 7.548644006284214 5.164141244629709 2.750954356096985 -1.0597267048912007 1.4625686908633715 -0.9876530268534023
Ni 2.6033310832927095 4.469959434268297 9.814059260665482 -0.21594669740608616 -0.9153093829836687 -0.46187168634181747
Ni 5.673580519594788 6.705447685579884 8.26777758258852 -0.900595730922578 0.1962517900803201 1.049418123876341
Ni 7.357005934059865 2.162091373518387 5.770277593616999 -0.0447842461942261 0.3178338592608913 -0.559294898887998
Ni 3.9102545884067057 8.36338107485668 7.311520584431273 -1.1569444862947946 -0.218019777885031 -2.255781526923896
Ni 1.904231887399004 0.7237840980297222 2.3636369978455614 -0.012741615936384508 -0.40050999540488447 0.2769923997644972
Ni 9.11638489355884 3.8285998620440957 6.00022928393271 1.128399070556934 -0.36413634187185673 1.0028796139951697
Ni 3.7007758309114944 0.4609783005807973 12.534355070949461 1.3712431065744966 -0.1327859083161907 0.062013979808951264
Ni 0.8290889294590297 2.278037165974311 0.3812821306190002 -0.48707749618348367 -1.3356688090143127 -0.030523108289521626
Ni 4.927117663431788 2.2364773269594482 3.7674927157206928 0.5243592633530776 -1.6783845191185482 -0.49676515578489283
Ni 0.43673101776444745 6.073269721256587 7.327826336267481 0.6408806301812898 -0.7227820929427875 0.4976485868311107
Ni 8.98673200556793 1.7494508794110057 2.749930756110471 0.15508817135781677 0.15113201492354617 -0.3986243483463974
Ni 8.836691095967796 5.481093335257652 11.734508256328482 -1.3100022574861439 -0.15446982104752752 1.2364221701061482
P 7.373493638491671 5.815792802133074 7.4721231423881465 0.8928618526134301 -0.71608488342827 -2.467037503722532
P 6.976939620015548 1.2211071963084972 7.558870675247009 2.094143727373019 0.9858064605629667 0.6613291278436289
P 9.09553965773504 6.405235233746881 3.677767691925673 0.7689081978768887 0.4178140339009707 0.28227575965062357
P 5.603104214233483 0.1232976104082836 13.575707099161455 -1.6136335999944083 -0.8056083815113997 0.7697232375790163
P 1.062967063478705 2.416964970889509 4.764801951805599 -2.531961715199743 -0.366046414410376 -0.042551757319281555
P 2.7016228085245375 1.6489010758133047 10.959598278206656 -0.2778460060140441 -0.5425667875000397 -1.012291908448005
P 4.7948894463955005 4.598585923001993 9.300716869252287 -0.3234728027142235 0.443303693531643 -0.33624758588138864
P 2.7825683863094355 5.7664789832750705 6.696189564279806 1.0114362453159291 1.6479876519942458 -0.033863742626980387
Ni 7.277553300649098 8.12601225027224 13.138336914586834 -0.44596607085515455 -1.8356676412451547 0.4655830737551337
Ni 2.3890189183862502 0.20457723449689305 9.11886411431013 1.038866830723056 -0.09489324703547529 -0.6619467068229696
Ni 5.189278695529135 6.80457919202216 13.07360377961476 -1.4806936825988564 1.0117697173959477 -0.002498855162453761
Ni 1.8550207084667216 0.08770301725830672 13.559961201465546 -1.2292377365425669 0.052887849137966986 1.3026558444234018
Ni 1.539822827478382 6.196157705052218 11.170636229482598 0.960587795205494 0.4005007394335038 -0.38778920540410633
Ni 7.02016035964663 5.656980844334923 0.18226424773527625 0.39716087642699344 -0.5330027979606885 0.7685104482178379
Ni 7.644668322247832 0.25991881626544966 10.456771813728741 -0.08350094603813361 -0.5857124696495783 -0.13578587148477902
Ni 9.199140666397371 0.3219907778906341 5.404495957962411 -2.197667139279667 1.605099594381468 1.4899277996026146
Ni 5.11008732738384 5.656738240874127 3.550801170717963 -0.11323061189208242 -0.2940467841436226 0.7216441226836023
Ni 1.6356605253952332 7.538473322735449 2.421254386694433 -0.452329294069021 0.6333460123671415 0.6132806090758341
Ni 2.290979127517556 3.8096861230043277 2.6769080475010383 0.36806113084755965 -0.04224836714624982 0.5045957075729052
Ni 7.8936354584387995 3.5087831843982893 13.040062918069447 1.4901399156134205 -0.23943372478443278 -0.24727147566129673
Ni 2.400355964727305 6.912323121322704 8.539464532883054 0.03373055948322578 -0.41451428010377644 0.8305735360971696
Ni 7.912157299580358 3.693012520166015 8.088532814849922 0.5442637155864886 -0.22073486282334884 -1.7807504203819846
Ni 5.719152646615127 6.583231526752611 5.8635119697814595 -0.06859137591615283 0.7014635339706694 -0.061768182346732335
Ni 4.0577108380591245 6.193069176378234 10.904740037179224 -0.5664785611206309 0.2046346148273766 -0.655147167402633
Ni 7.12637402096369 3.0815118354244273 3.5885073470671016 -0.3420672778869593 -1.1399944887040174 -0.3075345342174123
Ni 8.353051765968162 7.372299282992366 6.067625458432138 -0.79947450069952 -1.472053233315039 -0.2989707038078012
Ni 0.3539939067305929 7.818092473107787 12.993957996525591 -0.49960596766779763 -0.63555433287237 -1.5325600324508446
Ni 7.481694782006791 0.9760217154902695 13.50130528318642 2.0942445146169417 2.2621285521878463 0.52465596865789
Ni 4.981526154966512 1.2068869011449024 6.339858266513464 -0.8073834711339515 0.5428982026975295 -0.2195912361372089
Ni 3.471926120161938 7.757814844002261 1.1175836341355743 0.19038093312183985 0.013247866148841702 -1.2407673344487213
Ni 4.806291809052924 8.005746250033676 3.1261592700230394 0.27770768066396684 0.7668019501671632 -0.08683155307326336
Ni 7.042461216235208 4.7203355367123505 5.287349278375545 0.4367262974244414 0.5885172860882251 0.7377433422383101
P 4.02170288593556 0.32275964424331144 4.527215717196676 1.5089768458142658 -0.611894784471901 -0.5325765090565472
P 2.8051864935775153 2.217610242431372 1.1514800030599774 1.6952746100056675 0.4938695794046526 -0.3135339463339568
P 6.837759880737215 1.9022537361032807 11.56755508624015 0.08845186228550572 0.571519465978648 -0.5438790785535601
P 9.128496404793975 9.146728987963046 1.1483597493180444 0.35167291929752337 0.16797608306407844 -0.579551335144189
P 0.944632560024172 4.190881476231581 13.070271714389747 -0.46039278780344584 1.0570792399660245 -0.23986489878458048
P 2.6827650548987996 7.244699193515885 12.711441600977206 0.22507128541517368 0.5226232544985774 0.2821549178020431
P 6.268612161709247 6.835193882594178 2.010132030397496 0.17140876289471124 0.06470926725292726 -1.5159699893026473
P 0.823986792060438 3.401393829386602 8.84155062990559 -0.9588962664356842 -0.17439715609907383 0.32013731058308736
