# total energy = -340860.604273601 ev
CRYSTAL
PRIMVEC
9.33458362127993 0.00000000000000 0.00000000000000
0.00000000000000 9.33458362127993 0.00000000000000
0.00000000000000 0.00000000000000 13.66210668391752
PRIMCOORD
 96 1
Ni 9.252308802329152 3.210256722965234 6.719666321410231 1.6127447696315516 -0.6971613070508896 -0.40365933966714357
Ni 2.7456931552046755 5.98865825988975 6.996037211608761 0.299862105273819 -0.4037912372593175 0.35717096629761713
Ni 7.223138301466634 7.078554932614293 9.33542673707458 -3.444120725479888 -1.518442619212856 1.8427016652738006
Ni 0.7160008511063872 4.339237298161516 11.76172123794328 -0.8187891418677318 -1.3609188418303528 -2.0415908929769677
Ni 1.4934867389457203 8.056109889015127 8.096957094371248 -0.3553801929457815 -1.9859180248946962 -1.2447700278502112
Ni 8.5133364738899 6.214489846347538 2.9896515699905906 0.2551753038894057 0.11651956705599933 -0.5072375160711264
Ni 4.5148114853100525 2.9935263557359972 8.24035403761954 0.7583095964254359 -0.44844564274389864 1.1305711385075883
Ni 5.659968894273595 5.380659477087221 8.399995957097008 -0.48826611717494617 -0.04373600743536984 0.015032725963406369
Ni 8.974492918554642 6.339769295851526 10.576903049227665 -0.24326543982569712 -0.815030446156248 -0.9835919694101513
Ni 8.403020362256035 8.292078833505949 8.190720188509742 1.2005344550706034 1.9700517472864003 -1.9078307936729657
Ni 1.4025492233307997 1.6980914817873791 13.073379618578281 -0.0105939734657624 2.4871635850484455 1.966153697783575
Ni 8.372963002342255 2.4981586613557263 12.811640688524113 -0.5502011641168459 0.20751733569181033 1.0826244354249808
Ni 5.9715759714915455 1.6024680050927327 11.389962102562473 1.8069026532973205 -0.403512272566318 -2.543215433736691
Ni 1.7720027165070407 0.722605069161977 5.521526748119165 0.24574372616286067 0.2930916193192049 1.4695937160309531
Ni 1.7400317669093088 5.673149326633301 9.236553891750743 -2.6810363333736276 0.7994763004717328 0.7211000772546743
Ni 2.5339474557375374 3.035055919169664 6.984041337936339 -0.9453509236510815 0.3810035499408406 -0.07633091065225564
Ni 8.671567004293157 9.127776119531097 1.5866626877616732 1.8967326268772753 2.2883671741694007 0.4030996105089316
Ni 4.375894208838973 1.0994832903119511 10.03052745499868 -1.4656478440093275 0.19906997625540554 -1.0045474886158958
Ni 7.104579752316038 1.6121292993507335 1.4255319021642523 1.696153670176511 0.4811852990687648 1.0792336645758767
Ni 0.4489934819418678 8.889314841159226 3.871936830423715 -0.18447253805720487 0.7630442828969439 -0.786807960975445
Ni 7.640123495475473 0.7995836481262558 6.128561268412659 -1.5612872251822079 1.318834253955477 -0.30390722187747016
Ni 8.256243366205018 7.811861168672282 5.346665723174795 -0.17752438887414587 -1.7439545917098738 1.6380122859490884
Ni 3.6205116820368577 0.9229485744879093 0.7662255793722546 -0.8033388687509326 -2.970681903125761 0.004872240490636771
Ni 0.9596045517069846 7.1769134423694165 1.534431957431995 -1.7282204688040688 -2.944174600863852 0.363311017757084
P 0.7070676543866706 6.612824541875715 6.479951408430777 0.6771817786051691 -0.742372099259573 -0.6433056946830146
P 5.025786603844311 9.198000193640217 12.654676861145797 -3.5430614031118592 0.16711656327726057 0.37627477700660356
P 5.130231262252784 7.454766664479223 10.226988706912147 0.7470432794829973 -0.48235000880082735 0.18533899982255822
P 3.561899830204987 4.957392108164726 9.191441715045366 3.3743044760176986 -1.5615337939753753 -0.47461973003610514
P 6.612115113505079 3.5498302133203543 12.2096608453714 0.5282513993186321 1.0860671425579427 -0.29839606225125387
P 4.606495767630905 4.905454483767126 4.244994406414462 0.1762241820054836 -1.3102855930545176 2.6360474273677634
P 2.215078072304394 4.070307938187603 13.178509435439446 1.8539954930200653 -1.4555922595455384 -0.09480942907241735
P 1.0663735214876722 5.172936983248294 3.01667519016152 -0.9572358480141256 2.322886548102509 -0.32303160141174686
Ni 0.5219796594045554 8.684150023288119 10.262428387858934 -0.5932321750653912 0.30363468494237383 1.331226971192875
Ni 4.136536810419985 7.660892944484218 8.349870175419676 -0.7737472711367448 -1.1593700650171517 -1.5457379645936993
Ni 1.1976737775582402 5.940669164449767 13.23063001768 1.393070486862233 0.6850326421081557 1.7378541352390908
Ni 6.531212275501126 5.292186291601878 1.3246381194424879 -0.0577901715355908 0.09960813601264136 0.6489474663498243
Ni 6.723504702278724 5.706875177989976 11.28349277292254 -1.3515379148360853 1.299460991635188 0.596798809370727
Ni 5.784632261245188 9.206532003255495 8.59373897820088 1.1964440870513138 -0.5538989246834074 0.9810141813806461
Ni 3.3193220003666646 2.0360874274762173 12.245195739073196 2.386531378646664 0.8128092701352131 -1.6679381269742437
Ni 5.402866452004886 7.3298605983282 2.485095844752203 -0.27074616174446925 -0.6299464997672892 0.8895230180481841
Ni 1.5903143769536827 7.0038969311887 4.171888746278825 0.38153114030953644 -0.47124361447502067 0.12068835372170827
Ni 7.91568974454836 4.14095206856881 10.323607250242448 1.3057275413701899 -1.2118467947596292 -0.7338751175321555
Ni 7.020167110794201 3.53838601355194 7.1389972963340815 -0.04921220005859266 0.33455682844252704 0.2488048815866876
Ni 4.243903193565418 1.5512211398981204 6.185136314054099 0.8319591035907866 0.351812015978549 -0.3130477507261576
Ni 2.7705231481769284 8.384491213365086 10.071076887130813 2.0560860012693496 -2.745209268507111 -0.3362604413971951
Ni 3.654237533393531 5.619335450887047 2.6821451754465913 -1.5596936554428429 2.011365004212891 -1.5082404818688735
Ni 8.771419047460146 5.590500921454232 7.97495408378954 0.037788531602683306 -0.4076386360298657 0.26602767322287735
Ni 0.634081476923983 0.9006463868152375 8.354459990286013 0.2172672159897226 1.0939447455338063 -0.5256633268764818
Ni 0.6434842032100546 4.20360579519654 1.116026039765119 0.8606029925797244 2.0520437128791755 0.04957061183927593
Ni 3.964481761373155 2.0486891156388265 3.471964848892781 0.5021004519548773 0.4424238620298509 -0.528257055745587
Ni 9.155173123054992 0.39011372755424367 12.929668099855114 -0.22963062265108194 -3.281768673470806 -0.5588824939409278
Ni 2.3839873666024833 2.9182522717780097 9.70497357608906 0.18428330486453423 0.6331873753020901 -0.45249075934754973
Ni 3.04012459818618 9.205458526115716 3.860419820901472 -1.6770472883643632 -1.8755863318169637 -0.46537481439906947
Ni 6.598934681145372 5.280546065573156 3.8537110555070515 -0.6700102005573945 0.48364404502190256 0.47399752307107396
Ni 8.028712885491233 1.05192358572788 3.6842874256402514 -0.41934872537794227 1.4083736928782067 -0.3357253948293315
Ni 8.337342230469279 5.108322994017492 5.469255879079044 0.34631345475782294 0.8998074306933277 0.36671001613630394
P 2.2314602669157866 0.9272592852979041 10.505149036829767 -0.8840594238304517 1.5964308629628763 1.0878422321804941
P 9.393951777276882 9.176539985428484 6.471890061840236 2.3898483588350388 0.23416322041411283 0.24926793726603522
P 6.307471635819948 1.626224520925208 7.691274214456698 -0.9424854291778284 1.307643270335664 -0.3406979083432584
P 1.8520747765506445 2.7680681526311757 4.936255810011691 0.3791675251733663 -1.6196052441968107 -0.5980820469585248
P 8.067208709182049 2.9641784241928533 4.81646696271307 -0.33972603134829227 0.0009662205680112393 0.6391610763870217
P 7.784594849321925 7.435238715119089 1.1262931485133074 -1.67062210156431 -2.790855862701632 -0.5007508799055183
P 7.822829304665665 9.152886150018075 10.330082651041264 -1.2801936587651437 0.5384064854747631 0.43033119253137503
P 0.44525871495382335 3.482602540618788 8.853345889309608 0.3970965988479612 1.362356345607828 0.28868551983170926
Ni 3.6238161247106087 6.164773852900087 11.281744405372276 -0.4765246603683018 0.32050986343115767 -0.8330075994599588
Ni 5.414824053883629 3.7138668548622347 10.480830579051078 -1.4486533663338599 0.5076301235238548 -1.2431692590219945
Ni 5.71737658479215 8.313352350041198 6.229414912423979 2.0091384288752177 -0.6114674671264952 -0.19293558122289353
Ni 7.952019944791973 3.7165738841712392 2.7570402753013186 0.006723948987394872 -0.31773949977487215 -0.18810550682410185
Ni 8.09453103603535 4.822143323136539 13.28975993891411 0.1770929577636821 0.5750549899357322 -0.595340993878278
Ni 3.9425174856349177 6.901543219556837 5.003186642947648 -0.10922843271122479 0.4296321095818214 -0.228674943606032
Ni 5.657737928739622 1.9956126720146798 13.441682157569003 -1.6392996373019444 1.139084575295238 1.5957868016209742
Ni 5.77189988890904 9.152167387063615 1.1103860842185644 -0.023089791939927974 -0.7376878064100263 0.39785867382496637
Ni 8.179037023395429 2.1464408774453805 8.956631192407123 -2.876427832336182 -1.042517540101766 -0.01212506539830815
Ni 5.01452909575238 3.7694729707027275 6.100485640644747 -1.5377588030429645 2.2313635030908476 -0.7572515874745668
Ni 1.8351791798289234 4.784067555717811 4.998268250730701 0.11333037069474029 1.3566132724764637 1.272030406228061
Ni 5.984084313815914 2.34518350164547 4.64671475549566 1.2700827955833869 -0.7339594497158457 -0.6076182685837341
Ni 7.250040572047849 8.16470843722535 3.4608716294761543 -0.7143121077985632 1.0169150090423134 -1.104672930584588
Ni 3.4879885954853256 3.042439574974571 0.9693526575945498 -0.06347488062519391 2.006264963982164 -0.7518041912067503
Ni 5.780786412709636 7.021875339634023 13.058583369758612 0.7278368817578755 1.4657956824411014 -0.3316969903962287
Ni 0.21724656971471254 1.970670664036537 10.877810826466371 0.9377132046001657 -0.5360477554345995 -0.7337450197121943
Ni 1.72940901051742 1.5969606006364814 2.536861712807439 -1.4811413116592362 -1.1078299881563307 -0.380142487492126
Ni 2.459756183503152 3.718804849705213 2.8257885517078396 -0.06519289175756514 -0.8735886062061148 1.3001071098596189
Ni 4.803119441302911 4.738766820419185 12.681031191656533 -0.31640869677859057 -0.865009349177536 1.5179114292997342
Ni 7.010841861553871 0.011675697447253395 12.635618441352019 2.4293708424096936 -1.3654426978426355 -0.2225714018114554
Ni 2.4715457628730597 8.77778523362822 12.361761354577334 0.17918634995760108 0.0654317472412486 0.9566059277396105
Ni 2.881978079037342 0.5446785668897537 7.998220533971247 1.5878575194715687 0.9605960227356101 0.25620503070550066
Ni 8.691767043688628 7.145605248223201 12.744355141402838 -1.360784630245334 1.5178219549097214 0.6803920580123508
Ni 3.4694127736752565 7.657429813885457 1.126961504715117 -1.4905836880190588 2.408105248162698 -0.33872972887329406
P 1.4541227989592576 6.8291255182490405 11.433052408411537 1.182658346121131 1.6294235158388133 -1.6883326314701954
P 5.484870770900091 2.990324593484312 1.762193002366236 0.47198049264104525 0.6826335457483598 1.1035904961536864
P 6.920044364696313 6.396234193403841 6.889308380538517 0.2348463625240665 0.2279534920589752 0.0609899094198111
P 9.115986540161188 2.457142500032388 1.3853782563862662 -0.5462876879950527 -3.898524899800067 -0.07099252915847773
P 1.8462779999958439 8.868965448422568 1.759706269235481 0.8276661326423874 3.9054640501220614 1.1268641219696465
P 4.984705100434204 0.13415663872075934 3.5304936229286166 3.704641609951923 -0.5491506113651445 -1.221242377041916
P 3.7436721810127622 8.87966288148505 6.2415741413133246 -1.9064778791894974 -1.732521667282584 -0.14921371485491075
P 4.549480129632965 6.075497893205866 0.7644436073202233 0.9274167077701642 -3.2730009545805046 -0.24588385128515075
