# total energy = -340868.4110732348 ev
CRYSTAL
PRIMVEC
9.25015819716891 0.00000000000000 0.00000000000000

0.00000000000000 9.25015819716891 0.00000000000000

0.00000000000000 0.00000000000000 13.53854154187590

PRIMCOORD
 96 1
Ni 6.104614261290585 0.3810972744037186 11.512756348943968 -0.937965686930604 -0.5390713727522716 0.6526256865323599
Ni 6.92234676091042 0.8388441360520676 0.08422269189654744 -0.598120613505944 -1.0337901875310969 1.2329671216780118
Ni 3.4822313659689375 8.005882561095579 6.417986501238448 1.2701275327783932 0.46635646158604843 1.3974233645142902
Ni 2.6385891727739 1.726394055949504 5.323692766876937 0.18686263555593624 -2.4256895369033646 1.58634056860641
Ni 1.301062524253167 -0.014564374342791205 12.7500704818216 0.3810907103380082 -0.11125857576737613 -0.4839782884328696
Ni 6.364108953852238 2.827301653540673 12.674755692428773 -0.697037894099148 -0.12825691009758555 -0.17755781321524258
Ni 0.7045910376325475 6.945749661569208 13.123220020159694 1.0344342488729992 -0.8581499030535413 0.6896161477137801
Ni 5.992641094304567 8.07771929094386 5.307365312350129 -0.3175242984402725 -0.40656262935686754 -0.2712007327833846
Ni 6.605112579845939 2.8096893520172213 5.307758444080562 0.30016678099843147 0.18397091583043798 -1.225880904255192
Ni 1.1812914737670062 0.5209578188229848 9.50432681453347 1.0065688899212988 -0.6975693411225857 -0.7292350476569828
Ni 8.595709658963942 3.6551353260930743 10.718882782790226 0.39303785539755537 -0.6580062341179829 -0.1951161338139801
Ni 6.032925533976117 4.873510684737978 0.9968266657205953 -0.45594555066536957 1.0951266816570493 -0.5021148501325804
Ni 3.620530483656503 2.2383625708751724 9.250371116799677 0.29070640691648 -0.5696083649988641 -0.6723900136434807
Ni 5.087429847044354 4.887792929250693 12.138264082666538 0.06463984746757255 0.257441217105447 -0.7519864824208855
Ni 6.382193013452211 6.969180312703085 8.961174165733926 1.9810555545960722 -0.5175036738838249 -0.3597554391953417
Ni 4.230023418204938 3.438727871187009 0.6400480576536173 -0.7908160536935736 -0.96762181923414 -0.45579771223359566
Ni 0.5569039342222141 1.4882394787316555 3.752220363193592 0.6510935661585496 -0.13104347170378722 -1.7887313817049326
Ni 7.26240108265681 3.8660389367730614 2.631595128035517 2.6450776558908315 0.25290039181229995 0.14448494192067377
Ni 2.0815538863029293 6.816339946068637 2.3096886919818056 0.44158876772306527 -1.0872285098558951 0.15493801893319767
Ni 3.9582445153370136 -0.17812197445679376 4.576758204321201 0.456778073868994 0.8693647979327543 -1.1970824919662608
Ni 5.9380281593284865 9.137001175900819 7.751735385083668 -0.4278922440725792 -0.3348044256769589 0.7714348209534844
Ni 4.3388977821393 2.3921372035042996 11.521596725291639 -0.4822865025527436 -0.11299638439408928 0.7358363550235844
Ni 6.076447529074772 5.266781167547611 5.864869581850111 0.3144826834004713 0.5315313556214846 0.25865066403251585
Ni 5.472513939702594 3.1994632749655816 7.441256594671802 -0.14741291420074612 0.8176660840068821 0.7629560940585118
P 9.198079971572747 3.8939189140796175 7.365156466833942 -0.7632597413418597 0.9433318363385237 -1.275509880136229
P 3.1529997295074423 7.687575361660973 12.41121405558324 -1.9728005136761315 0.9978682768235072 -0.7615936664933464
P 3.50872381952102 4.160582479372716 7.9918963216504855 0.5617904116163421 -0.6024778620333754 0.4882684311677914
P 4.451037451975856 1.0592356341651452 0.13190633324278714 0.43091123340456106 0.9235579961457061 0.07185924803414721
P 0.9253303417000797 8.951331997235526 5.298633162855308 -0.08890283377999529 1.0035157049172716 -0.7979498365248774
P 4.267162804033016 2.7880717319225226 4.356404631857412 2.4988011692873737 -0.32334938976248184 -0.398383693090501
P 4.902833686749187 0.3304739327296675 9.68319805181768 -0.4015134969687343 -0.14982358052476777 0.15358844688383871
P 6.402238106625173 3.79129765719875 10.763871853005279 -0.5526964197348739 0.22576188372429506 -1.033863978191826
Ni 5.746068872976245 2.316674411577662 2.3576831386490475 -1.7612635153019667 -1.0374807490088067 -0.2765864225753301
Ni 0.8704093764505058 5.402184985667509 11.303910898499783 0.650938271527608 -0.4915069927097471 0.6606614123526429
Ni 0.32784226267534927 3.7687920219011883 2.3139937156840196 1.1304019599195758 -0.7555268914739762 -1.0311918306763015
Ni 4.430576101676553 6.411210760237436 4.42653470748769 -2.168947402747471 1.6922422509372466 0.34680890633700273
Ni 2.6808716466518923 8.803532966909 1.074083063353849 0.7795150268584575 0.8168980954926061 -0.4957200023498301
Ni 8.001164980330369 0.15644885341191614 4.755317711268572 -0.9593251264429865 0.532447953898483 1.486953033245007
Ni 1.8164258472981143 2.293012506484706 11.07245621098437 -0.9141490441269805 -0.34040248859002664 0.335860377745299
Ni 9.011855783405665 8.21782218951224 3.11035834948496 0.5896830242615522 -2.420471997258167 -0.7568183565918902
Ni 0.47185520318383667 3.887240299741418 13.079341893964058 1.7474906298875905 0.19675032698329342 0.8084450796292465
Ni 2.1562581652437878 2.0546821762579572 0.011037288958919318 0.8219354008061974 0.1953141087573991 0.5609108372248661
Ni 7.5856756171324315 8.884814108446061 9.610266103219203 1.0200916069980819 0.32434414957558333 0.8373437649414674
Ni 5.432886261274827 4.653264414111202 3.529511700410544 -1.060406761677361 -0.9072458892492439 -0.07606017348937223
Ni 2.906085252319684 2.0608057810943676 2.968000262307641 -0.27120407521749423 -0.9556733886230121 -1.872537774798627
Ni 2.8093563463161475 4.398089545505145 2.7875583481333677 0.349790614673146 0.8608133088183174 0.0336228302607679
Ni 0.24268807983163185 5.420139543050397 8.839584534113568 -1.5999417043296122 1.0502005105683203 0.2364198776587735
Ni 6.535995396556428 1.7298351148605986 9.687245921117396 -1.5759527976141827 1.728426157056972 0.495483717969308
Ni 2.1656563261407555 6.643870743387569 8.836524581727035 -1.052627117731942 0.8836830143276394 -0.8015964321385292
Ni 1.802957616721357 5.030254618201679 6.9657420288395 -0.17490726296627299 -0.4215243928730224 0.35408589961439013
Ni 7.790862629943987 4.8778027582184835 12.609933357667277 -1.6656087075101187 1.5933725357525268 -0.20213344567207772
Ni 8.953727788251584 1.8117360170079935 12.60702233283039 -0.5210152865815092 -0.768796869110005 -0.037846124313496106
Ni 1.4066438318102448 7.32073258129488 6.559518549273937 -1.0965942673415112 -0.05898162074053068 -0.04244299965555916
Ni 1.5248516055330321 3.5557331243225856 4.990319834516256 -1.7320012760027395 2.410223322946965 -1.7967941041084086
Ni 0.8854501339489995 7.758043068071506 10.888913643726767 1.1798067356049489 0.15129270887112656 -1.6088714027190745
Ni 5.011439796091017 8.061383511274522 13.420607986456021 0.8101304377514693 0.14772967411021654 0.30956827681798943
P 8.64635427600223 3.2231529305336273 4.179279824472166 -1.08907379059475 1.1986158978916517 0.465819615245972
P 4.532031838603663 6.4270747818302505 2.1660448327920085 -0.03055267597587641 -1.3518420763400654 -0.472931800810721
P 6.295778034023596 0.5086162575348602 3.2997349916222065 -0.4583191931038687 -1.029915020846407 1.0112138448924777
P 2.6732032653688353 0.857832861139957 7.695293693799192 0.8009184322348981 -1.0115169779551936 -1.3151105252469866
P 6.504831613030951 6.695209122303092 12.180571531972111 0.447782555238603 0.38866209492736287 0.4728783218649662
P 1.0321604206361836 1.1141538243672102 1.678806616250241 0.9797204022698869 -0.5652025226216847 -0.7707249393706532
P 7.831803830859322 3.221709905828975 0.5567235561341325 0.3933800692283225 0.08288670949290242 1.895724754438051
P 2.66976220645774 4.04513125284215 12.080901075609091 0.8772367444816634 0.16806812855725248 -0.005804008276286778
Ni 7.673681623799511 7.8166705717771965 6.874695495118451 -0.7686672855106762 -0.42611921133255637 -0.4980167688038068
Ni 4.71612849034722 8.504660350195385 2.4598178372000126 -0.26782333167071937 0.615225905727663 -0.3221368575116194
Ni 7.256083224494773 4.477400403310855 8.84254920986896 -0.7980987033979158 1.0552241890351568 -0.1952241201467541
Ni 4.981219528718582 5.213361503000378 9.456373993578863 -0.8553746543012494 -1.2238900990774082 -0.23518626236198853
Ni 8.315328108818282 8.703344501677641 12.091691385339713 -1.0108127527993171 -0.3490550220587021 0.14383599548276516
Ni 3.078905961018552 6.077141290952009 10.761042229561987 -0.09073088812766955 -0.3854605572709297 2.0661624116687447
Ni 3.0723013479472576 0.14445417306241004 10.895669959395216 0.5400584192558893 -0.4983803227908127 0.27424131938192126
Ni 8.488639075910397 5.911156449283514 1.2970803310778278 1.544765573378101 -1.1278565677899026 0.3382679587455271
Ni 1.9747145572084623 4.246636702625169 9.689724038542886 1.857496049974156 -0.6653729588956994 -0.32381218833151326
Ni 8.225074313668955 6.368586030500007 10.705074146385705 -1.975984567831068 0.9874064580602349 -0.5872882987771305
Ni 1.494622088002234 2.5701565012032623 8.145855957446877 -0.08554831548546557 0.17233127470898063 -0.860112168986235
Ni 8.827453876436124 5.955399956734496 6.355127050081613 -0.48848466094365545 -1.992083016054827 0.14883910512431142
Ni 2.0470415454499893 8.93926979072997 3.3744818212915355 0.21214634982338948 -0.1153635990746852 0.06068086281982453
Ni 0.018980399945362512 0.07596415050992057 7.491267575862212 0.7737133325750158 1.874785176071907 -1.1651056819493484
Ni 6.797025615406365 7.281354657142918 1.6667971356473539 -1.4597677310794668 1.1233977606876007 0.9462893763049509
Ni 4.9611836857039835 1.2534797096330856 6.213635702742922 -0.983315318709997 0.4698871004471262 -0.6164502650530673
Ni 8.05906172152537 0.7714706076140113 2.1299238893997154 0.1264216566610597 1.0777511664930794 -0.8745576549876034
Ni 9.338589877109108 5.914828762153688 3.9477169101039045 -0.4917242509268757 -0.6681469220964107 -0.5435821161384317
Ni 4.884601624615404 7.401874970456496 10.92630740890983 1.3944126027124244 0.9708434114952312 1.7836706793525732
Ni 8.239652563249292 2.444881606491023 8.547463607989224 1.6494392968391078 -1.7994564814319205 -1.766386695461145
Ni 9.369670409209316 2.048133064136842 5.82578303768659 -1.734251762599813 -0.7672683482806204 3.9812313749613635
Ni 4.206259761369988 7.591216461991963 8.84674693173416 -1.619919690113436 1.3410951222362064 -0.6691815340085121
Ni 3.3766130577784073 5.84727485562755 13.471959315593251 -0.5094725760492322 -0.45576068834807315 1.2940056249475715
Ni 3.5912537324371097 4.288003410825209 5.629759231749578 2.1566086786764602 0.8735690658220892 0.7551489393092673
P 2.0249891679122225 5.694378988042922 4.7416302519386075 1.481880760928422 0.9499339150360737 0.24415606996076658
P 7.306293084089991 1.2514354246348278 6.750926526187733 -0.3863113353069992 0.23737735647603636 0.017396083989260364
P -0.3224938211097717 7.593380999048941 8.59517314977888 1.270244775082548 -2.337304266189736 1.2294686216064503
P 7.283297190399182 6.720748809543768 4.076820445362655 0.006945063859265459 -0.12273469472777573 0.134986001291303
P 8.864843016540005 1.4002334720645768 10.498177704308638 -1.1600498646929955 0.10082401069761344 0.5461797016622788
P 8.637381622389967 8.125459358256114 0.7566407537261974 -0.5008521813700729 0.5778004138913534 0.3686774242753199
P 1.5468854827540728 5.019931441468396 1.006370979119701 0.2573689691066148 1.276400767381615 0.8094205561686383
P 5.099695557033901 6.731700997045748 7.168170644427162 1.1937166608178218 0.010935158855265038 -1.25710823770059
