# total energy = -340892.7440880725 ev
CRYSTAL
PRIMVEC
9.04780998957243 0.00000000000000 0.00000000000000
0.00000000000000 9.04780998957243 0.00000000000000
0.00000000000000 0.00000000000000 13.24238448639182
PRIMCOORD
 96 1
Ni 6.4465827168405125 1.8828221164661436 11.587377352217581 0.3889045499554722 -0.18113241794037838 -0.9249366216607877
Ni 4.647470938445292 0.28383794256259215 5.983081506432254 -0.07416989844519484 -1.1349345576826069 0.3666323688208331
Ni 2.8318650024297414 1.4686314705289742 4.946559869534942 -0.23216290215463242 0.004556509022430862 -0.2511872657759351
Ni 3.241305548119695 4.30958047419339 4.862272281186359 0.41747207718051976 -0.664216733804069 0.30385117182855415
Ni 4.978032676601491 4.488446629978524 2.560335700583933 0.7867845639366773 0.9056191522790984 0.25412115159327847
Ni 7.1900955509646085 6.068655693362083 2.517563083615009 0.08214211801739403 -0.8594210564564813 0.15161846764166148
Ni 4.895969039949603 4.68095688323566 11.405016932212494 0.20349818723008822 -1.2480515268149601 0.28881304654850903
Ni 5.945451664664315 8.017879687379297 12.281715339020506 -1.3407611359355556 -0.3519017474788778 0.8655058291979805
Ni 1.8110458397782245 6.533649792419467 0.3239459794880777 0.5248351745482317 -0.10651231933164237 -0.5769023275571161
Ni 2.8411209120543144 1.8745162268910132 0.5584815006085748 -0.433704222768666 -1.52323798371897 0.5578368262852328
Ni 0.6558495078664901 -0.06499403831589545 4.611885901736154 0.034893469443075385 -0.1038730819365824 0.7577220993530821
Ni 8.747730328411402 2.3955615088655358 1.4094796031266539 0.15998586576975027 -0.3208906438093441 -0.287769178665027
Ni 6.819714401021755 0.7770630183654255 4.752665301348619 0.23902080561673028 -1.3551567425355953 0.5035610956608038
Ni 0.9784482684463577 7.32550507534522 2.4978840968765463 -0.41073938644237645 0.349352755804779 -0.001487897399436147
Ni 7.736872804564046 3.847355004994382 3.9166865634217345 0.40679891373738974 0.20542085817409783 -0.16634908898361675
Ni 7.462136054075116 3.891300218138618 12.712424571664991 1.3814964088713886 -0.5232727151571182 -0.5183930184673137
Ni 7.717492395555407 8.94340731516668 6.898752450011416 0.08239022947245811 -0.3830794586332628 0.033282416202213644
Ni 7.0555727119634755 0.555341005759416 0.3810340414306083 0.4197737287305029 0.9483079493968765 0.21069933296421778
Ni 1.8526476701338341 6.405098508014834 9.218659790825306 1.0025356003921897 1.0934834896266716 -1.3057550521740158
Ni 9.184884316115108 4.876154336061219 1.4124590469579068 -0.2956308408012909 0.3280136280073706 -0.2981965446459381
Ni 6.315226611337525 1.9014153660052429 6.9607797114300505 -0.00037255284807032616 1.136932304838926 -0.2373956113084815
Ni 3.3551541412829486 4.439000348357514 0.5256659985388138 0.4453839730994394 0.036071806021892715 0.033396830292890874
Ni 6.056649249499123 5.607687869752338 4.849095955491084 -0.9184170753747151 -0.05389289336371364 -0.9117499477671847
Ni 5.14800483516184 2.7393873364739583 9.201470761397385 0.9471535240774591 -0.8431799120072705 0.5296680771605007
P 0.037721224648884895 5.667665802207175 12.373604897326633 0.8941252927068859 -0.813180794542019 -0.342630606589597
P 3.957195418329985 6.214008760926866 12.590753241980323 -0.18296972825943328 0.8617535612443997 0.8795203983095174
P 2.4987517818550375 8.500345107536438 1.245063704684047 0.30688867310329726 0.6108876833636253 0.7647214134890508
P 6.3138965832683045 7.6002146824041645 5.831337065887218 -0.3459283035042623 0.6182641783333546 0.06697903712371045
P 4.854502926743914 0.8556993445913227 12.675438029187674 -0.2934991391702687 1.0223966009821748 -0.22658309407400978
P 4.041602437770499 6.188312980541931 8.122229889610118 -0.776738749664901 -0.23976128332718064 1.8252222775421143
P 4.854774361043754 0.9061019797287727 3.9217451939897687 -1.1039985302253825 0.8042680654334212 -1.2671429962287724
P 0.06727680077755711 5.65351502737547 3.684998388106568 0.28868140606665127 -0.5508064018010128 -0.42594334787632454
Ni 1.6089177644967276 0.941777494537857 2.682430467776351 0.3355680433158608 0.4675563954314206 -0.7784058529546788
Ni 1.6878870501304295 6.631737100571962 4.798087117083989 0.5503708569254908 -0.7917701900767268 0.21522704563124223
Ni 5.871838682547472 5.561435465059455 9.367291784732167 0.17812936944799646 0.39637257619774313 -1.2359876536718908
Ni 8.565842204088039 2.2864449203295085 10.03200633683146 -0.39823225511430127 0.23180500459458142 1.358289374627306
Ni 2.4025645138014307 5.405668368190778 6.929673340668288 -0.7474729108212482 -1.010030366107338 0.6004585176105013
Ni 0.2943551169004262 0.06690222144377674 8.87113974239605 0.1317723794500118 -0.252102835611669 0.8344319906113113
Ni 1.4488891491205487 1.3043503844552886 11.525389901162923 2.1455840454311823 0.2942419308735642 -0.9235366559894675
Ni 4.102711346474672 6.994309990489393 1.6367850192803897 0.10636885177524263 -0.2785885406070235 -0.5641853942110799
Ni 5.515155916936588 7.84887564448838 8.05111772217581 0.33640236629169806 -0.41067536597366044 0.3091599856359772
Ni 5.418570545243214 3.021389478388627 4.793809312518497 -0.9911533266971768 -0.3703982636211685 -0.037991905862741024
Ni 0.5466469651355131 7.520458237300924 6.873949688472957 0.05696613297239867 -0.9474227185784457 0.5226142556375128
Ni 5.174569205306266 4.583530065212779 7.0306469002090894 -0.8483306029702744 0.15063013558646315 0.4287692473608938
Ni 8.34176414175941 6.897851288135945 9.374972470636664 -0.6265495582705983 0.5624946367722183 -0.7122791365289345
Ni 4.654093935361409 0.29979375548823767 10.177408262570212 -1.2331974925212632 -0.1417909400282784 1.2935358844000047
Ni 7.986004252767985 7.342306858505371 4.4754621178551375 0.16675480906246765 -0.44225879720689637 1.5567376581383126
Ni 7.256406950415731 5.959928160655828 6.950835263464881 1.0105710691021563 0.48363273216799285 0.9813908479937743
Ni 2.2389710612873417 5.212515720424018 2.7260110541778007 -0.18806154096004388 0.01645248912906844 -0.15870005707879123
Ni 2.480547588145711 5.369097120192219 11.184041363931046 -0.15460968905950145 0.1417624007831881 1.5370509783426627
Ni 1.1182188372444135 3.063081786844184 3.8869047920431945 -0.03871284318916559 0.4505827436915595 -0.642916686774712
Ni 3.7716791221987487 2.5848055027145866 2.809040996937122 -0.9802760176630408 -0.6013221511623773 0.08708300696243712
Ni 0.9808006990449785 3.336434222403923 8.39859796024109 0.2167897621326718 0.8189097266059961 -1.5062910714519866
Ni 3.8086213304070906 2.7183511782362917 7.0348577509806205 -1.1856755356809001 -0.8252089293511466 -0.2422382841127635
Ni 4.1304428841084135 6.894974084557631 6.129635218383332 0.14132659879735016 0.31092376240461933 -1.704667364074477
Ni 1.047184480976059 7.48374222434245 11.280035008850767 -0.5956127594824259 -0.5188918124806031 0.5399995409934958
P 0.25180869518137017 5.456290865111099 7.976629816832481 -0.12079968248859196 0.7580709980520687 -0.1706680280739448
P 8.351047194813969 1.8543577062228316 7.88264840485558 -0.2952397760104593 -0.8770382553176121 0.7093563064551848
P 2.063805459790037 3.391526337461624 10.454121054761982 -0.823872212817594 -0.7076647776853748 -0.5700102284229732
P 3.8918702301682835 6.07543250304811 3.8444099428411085 0.9530416074271199 0.7345150651089994 -0.15734431438184515
P 6.743540888676413 3.7989944605727346 10.49412594665353 0.3295730020746904 0.03489578343592055 0.09854909862050769
P 6.4497946893886295 7.6535334267029045 10.27266089185137 -1.1784754183880348 0.38944551006060674 -2.5689575756978016
P 2.331720161542965 8.40978557729953 5.948108101678757 0.17309617789946316 0.9164836057974282 -0.728133844173004
P 7.104394694694852 3.950310034924022 1.6428506711008335 -1.622065532811845 0.09870516458239774 0.22245570216919755
Ni 5.265915895012712 2.9011350357491295 0.3874055092288728 0.6050083417647129 -0.25048149795816216 0.7411675374285107
Ni 1.2821199152983218 1.201838697215389 7.0659903603913685 1.1252204157186363 -0.26101967848532465 -0.7528483162005486
Ni 6.678595708534489 0.7833856279897186 9.149600571478794 1.3379596619310183 -0.5599942389478678 -0.17834997009923478
Ni 2.532391539415316 1.7044626380407117 9.091095622491094 1.400168788469911 -0.19667602210193225 0.6392857748903441
Ni 6.493658472242914 2.0379377710152027 2.791879110939184 0.07467254911322624 0.714741224916182 -1.6849140927069497
Ni 4.22770684155139 6.940873624660721 10.546181616677009 0.05573046079308467 0.5621305685645803 -0.6927256398770393
Ni 8.185209885421195 7.162762116970634 0.3886242492351583 0.24265068905983372 -0.2062063301898707 -0.43898038356594077
Ni 7.381465780162412 3.86538729031381 8.36100340493213 0.6655156551211506 -0.06800336462316675 -0.332527199607008
Ni 3.0849322479813734 8.561716402730458 12.260819421837757 0.541571513466306 -0.27975453589066657 0.4226603062496786
Ni 9.38393613599841 4.909947906391408 10.108666621354514 -0.9945826640937 -1.3478095581419047 1.943011198228841
Ni 8.683382303729127 2.0133639190696098 5.6543926649449565 -0.4943208080094583 1.3411187763852903 -0.19660865919910656
Ni 3.6538042535878565 2.561172623008442 11.7693414781449 0.577174093161264 0.11902536419698856 -1.2986132989229118
Ni 1.3607996710121937 3.5926862970736884 12.524263600672306 -1.42383630729018 0.2793853254767059 0.5624056766028379
Ni 2.7154920702779677 8.396222910117483 8.084727621963106 1.3243420711475835 -0.1297250100026798 -0.0744383216152331
Ni 5.574473359261812 7.7067707407116925 3.54958162547796 0.026030362625490654 0.6863716726345535 0.30404323323470217
Ni 3.1173053121423937 8.229046524845494 3.7728480992500635 0.7810270926276098 0.46254300137722915 -0.35967239256323214
Ni 3.5824713195896773 4.267164340938257 9.15656557561271 -0.9815335442192258 1.15922274080601 -0.4613083576391797
Ni 7.097871223688677 5.992663137216636 11.437672288045349 0.8778520094681591 -0.963902975621656 0.3989480502344033
Ni 0.5087013547987598 0.015361371808993971 0.642304936304431 0.2492211431884998 0.5592265075439079 -0.8569204015218146
Ni 4.919583824035758 0.5889110951827347 1.6311038993847202 -0.8048229094956267 -1.0877203618906492 0.2079433674856354
Ni 5.863062306852617 5.478249899968224 0.38918159433083155 -0.2895350123161981 1.142931459845154 0.14942454531413624
Ni 8.063905896822313 8.793322242974671 11.01872339883197 0.6001173322209987 0.74940406640569 0.7630468540001053
Ni 0.2788471705695182 4.90349681786519 5.84117565447545 -0.9098846124236716 -1.0577371852649977 -0.4497569053561545
Ni 8.018133026059148 8.688892420015897 2.6348109389932697 -0.7340504667677552 -0.04219540242112733 -1.3660803314266345
P 8.539205451463655 1.4740872999557757 3.478628699499558 0.3489714612059603 1.140949653528435 0.37949174128200447
P 1.7507059949236004 3.3878257831737937 1.6503449721194396 0.559396714573185 -1.048556032986362 0.13020014986688547
P 4.632723008153938 0.8012279092992581 8.072107736582504 -0.27080324023464974 2.1832118830862854 0.4796583209012772
P 8.723509341055601 1.423130034065651 12.315060137974957 -3.6482835428771687 1.0005867041959349 1.9935192342807218
P 6.345156766799977 7.726060671620384 1.3198049487072279 -0.8374468661782353 -0.1901960708045434 0.8209555533914313
P 1.7105518141671419 3.1082213109077195 6.017749999988928 0.8147404257196549 0.4611818593636445 0.48658667258999433
P 6.924144223980529 3.914444516105049 6.020027333764593 1.2956308192558204 0.012157461298140352 -0.1524067678709117
P 2.2262588882447942 8.916535319482435 10.169290567442973 0.4784493881948405 -1.6353524797287387 -0.3697205208278536
