# total energy = -340897.33999080554 ev
CRYSTAL
PRIMVEC
9.02765245516758 0.00000000000000 0.00000000000000

0.00000000000000 9.02765245516758 0.00000000000000

0.00000000000000 0.00000000000000 13.21288189723948

PRIMCOORD
 96 1
Ni 6.533998271190675 2.0320162631335754 11.395225783110758 0.32342292331289463 -0.06282901951107889 -0.12381327250393515
Ni 4.391934923149871 0.26854648395765557 5.906422947031872 0.8683525546181561 0.5902283552420609 0.27193761094940905
Ni 2.6173241179293236 1.509288095997951 4.685512379406318 -0.3286111523820534 0.1415204599757111 0.8722081809188206
Ni 3.684762786224289 4.461014520665056 5.037622426672857 -0.4762176706508444 -0.6493606426278429 -0.01806611347309147
Ni 4.9598555190833284 4.448104977480698 2.7745072852341006 0.4694333007391593 0.33271129059335597 -0.4575175231381798
Ni 7.188060728008856 5.907443071773013 2.671843014603913 -0.4036853078090725 0.1875655751602318 -0.8487512354474608
Ni 5.238313462804696 4.678680251936442 11.417251449866841 -0.3571509116929591 0.17770616586764879 -0.28883258693253483
Ni 5.633498954339883 7.916041604123214 12.344465396221938 -0.13372924606606645 0.05223350338341971 0.26290892508823754
Ni 1.855173576813009 6.384428123303639 0.5214200602772932 0.07208139134728231 0.6831475092703009 -1.0712411332887033
Ni 2.8251406802397754 1.5653859291081658 0.2463835968824098 0.058379211269841386 0.2731033491227361 0.9023265975707557
Ni 0.6125090747739246 -0.1249752112076875 4.721002789980214 -0.1617298450440505 0.29340837922867535 -0.11256958126931581
Ni 8.473968588654513 2.32361846900629 1.4166851441642447 -0.01247473542824303 0.3849823320829305 0.4367939174375832
Ni 6.867669338069763 0.7401320964822922 4.815514187568587 -0.4130762621056693 -0.7403558401604926 0.3578309684791192
Ni 0.7201927202366321 7.27821989429011 2.6140100666684996 0.5597348146388941 0.26706665601035295 -0.22281411394988077
Ni 7.420847777345837 3.70148199879592 3.8113088089802827 0.354155576510061 -0.6983866948175586 -0.138029158993001
Ni 7.542991916705542 3.8314982512023112 12.748581041685775 1.2443023441851733 0.28570432571619825 -0.4855548888913702
Ni 7.860467374862433 8.75918824415566 7.010451593984547 0.2143140468986696 -0.04433970245763977 -0.15577234190903494
Ni 6.926204637375626 0.6272584535533692 0.47533750493541954 -0.4743765036770476 -0.2599896945589135 -0.27427654349523084
Ni 1.769374766726192 6.560656929249005 8.999571160370486 0.9738297478170649 -0.2705114200258438 0.40077533325112913
Ni 0.2615220674879005 4.750088983816359 1.4128005452605876 -1.4240065143194574 -0.012399144995301226 -0.15290119100882696
Ni 6.328104598879012 2.01187557023546 6.841458451579226 0.7867789075097223 -0.32008486007859716 1.524343558078323
Ni 3.4586110615310166 4.441966173728694 0.37955050003799057 -0.4527998059475363 -0.964682534100158 0.6285581040601949
Ni 5.9759539271758815 5.687394040221439 4.747982832470266 -0.3112631480219091 -0.03519043185820391 0.9599043959852243
Ni 5.375705307366067 3.124921939346776 9.379322977060932 -0.2624253005835997 -1.2363100700083158 -0.3820844417098452
P 0.147937948301209 5.5792879006181515 12.5552637921784 0.6237642822159774 -0.27896726410268086 -1.2568521558257257
P 4.013360312355397 6.14292938923036 12.467120500717472 0.3454624196114373 1.0974656142028711 0.14030149996694546
P 2.4337919410495896 8.315497175327073 1.49997878066109 -0.5006665477218281 0.7650841961451081 -0.633057020371813
P 6.208307649189191 7.845941881866886 5.846304197464096 0.3989321093948033 -0.8088009203067684 0.03684725073533654
P 4.831617714234502 1.0948827321274486 12.574898033766974 0.04952356065142439 -0.3910601628458943 0.17325224386135324
P 3.9760580519094035 6.291136361578348 8.237439577324583 -0.40577947133393993 -1.0149350024978068 0.07636356366240396
P 4.644835582427238 0.970960145210178 3.7054731239999796 -0.7819511471037759 -0.9455627825515716 0.20198972100536178
P 0.053552035083648926 5.453027151683575 3.4977666990509615 0.9514099853609679 0.40644358728049995 0.5019410435588775
Ni 1.3457973078379912 1.2117818053402216 2.502480641208214 0.6311412914063389 -1.093526169939149 -0.20442455569909956
Ni 1.8794489345911503 6.384545482787133 4.806159733968844 0.015076177606832102 -0.01052275390819478 -0.38504892365480786
Ni 6.037287798780451 5.685471150222649 9.133140696830978 -0.15703475356122631 0.44495562731276916 1.1262920515162602
Ni 8.821795014773512 2.2347502570434714 10.138654182277614 -0.13905502915435408 0.5615065618273362 0.3739517853003818
Ni 2.3814496114111883 5.193121034006863 6.922995306884689 -0.6448316444092378 -0.4408773434783375 0.912756277544512
Ni 0.5552204942888728 -0.023841127689212482 9.023565758153499 0.7127655892470499 0.6431930803645504 0.3305564490338823
Ni 1.6761913368318184 1.0122977663578565 11.449992940231201 -1.0070427442339236 0.64132491680756 -0.4423531566929156
Ni 4.197271650643343 6.646311296894599 1.5557245353208224 -0.05583253358858772 0.8221590867812293 0.13004022725025347
Ni 5.591168291408793 7.859375028900679 8.109855374522295 -0.3163451905305068 0.8603371405128473 -0.47663856023834683
Ni 5.2777733322164675 2.69280432112123 4.8645207995799815 -1.0237932242193852 0.2913450689417434 -0.6824265719438763
Ni 0.7286805191890338 7.168290168866376 6.739785417201935 -0.5185655394894361 0.7763060330028566 0.3436978715118468
Ni 5.028646231716068 4.481055909384831 7.309961120748995 0.2371197319392755 0.1711807060443052 -0.8993006662602383
Ni 8.226394244397266 7.186390612282208 9.026129611485217 -0.5044946632186665 -0.6729571990008604 0.11402791098239716
Ni 4.737134302369117 0.5955325741038636 10.376010126583548 -0.5108118636859461 -0.6556603595936256 0.08023693057488117
Ni 8.096116190066157 7.108671551251336 4.755672586934908 -0.3350407100574811 0.11843426758020895 -0.10742968893958918
Ni 7.295923120992577 6.123790765768233 6.95671449202308 -0.2849211676932706 -0.6671488198491994 -0.2929088138844375
Ni 2.2594228315349776 5.289653723007109 2.59436228360106 1.1633161941490935 -0.8182911191853907 0.4426670883889086
Ni 2.2933668052225227 5.329402477301327 11.342175685510362 -0.20453048514934455 -0.27125215484661025 0.2912327117335952
Ni 0.92913503082337 3.413084609587854 3.5472364296395282 0.05782051055289397 -0.7228401998742325 0.7713977970679619
Ni 3.55509861226838 2.6813753129594127 2.92913743239025 -0.8365582929256948 0.20796393631092572 -1.580536303219807
Ni 1.1137956642751634 3.2771733000490246 8.19526328725255 -0.42660926359509754 0.3667403551536071 -0.2824284831784039
Ni 3.4787246714714026 2.654761793163965 7.025289443759241 0.5414848672897706 0.4541133825526372 -0.2662274479385092
Ni 4.1062368020621705 6.870991514217906 6.118344382968846 0.25634746982063594 -0.03987601025933133 -0.3486783554455737
Ni 0.7636301733735985 7.276928939971675 11.114108292940362 -0.32110893046773725 0.33416344965885036 0.8322743208383603
P 0.22187893672882641 5.415508227575744 7.8873508214699175 -0.188733627326404 -0.39287664722934273 0.2701422096118832
P 8.512155559053001 1.6000521150018294 7.9581583116882415 0.03779444513995426 0.6168295027693571 0.001472985001100689
P 1.8071013268432805 3.1956084590205744 10.460757215145206 0.06523325807719733 0.5035834642583069 -0.19018398661968539
P 3.9365169336244437 6.14800292997834 3.787473097882616 0.05194836804283311 0.6543205577362795 -0.2288556921582704
P 7.081326791597194 4.045742502147212 10.434040780110386 -0.20164827850554304 -0.13393699120149835 0.6148474393423217
P 6.493220364502738 7.813045115878212 10.19099019255921 -0.5095006010736903 0.14887535767888554 0.5100217636844829
P 2.3732615305243256 8.40309248827661 5.899142145228945 -0.08223981993752288 -0.4636038385415758 -0.25772249579129164
P 6.718360992107445 3.823219893789684 1.6631454760935547 0.5051035004472592 0.3462972568079068 -0.3499227693756361
Ni 5.37556989257742 3.1194331265802795 0.0861590134246185 -0.5712160758056163 -1.0956738124097711 1.056977681391154
Ni 1.5781600575038779 1.0900348826938817 6.9272229565862515 -1.0464220173624945 0.40774790791422033 0.186594212385898
Ni 6.876390050458638 0.7845246752618498 9.242344598987565 0.20437133386366096 -0.01085828287074259 -0.6768282519204925
Ni 2.791828642232583 1.6403605837557897 9.212959589851138 -0.10647555255643598 0.37094822258736765 0.325297257517472
Ni 6.259557632865839 1.7597422614270932 2.590847818453038 0.5849403673702442 0.7994642162868748 -0.49548191819709503
Ni 4.187919002574115 7.142985658694517 10.322524896128966 0.24016648918539932 -0.7166235295405594 -0.058548904078486265
Ni 8.12012974591958 7.074384526765884 0.41206900738371066 0.34069919389483905 0.960317572263243 0.5057493615613741
Ni 7.477812265103394 3.8927508739336933 8.348625951986962 1.229445995898631 -0.4762459527856185 -1.6199960518773262
Ni 3.0407390790711477 8.21280762726967 12.467979030477494 0.5408022394004492 0.0479256200366852 -0.1370544537845575
Ni 9.048235624349232 5.020385929608593 10.13607769023229 0.6871550877677971 -0.892897848057688 -0.062416614564008634
Ni 8.730994885159328 2.355134004150764 5.849792482419645 -0.3700527073562917 -0.09644773600678873 -0.27350958342221926
Ni 3.792643234513163 2.7706136586778665 11.39492155121893 -0.6195476730314685 -0.2223618569038106 -0.14696245692688883
Ni 0.9957049409222958 3.4820919858824277 12.587622510073516 0.5276672446803881 -0.595513000679768 -0.5291096335538694
Ni 3.0093860416730505 8.584187198960693 8.133427478164728 1.4186920440850792 -1.0512343511494735 -0.9792699449960297
Ni 5.570034556727265 7.880617095413125 3.6179382963227065 -0.6306399262898881 0.24389818831368962 0.08480423823058944
Ni 2.9304211645866247 8.266666602540921 3.6641174475471483 1.0752284000712256 0.2803248065718398 -0.37883071065923785
Ni 3.3804315902187443 4.388125253762599 9.35729731030485 -0.13415707763210444 0.21286703003949792 -0.6168706404199376
Ni 7.319169326377 6.141223162893406 11.446544376946987 -0.09993003812843436 0.16115211816370956 -0.4230516281508263
Ni 0.5971593570981444 8.940743365121145 0.3306693723974098 0.2953634460725171 0.4928681347233318 0.14826832022250594
Ni 4.561284657831963 0.21735698555327013 1.4614505649952108 -0.05426518910146783 -0.5872260780806273 0.3193199568881146
Ni 6.129974707783119 5.611516620316167 0.3477668436119955 -0.9394929222084077 0.32237956965004483 0.5949216469526721
Ni 8.008719485473303 8.909661157300343 11.543579906195742 -0.03930136870278393 -0.5299917790485066 -0.7403576399327056
Ni 9.003025140246246 4.788871779284895 5.492238760649492 0.019191742437102432 -0.020086229226913794 1.7364102037037126
Ni 7.9515924999693715 8.67836367063848 2.6609953872680205 -0.5821509775505651 0.5112852037779387 -0.27638561941843365
P 8.491716953619862 1.488984905353459 3.666548594385993 0.4928331677203383 1.212950055126137 -0.4120763600862451
P 1.801747928865431 3.1889370237665595 1.4637101864351025 0.8717117008983761 -0.3587120855324919 0.42140946456171297
P 4.748581365836087 1.2018694428112524 8.082623460525358 -0.02971063969055528 -0.46170199353317265 1.0820119986519625
P 8.547237016965182 1.7571603527902215 12.45928540104635 0.09137263547672651 -0.6431097766221247 0.14712263665383693
P 6.348606397880187 7.642359288614801 1.5505841899437778 -0.777830440067183 0.2640193845435969 -1.237687924192449
P 1.7850828822092581 3.2956258219153396 5.8117914816642315 -0.15354165280630333 -0.15152667925880356 -0.31271093621202917
P 6.7209880390071985 3.934512794752466 5.924841163818395 0.7785994570227236 1.1248195807357917 0.6336794844471603
P 2.4343516555093307 8.431610842765693 10.195033678148214 -0.643893963086317 0.712378124000644 0.8579053911429032
