# total energy = -340872.43039082584 ev
CRYSTAL
PRIMVEC
9.21298144618694 0.00000000000000 0.00000000000000
0.00000000000000 9.21298144618694 0.00000000000000
0.00000000000000 0.00000000000000 13.48412960892884
PRIMCOORD
 96 1
Ni 0.10620725128029075 0.6293304778305437 4.781768669021342 0.5963411530080182 -0.7538119656653985 -1.0759051144232763
Ni 6.030301794067196 8.174521906465147 1.6816998784675592 0.005814806909564179 3.004602467132606 0.774023407616267
Ni 5.324780880136471 1.8937191441197505 1.7559168939202516 0.25597414564161725 -0.42162595144789317 1.099418624164184
Ni 7.774438969780734 2.103019658917256 2.156813336875314 -2.172636164452968 0.5759767304190532 0.10553170058592794
Ni 7.042532076697794 0.047088469987742375 13.355275324770432 -0.3397658834472923 -0.6743116561462258 -1.022687392749716
Ni 0.9662298657636236 5.172278396579683 12.171140019443879 1.0646416256943148 0.0817677653971108 -0.5141121317037727
Ni 7.1629365325428775 2.793827441316524 12.955618949131672 -1.0715854040019996 -0.7503630878848496 1.8217410038617334
Ni 1.0365986188238996 3.8763067082472804 8.060771987191867 0.5111746463420036 0.45493793533646165 0.6424495173303064
Ni 0.0330313027424728 3.0666053989767295 12.136202550819217 1.8680802532479053 -1.0198360393438501 0.22389911948394345
Ni 4.911265416355715 8.626381799446856 12.993091830278225 -2.3321034387150865 -0.011807019937257085 0.3131716778985316
Ni 3.23477916414592 3.936025254638575 11.715861189009871 -0.40102832980219966 -1.0537540322475336 0.7651245624647404
Ni 0.5407541093378218 2.216136646358218 9.828461228933593 -0.5472929893311155 0.3751961992304441 -0.21507046544871994
Ni 8.91310821117007 5.752106603257023 10.136775499019054 0.10932716307261815 -0.3174242825272985 -0.5343670252980668
Ni 1.070401048121903 8.752968165910353 6.785753382793085 -0.5761273970643045 -0.4920063009436688 0.19169733794041824
Ni 7.53687302759531 3.5463345611398123 10.643455396103219 -0.19247638219828786 0.8385269866162913 0.11349106464232066
Ni 1.7356428067266876 7.158256337916716 10.8154046411106 -0.6339273387919082 -1.850799868900903 -0.5430434700261422
Ni 5.16620704173984 3.32485448473643 9.670547961313924 -1.4240291400272764 -0.33797588142640506 0.08584630634185861
Ni 9.129014433737177 6.155100842110465 7.312524028738016 0.014477367680568615 -0.3670882254113291 -0.100827096021407
Ni 1.3554599101850084 8.529590215308172 2.5983786442757775 -0.07920283288341198 -1.6131250357891058 0.6761505091271774
Ni 8.185927577621028 6.999968101948059 1.0049317586486206 -0.15521621229524882 1.6586261055446982 1.1512160684514494
Ni 3.7276276120327307 4.697358410784427 8.12805807662633 -0.39790675345408244 -0.3583480173248538 -0.43059498771572285
Ni 6.252159602714028 5.2453281272703 9.53089298052521 1.3663107022698857 1.945675375324565 -1.2169344936951816
Ni 8.923021379315246 0.9343621625906078 0.44575445011013975 2.456112372169596 0.4662885844625905 -0.24598206742591186
Ni 4.119612337936837 7.990603155831174 3.638315126314358 0.7473399847878096 -1.3652436944579518 0.2651141602696725
P 8.101499814719174 5.341999942648863 5.180481635349632 -0.02260205367023204 -0.6221252039506576 0.1944638449419619
P 7.844227305003514 7.092816529984385 12.449978276366071 -0.5573634861932402 1.8254989282422691 -1.1343429468451947
P 2.108952819033886 8.384052745801341 4.864710377999576 0.021381550999569628 0.44051944591828646 -0.6882146393805632
P 4.157413201226482 9.224129255234203 1.810338897219853 0.460793108565658 -0.2399263481501352 -1.4996126309905464
P 7.178589388192185 4.562784389319194 1.2942728145350322 -1.6560408613160251 -0.15103457011373342 1.6961426144329175
P 2.1140660237927826 2.9625171334523777 13.537930975634236 -0.3113598215007734 0.10154520513435414 -1.084905003929041
P 6.458935760567502 9.162623390422683 9.786713524348972 0.22914314149170215 -1.3380252250616311 -1.3122432310015206
P 4.778644546978564 2.1675289557132826 7.6138944746310795 -0.7639253999503166 -0.1270942572480521 0.3117118055235535
Ni 4.204786352344044 5.728079147380982 10.43281992027947 -3.1038491060407707 1.7871069587276318 -1.0227110468988
Ni 1.0857314494170458 4.371228076982293 3.0324860431134897 -1.3591959456019753 -2.1072082738664615 -0.02702949331396635
Ni 1.0492572554702493 4.469687210781084 5.637580029639285 -0.4706118944282927 0.7498686647469344 -1.0466657579421845
Ni 2.4603451482394347 1.5318332289315286 11.407479664159114 0.3012769833434747 1.9948454092913126 -0.4088483400672507
Ni 2.224815274976021 5.445507790335719 0.7963821018472412 0.1409782143189959 -5.760344516850242 -1.3373030021836259
Ni 5.868475773184274 3.785586478948441 6.598755653725916 -1.1447417735810155 -1.0236520706558305 0.11843143936673152
Ni 1.2138748097620808 7.214630572006246 0.26608380526774716 -1.081409846291589 2.0538609685935727 -0.6250583184370526
Ni 5.884690620707983 7.2625012241273765 11.389720720928034 0.7296798485038852 0.7031666327047051 -1.4427195173479281
Ni 5.583665661622954 4.850570293920378 11.90041839926509 2.4490621501910335 -1.2001413333972428 0.21685146860854265
Ni 7.211157277962815 7.74694743284281 3.739405487643133 1.3746243643419036 -0.24875937306073287 0.33599227533747295
Ni 7.885658083022899 8.110279786133999 6.130101416681157 -0.5302476038130546 -0.4210502814500813 0.4020781112229526
Ni 8.286643891898972 2.8903518489903273 4.248525903539248 1.6485386394017094 0.01832656622332973 1.2195513624927383
Ni 4.05325123184975 3.332869778682809 4.294587126084436 1.4239131832747025 -0.2871048056081507 -0.0031213192378010757
Ni 7.951880994386772 5.136191147857884 12.948067989455291 0.2189299484041262 -1.3858114913069746 -1.511522752164571
Ni 3.918548228642851 6.62016293764983 1.3366774047039944 -0.18949441675182846 2.360015334634007 2.0299461096491878
Ni 6.955653660704288 2.2186702162837975 8.614174598896335 0.0083663696868243 -0.3308734660536689 -0.7436982742701644
Ni 5.589064468809825 0.14670383297075273 7.519829933030476 1.1104124041715262 -0.8474448579312115 0.9089970676123958
Ni 8.681438577175085 8.166810640909837 10.789164227066834 -0.7765104357041789 0.7697641181192807 0.3458647972561785
Ni 2.86083345611194 7.014008685826544 8.637839063299403 0.24191535355570595 0.7503651447673786 -0.6401584073032845
Ni 1.4112260874923992 0.05270101834651693 9.494742162230732 1.3264249218185413 0.4317270444376371 0.5277546621878717
Ni 6.662616356620994 5.9326441896630415 6.820758106183045 0.28316536134442843 0.2724495175888211 -0.8048388503352267
Ni 7.656475954045756 1.2438354257547513 10.908525773400735 -0.37677897033653174 0.1417909400282784 0.7505893449630427
Ni 2.9002558041539563 2.9413825537822715 2.0787001515261574 1.055824284513001 1.0011371773827662 -1.07967178055456
Ni 7.704742764373431 1.2003409398687126 6.348570690714796 -0.746105083939444 0.853433985635111 -0.6446753213370316
P 7.993993533040676 4.270567040593634 8.665347183604114 0.5860307722209456 0.03663204940073691 -0.4347596606163739
P 2.86124804028158 5.500140770912759 6.234912901256992 0.4475169602820422 -0.6389314768747191 -0.4404374277274415
P 8.093106788529344 9.32888085542998 2.3731802085197993 0.4951741571486891 -1.8198345308676402 0.4618742574449787
P 1.1437824461482318 6.32359706163382 2.297776561043781 -1.7801084159226117 2.0344013172070636 1.0367950357956919
P 4.276150107411456 4.720326373782499 2.527774960186038 0.27875951896724893 0.06404000910004454 1.008177114948683
P 5.550683187682684 2.6976899788677184 11.648103394920176 -0.5078923760463059 -0.7240496468013013 -0.5399748584031474
P 6.132049962278466 2.3822006387530172 4.915882041409197 0.4459542437806126 0.45888252180650646 1.4520922168120798
P 3.6225351315196948 8.129065055509479 10.77716339730298 0.9526109476476047 0.6335470726343541 -0.07540557062450885
Ni 8.301062208020905 0.18228068251481683 8.405372506400553 0.8331988895351586 0.9389594183024409 0.08722724584978526
Ni 8.312403388305954 3.459852303352851 6.6781227258636955 -0.3273423129719588 0.6063486578426912 0.03337908968107799
Ni 5.816523770237574 6.460658588116895 0.2533450156819337 2.2446599630894375 -1.2173499839660455 -2.370865389974633
Ni 2.3821545738452787 0.7778465042717019 0.83600252899253 0.07443575051207181 -0.006316429136331058 -0.12843611598792717
Ni 2.1237396544177223 8.795836169051157 12.350181417646576 0.16910582579314748 -0.483242952928742 0.6594041429067741
Ni 2.7042680476926773 5.761347223749228 3.824557390894627 0.7556366775789631 1.0676662714532514 0.33009750711959274
Ni 3.2435314966161037 0.8925951107447371 3.4866316768171486 -1.4479486269573514 1.0871048397938374 0.38738965597284253
Ni 5.987691754409723 6.189925912360248 2.5611351663697595 -0.7307957072758834 -2.386193278580955 0.991315563306654
Ni 3.0858973823373237 0.3185277814290871 7.775421073613705 1.2228634575851067 -0.3054887074319771 -0.684175179203867
Ni 4.482465616187552 0.8740198973485432 5.464308721779828 -0.47550727484738103 0.45397428587161165 1.442780452492851
Ni 8.234977491380247 5.7905063103472605 2.954791127126593 0.7646856751551089 -2.334611292738605 0.9220585287820442
Ni 0.3062910993376157 6.996080223734989 4.671374117627685 1.1133213502882053 0.2532816864111186 -0.24717737328559364
Ni 2.9994796154211953 2.3478914954698973 8.930094185249308 -0.720745522128733 0.9028153642817162 0.4686555420328703
Ni 4.797927317357611 3.8621279296455833 0.5024833839892506 0.017023788251506165 1.1394980086835729 0.4182292670615184
Ni 4.60515489145643 1.0003639623973395 10.3425971919842 0.021031366749002488 -0.857727213693826 0.25822000425300046
Ni 6.2451393107747855 0.5877615050879456 3.927427700258391 0.5213130203275861 0.2330465903111664 -1.760308350477549
Ni 7.290739012570653 7.352318581234555 8.589309682997623 -1.0367428424015175 -0.3081734533529918 0.8515784204836108
Ni 6.372554845577563 3.876242217376448 3.50534784883102 -0.9646537377447515 1.7834958443376059 -1.7673513733672597
Ni 4.831766598581805 5.524195865733443 4.966394055340014 0.28592904013249465 0.4947735792761608 0.27921203312363524
Ni 0.9314877123477686 1.542566352434438 2.525213751315816 -1.0970534663661171 1.8939527501392932 0.9258686465567537
Ni 2.627090901268753 2.8222310634276564 6.243017561124382 0.6892055425389227 -0.49625299203516465 1.0226920207354064
Ni 4.38771010097088 1.6859111323329496 13.09074390689345 -0.6020945105520277 -0.08254115322802559 -0.6208188264344082
Ni 3.8219316911535715 7.511528115357968 6.0466612854012 -0.441230355942382 0.4808669964973977 1.3480532987215943
Ni 8.969454806314957 3.544722289368989 0.9905991232550788 2.7831546374026326 0.5194165746358216 -0.11567058879214275
P 3.9334087678790675 5.859833996492662 12.767111212388857 -0.621346159692788 0.20600552703297423 -0.19298237530042894
P 5.805339210638834 8.19876126091678 5.3752330096872285 -0.06963164425520911 -0.13849170045171633 0.4917432770902692
P 2.0576549377770625 4.693553449405284 10.016038454540103 -0.20858665749658917 0.0495605845369469 -0.3743099399707489
P 0.3862302976294987 0.8778690810391145 11.77260302106315 0.3569732484645143 -0.5669501014404107 -0.48874279970104856
P 0.3975355472865116 7.575493846242688 8.877883297521123 -0.018434295445787608 -1.5164885808102786 -0.9817040083588191
P 1.1858397069128506 1.5955778482591079 7.637883235984621 -0.12234183016473124 0.3338356340057863 0.6202778663292736
P 5.011797471002707 6.513891195498707 8.137254474807106 -0.1628791281571453 0.4322654334396104 0.5289455971721794
P 2.07368552566982 2.698095350055811 4.112592045997594 -2.329738795137652 -0.40063058014314873 0.8666682249371976
