# total energy = -340892.9382657866 ev
CRYSTAL
PRIMVEC
9.07795720219080 0.00000000000000 0.00000000000000

0.00000000000000 9.07795720219080 0.00000000000000

0.00000000000000 0.00000000000000 13.28650797938946

PRIMCOORD
 96 1
Ni 6.153901809825016 1.9133519653560047 11.636987970859261 1.8290851029316306 0.8548444928293923 -0.4562574254788335
Ni 4.906998995836839 0.4289089681725717 6.106173541943802 -0.48952621483429243 -0.6257687142405158 -0.44693666229854
Ni 2.5924103993027674 1.3928854440471032 4.837006130077226 1.3065263831224014 0.9197049409482032 0.3657651357245314
Ni 3.260693298029087 4.4294893680941865 4.90698628669673 0.9794674057188164 -0.3979152380945147 0.2922187297959484
Ni 4.871286312132355 4.51387805841368 2.7437835203590812 0.4898802557396015 0.5800786684025687 -0.22757682544584676
Ni 7.325611904157817 6.064002799472827 2.553188177336932 -1.5342893564371254 0.8436550518714762 0.20474851469742159
Ni 5.240922574226713 4.4716927912111535 11.61493216599693 -0.5835491434496723 -0.5787357812214291 -0.09183646248702249
Ni 5.612537830995087 8.016054096458781 12.449697537776956 -1.0515503397279955 -0.7059130851015907 0.11892072029832422
Ni 1.9150949331422937 6.518962781480365 0.4531380359934332 -0.13818779605805234 -0.16894641739714775 0.4328714424547255
Ni 2.5911213293774913 1.6423658643741614 0.4790546960615403 0.34303478400655113 -1.094352008274554 0.09439316747060517
Ni 0.5169233946058356 0.12293278888097624 4.7571282767004766 -0.07786431657764654 -0.3961370631481694 0.005807093600080322
Ni 8.494662157025084 2.2958789267031254 1.331481233613574 0.14337705356847566 0.7567340244082 0.265783161312239
Ni 7.053518292395102 0.9460683896661339 4.716616984809365 -0.6100595310353751 -1.006867394998324 0.1517241399815903
Ni 0.9753992694447791 7.262320386418197 2.7909507704840846 -0.5928493378046757 0.8941944553819244 -0.7292106221769507
Ni 7.509994293258424 3.859675071335977 3.719717481484134 0.6445146273894513 -0.6976685857046114 -0.7992649557918751
Ni 7.651601347937188 4.087903993810417 12.80356992715834 -0.14893963525791767 -0.7258681880672789 -0.307050138381826
Ni 8.144734140055899 8.688649024864722 6.768213529489751 -0.9691397985405631 1.421388617080636 0.7311224944876827
Ni 6.905429576261078 0.5327099622118597 0.2978849960211818 0.0854056192600142 1.507283517272243 -0.11917320262876249
Ni 2.031537890406509 6.580465941647596 9.351270001672768 -0.2733653445348711 -0.41690412049219167 -1.230877586138835
Ni -0.12052713021760855 4.819106214030327 1.5345914484595677 1.3312161725595977 -0.4703177602266416 -0.4775898684080227
Ni 6.631602074669294 2.082964518059256 6.986191622671079 -1.6780235362347038 -1.3901240026393993 -0.2163048520764533
Ni 3.4519658566598674 4.216111983632084 0.42464505166621774 -0.2665092408449862 0.7027981936216928 0.45914168900516406
Ni 5.827894210131205 5.644791812998654 4.939883895867214 0.2135342313098516 0.6398601593365754 -0.8769570084577155
Ni 5.404788780009542 2.7492411882398993 9.424385684716148 -0.41447339956351203 1.067619477375716 0.04614693086970762
P 9.256520638777797 5.922105250163015 12.52985499223609 -0.2946995872362731 -1.7317891599919337 0.22231711970880422
P 4.036704315088176 6.114639644847411 12.578310404490646 0.23148361669942072 0.5646829026727888 0.9729041506790019
P 2.2460681754355845 8.61003391533731 1.3841088750065604 0.5994671002315095 -0.9746203620391604 -0.026956731094501963
P 6.41142530024922 7.838543720973906 5.784799331615209 -0.313232355933138 -0.3642420142117856 0.13355723926457644
P 4.438358532298376 0.8852905582808022 12.672498749629405 0.028778871904905273 -0.5003166205815771 -0.5224255366654745
P 4.246287113432213 6.049505301792078 8.179253980181644 -0.686570933129553 0.16061861425774274 0.7436900467400482
P 4.741870954000394 1.103126127533772 3.872286169506356 -0.36712344952463866 -2.4165564642538446 -1.0462505247816367
P 0.00380184848384295 5.482822900274858 3.7325119543903615 0.9603332559925267 0.5159471280299824 -0.255130052473767
Ni 1.4113046192470013 1.1035527915231242 2.661155045944595 1.2018544594336076 0.0957846485014931 -0.9124947963530091
Ni 1.9200605757417735 6.547131682734817 4.93103470316891 0.41349020971463624 -0.05976837830788416 -1.1803757207345413
Ni 6.133194989405614 5.413294825924921 9.139735442526376 -0.5573280049696143 0.6437479244267559 0.3152514432456958
Ni 8.609071651871963 2.0654622165386036 10.158678041573832 0.32301720323404376 1.9616655801052345 0.9222958416038308
Ni 2.515946765636556 5.2313997971026645 7.135001128608393 0.11084128572429944 -0.1344787226375813 0.28847443226216773
Ni 0.5215858334341588 8.91540731826948 9.173257615153613 1.557150577306015 1.2656895516116977 -0.6057578183362278
Ni 1.448406230406185 1.2046812349567688 11.520664842630353 0.27199494654990575 0.47186299322657443 -1.0998109745065963
Ni 4.142961804351266 6.9838268148152025 1.6360739322248024 -0.2978412181890483 -0.02406963935469403 -0.10159482742536696
Ni 5.860293439450296 7.598458986369812 8.041021202201648 -0.6261955173652893 0.9254904372817288 -0.053475860430953065
Ni 5.154191770944393 2.8206120879055465 4.815734660718724 0.6635184221854638 1.7851017553721449 1.3250519527304145
Ni 0.8594891882693924 7.352682372588619 6.852197342917222 0.7071783249672594 0.006985430178897647 0.8831952760579435
Ni 5.200235169965528 4.414202088135276 6.944671769732797 0.39118794667301016 0.9010423315416934 0.5299002477759648
Ni 8.154837906442044 7.253778028673937 9.201690684963177 -0.8449606580567771 -1.4825255936012725 -0.4842132872618113
Ni 4.697915485139917 0.4460290876942513 10.503396218894311 -0.5341073438787769 -0.9570988082156292 -0.37395641328607204
Ni 8.19414546120575 7.3835655830519284 4.5241888022244465 -0.5311120086958788 -0.5072652839852683 0.08925430358214306
Ni 7.513380371301579 6.1619811917510425 6.775547611127995 0.4201015443835668 -1.0163586223182108 0.5059614775721802
Ni 2.217853884395031 5.173300870893031 2.8603190727869436 -0.006024608927525108 -0.09562781120865466 -1.6309638637427395
Ni 2.35434097120157 5.509348691272444 11.464277111356736 -1.2039558220473265 -0.8508597971500315 0.2502547266593368
Ni 1.223136721985548 3.2371723108714052 3.9185501628879433 -0.8375916192862156 0.6460058672229971 -0.01099660822081977
Ni 3.5710504994751777 2.6660780221451392 2.825056655760584 -0.5735755771767284 -0.5558262236131072 -0.4753828334543748
Ni 1.0642089249305373 3.5692439859883467 8.245327891809271 0.40171018636057265 -1.5619523695700326 -0.011514942618135007
Ni 3.8144214545930035 2.7117492249202444 7.201765872780483 -1.3113834541043867 -0.7878528573001915 -0.24386270709006388
Ni 4.019065844209221 6.974975806525453 6.139429730424485 0.780007907334476 0.2599184750013459 -0.3157551223549917
Ni 0.795593986374625 7.623368900982194 11.341615753396646 0.9875789790823573 -1.4460087296221613 -0.10129040881107071
P 0.38430533316656895 5.588381386831987 8.008137209966995 -0.612936338362538 0.7744129297452018 -0.2938066431083585
P 8.46324334708578 1.5097187534717902 8.120966232461827 0.9237459437867962 0.3110656872991223 -1.7711666333482918
P 1.648529797326715 3.439120547193206 10.674420393945312 0.24563188317534468 -0.6474438852211043 -1.28963577801465
P 3.986013001970271 6.186836638620102 3.763695645237661 -0.2715863982575774 1.2756744307385515 0.35319141282457883
P 7.027873063247881 3.895750873329272 10.417924528278443 0.326740931942534 -0.23822196386451877 0.6130489526810022
P 6.3862430469202325 7.799163542552439 10.396333514825788 -0.03435765154426341 0.2952917122943172 -1.0136044566118414
P 2.454398215683225 8.52122425985155 5.646446724599907 -0.11466425901481543 0.017261872404241235 1.8972306495596163
P 6.511464388816434 3.8628251224914054 1.5536714989451006 1.8539361005370394 0.6448002769506701 -0.5589431719755341
Ni 5.159475142046581 2.5031286900415557 0.4399504875395683 0.05225330087776163 1.5056356972561746 1.0804572525703326
Ni 1.2394225772386864 1.0359674000183228 6.998840848261783 0.897196732543358 0.21207513026582184 0.44946842758145816
Ni 6.839196800382093 0.6860003478330919 9.242665860468243 -0.7884449823582357 -0.985352660855 -0.28217754350986246
Ni 2.9250539857245847 1.6295023989930595 9.327247911276528 -0.6920697514605951 0.22653424311394535 0.07353663573657013
Ni 6.33783030106461 1.9283396727266462 2.5918257788577828 0.5743651629575592 0.3602930568663666 -0.20025988279844864
Ni 4.286048566056931 7.063295252321318 10.450688691477787 0.01709937868444797 -1.0221104372003236 -0.6432676423562277
Ni 7.9234498548549555 7.470759362152481 13.297536075749873 0.515886449995376 -0.8807699544459026 0.01091279025776185
Ni 7.587510969962185 3.758183509613522 8.15280081284182 1.2757181394922932 0.8676771258176864 0.47037381027555764
Ni 3.0199458725479147 8.240107158611902 12.349290791942321 0.26929580245118784 0.41878333979277554 0.493812243804156
Ni -0.02299809682179496 5.011123165153168 10.0469247570096 0.051812356685601094 -0.5226870178569772 1.3612669691983912
Ni 8.661859973107747 2.409698354330687 5.835181994187626 0.8498719793154654 0.7284066382184166 -0.38356899667517164
Ni 3.4500231738147327 2.747362051095306 11.72443956394487 0.5408927422317266 0.05809356170862253 -0.6389307055437705
Ni 1.0014257727952511 3.402046169905683 12.8958582558509 -0.04549798443179906 0.5505942857902066 -0.7039083959667362
Ni 3.166917999943849 8.507425764876762 8.050853537666907 0.5630384250908304 0.03834131878235977 -0.56019864164919
Ni 5.577433370424359 7.962312589714869 3.7308379790789465 0.18195851338609953 0.08496801750196335 -0.19654720983355184
Ni 3.135390254517902 8.470923298894116 3.4918934359017166 0.12991012943029243 -0.4467674837105274 -0.10003776735089223
Ni 3.4256851705072284 4.288771953223008 9.51134616031614 0.19773634504564655 0.04861441857359369 -0.3459601851834622
Ni 7.113033379931097 6.033128666966738 11.438102637303574 0.8876281150183164 0.22026409383451745 -0.21102457751412043
Ni 0.5918501301146574 9.054327297611048 0.025797738828521717 0.03214624571524141 -0.2057766988516198 0.9791182499095138
Ni 4.816818568810822 0.3500505693916573 1.6292046419962352 -0.9338264679512499 -0.6850915203705492 0.01852634093896164
Ni 5.8800924641476735 5.7247413822374424 0.4320771752424408 0.34219557593470745 -0.022242870558600403 0.19466593365043894
Ni 8.146831148173778 8.918312264579962 11.110497317138998 -1.6660725345204146 1.4107342226905832 1.2640890398937972
Ni 0.45836966273946644 4.830508128298967 5.775046882173489 -0.8224871595446094 -0.13057861625222675 0.5573421460370014
Ni 8.311042316330978 9.033302748688936 2.1493189385649907 -0.3022648011780407 -0.7464107881053209 1.1552169620807267
P 8.722900157456744 1.7436304771661102 3.5592028575070223 -2.2020074185262333 -0.15187197841336425 0.3501675383965905
P 1.721044519602115 3.247757208990223 1.7033697368942775 0.10939915396113419 0.626007055503567 -0.33213330660269896
P 4.911292869602019 1.0706815084285795 8.21431758994488 -0.7926603059911639 -0.7028994950862475 -0.22302263041626105
P 8.476587944199556 1.7129106699327659 12.478276762697764 -0.39127690684239064 -0.05439323003889987 -0.29598950969229026
P 6.440411217653495 7.799472193097928 1.5077924109496519 -0.8575276960885102 -0.22450461427842625 0.6932753417329223
P 1.9212951779237282 3.1527019189369287 6.05108758973557 -0.21629276789159524 -0.8758439778991948 1.3780745276740332
P 6.975475094172568 3.938980105612128 5.767872572582321 0.18285094329338186 0.3565857832181084 1.5119891502780283
P 2.480969396466912 8.540278892056868 10.172243233048059 0.12095600556079812 1.2608833884723059 0.21891323623357783
