# total energy = -340894.4945264633 ev
CRYSTAL
PRIMVEC
9.05190279704875 0.00000000000000 0.00000000000000
0.00000000000000 9.05190279704875 0.00000000000000
0.00000000000000 0.00000000000000 13.24837472384193
PRIMCOORD
 96 1
Ni 6.512391362423739 1.964353394342311 11.43986517545868 -1.0021427358291453 -0.31955984081306255 0.6872736156235325
Ni 4.659141021222562 0.25562844644138594 6.049075156362385 0.06673323966149151 0.751345506402777 -0.8957546007801928
Ni 2.5403440638450525 1.6826762876414951 4.586361913526184 0.5751354654646804 -0.5643818264926022 0.24011378157059296
Ni 3.2872980187214784 4.307175890434985 4.737154844222143 0.10590759586810794 -1.6937116363939217 0.2234980273907828
Ni 5.082091172601045 4.6903157739533805 2.7995271924575746 -0.04475647828008421 -0.25171151371052136 -0.09382161123785132
Ni 7.280934105123336 6.193836804321833 2.7860805910691795 -0.6134119924473758 0.4800172469025927 -0.5324788071364184
Ni 4.844958478846906 4.673786999712244 11.310136927422386 0.809651955453154 0.42985219601242736 0.2639772184517518
Ni 5.511024631631987 7.978003024488861 12.68102585938403 0.07066702749825894 -1.0224269399994779 -0.5921937064985479
Ni 1.8873398065856897 6.273375872918146 0.39954012074188466 0.7155608926039999 1.1151419484367118 -0.014459112848123484
Ni 2.917926079135596 1.6251695500982635 0.4388525339561543 -0.8403506700885915 0.024295382212254933 -0.17708807266767565
Ni 0.757190751584696 8.98694619779969 4.362000549222659 -0.5629787754974885 0.09972769230964115 1.0588484160513054
Ni 8.52692850506444 2.660996874283229 1.3304549880088885 -0.010116519608711608 -0.38761102795502916 0.00810231739216024
Ni 7.365967678628943 0.5110061551793329 4.938000270628051 -1.101822091399354 -0.6447794510150637 -0.9294049418447865
Ni 0.8714746433174705 7.206364531082546 2.521934304232991 0.10846250107947772 -0.15345192130597443 0.08676136195696026
Ni 7.367968149114864 3.8262392506727565 3.9429146550859846 0.8110760894941902 -0.4680155944560262 -0.6583584752510792
Ni 7.51449129733024 4.009277774183174 12.594050652759737 1.0859434724958847 -1.359681626989142 1.6046095421189268
Ni 8.023389264382104 8.700553049817584 7.227531500242169 -0.9203646860193891 -0.7537194059515923 -0.581716718226624
Ni 6.807057949429062 0.7096863664710678 0.5080742439106012 0.5773846665101734 0.1630688755704482 -0.8573001534587364
Ni 1.9861865835370653 6.409534592597871 9.282964233870839 -1.0129308275835844 0.888254949969038 -0.6352193181304544
Ni 8.919237965968527 5.14738254642433 1.3080913573187722 0.10812748633756217 -1.219538764087248 0.6385386123116745
Ni 6.528902032859572 1.9002387678636852 6.957741352102943 -0.11181727648432355 -0.43850138704699315 0.6693658821051762
Ni 3.749642050438091 4.378061340096727 0.4619692829468524 -1.54500802840621 0.5624601839898571 0.13770674265657576
Ni 6.009838779130385 5.624055740037831 4.8431689176927595 0.48591844287837604 0.5337381334648164 1.1800998413653354
Ni 5.24788582156088 3.097253322559012 9.253896764077226 0.42273821067546546 -0.9116116224171075 -0.05792078357618412
P 0.267630364166645 5.441171098872484 12.438130724402123 -0.6174049156568527 0.46578130580886873 -0.42705072200789035
P 3.9341017226647517 6.281042834463733 12.596872130816124 0.5373546471714811 -0.6769359811429504 1.3272695292070238
P 2.2762095444823105 8.454223622969803 1.388906744188908 0.6469006111231246 0.10354166673909265 -0.5745716225414105
P 6.3715347052680285 7.825215959638837 5.867744726882252 0.383877529054526 -1.192013562083786 0.19872699109369002
P 4.652596495605726 0.9018817947034652 12.602383834340454 0.651588246406781 1.0456146909698507 -0.6012930976966547
P 3.889177129806723 6.347520007534329 8.182434814725186 1.6069039945800583 0.509914034462025 0.3316085444474805
P 4.497175327084196 1.1231057695480757 3.8995261701078685 0.9966919971272189 -0.13786743660415612 -1.0423753580969466
P 0.1274109609575809 5.560801044311072 3.6895799607764186 0.3697331192333439 -0.7004487195529098 -0.012672196151029788
Ni 1.3199665484069143 1.1855005345229688 2.3647290056989037 0.2252929145076765 0.6588449279691944 -0.2298396533380945
Ni 2.060683742356646 6.442211961168793 4.803317011080477 -1.0485076962469297 0.44832402956436984 0.09985341925422803
Ni 6.064738568710064 5.874902066308576 9.255420199293429 -1.5632839438972623 -1.4333468178837767 -0.4173059839163007
Ni 8.523615508694093 2.2532358155535017 10.091962645089557 1.0097426596635901 -0.040716246772439554 0.5393199984279679
Ni 2.62989453677362 5.104648514007897 6.920288199693234 -1.7753565030599228 -0.29457617428453137 -0.09755922390341264
Ni 0.6499057909818485 -0.10493237110379416 8.9416857793533 0.2673710746246492 -0.9467326344899566 1.115104410330557
Ni 1.7432154125728871 1.3108241267291771 11.422894668368164 -1.3326647320806662 -0.9789472715492883 -0.0602723145274962
Ni 4.182277737653385 6.805374295535934 1.7106964522983619 -0.30152123814379683 0.2278208231358528 -0.42649330684252357
Ni 5.6310709645925305 8.065046120383041 8.087841526829619 -0.23711484684326906 -0.7457217324580963 -0.2703903210669472
Ni 5.1872742814082775 2.8501635358885262 5.136659662543688 0.08183487118962035 -0.1899890970000599 -0.7438921354485254
Ni 0.8464189767788801 7.2672928878279395 6.8255491761649845 0.6345287198213331 0.3326848082307948 0.5230210041576283
Ni 5.171306725131517 4.527155228665053 7.1224850751649695 0.040704933918529904 0.4822283956212985 0.19011610949622743
Ni 8.071635905513132 7.045910504686933 9.410042084810856 1.6627303575210592 0.5499749070386527 -0.6759234807180359
Ni 4.403895470263323 0.341250393619322 10.265476756630356 0.6254699520531745 0.07276196235407469 0.7201621388214371
Ni 8.371552596056166 7.1794170168898495 4.93455602166926 -0.6727949623913833 0.09325288321857488 -0.04321844436900299
Ni 7.433531080017685 6.034360383412553 7.12325358170006 -0.7621001738161198 0.46567537635862377 -0.1430016725069279
Ni 2.3563460386536046 5.239069268378587 2.5661039684099083 0.023222717973366457 -0.8151937112069897 -0.013170218833370866
Ni 2.3641940382522164 5.213425228167666 11.464772390793792 -0.36014701820680556 -0.9522167975329794 -0.8280206877683288
Ni 1.0355738709107312 3.447534799453461 3.7512904019108793 -1.1940922989896854 0.17609177019267738 -0.41748107604158424
Ni 3.9289783457641585 2.7438217835419363 2.4357266989535207 -1.4207463555109467 -0.6502831544421123 0.7392186412322559
Ni 1.0994712517257275 3.205215365480171 8.168139144868105 -0.4815496243867191 1.0896720863003815 -0.397256007243961
Ni 3.5603939217089327 2.7348060885013163 7.105553491255854 -0.21833293825007563 -0.20235944563995473 -0.15219568030137012
Ni 4.210601141049067 6.805799734960542 6.073916292808141 0.5222332181490102 1.1152833591105824 0.11248370642372885
Ni 0.932807620111375 7.28185739919376 11.35446681027623 -1.5591272414164115 0.07507415542701909 0.4336635993387177
P 0.37286416362872493 5.498533005973297 8.012113309249472 -0.3015243234675904 -0.11119429818834399 0.9673068590968825
P 8.623313164494684 1.50305938333324 7.9812580886822415 -0.9766777587888212 1.1921356894839468 0.39111209912975226
P 1.8161918517470619 3.2051157945510074 10.27855223001005 0.3668732811870456 0.4395642810938688 0.6388916247757191
P 4.027562617538648 6.101389722544873 3.976499929492824 -0.4522287639354147 1.2364103430316062 -1.0727334015635137
P 6.8280583635799035 3.958288406548825 10.59300265544989 -0.13090874589813584 0.24250053663521462 -2.1420642052033823
P 6.297607816315475 7.797806798410927 10.383585982423538 -1.0078025052180837 0.5771491534605996 -0.4084734732263352
P 2.551885239725364 8.522511176570642 5.803728766142524 -1.1783082966825513 -0.6046951813996682 -0.5564270904218998
P 6.622896989989893 3.924081266429846 1.5888243505730655 1.9411222087362443 -0.17182065362114926 0.1815481653215583
Ni 5.280011024070077 2.745224828452876 0.4133886266079936 0.3632140871679035 -0.6376304986751083 -1.1903006931577371
Ni 1.4742471771943912 1.099244954159447 6.834239907900425 -0.12334944549363919 -0.40015518316862697 -0.07859271010323884
Ni 6.613664049285643 0.9032739773312235 9.275941767794018 0.7637217685799428 -0.45234883445304674 -0.2515621326168506
Ni 2.5297352339378167 1.452468299415544 9.097751443343597 0.740004627468661 0.7996732469738873 0.29390228814595837
Ni 6.311629213522222 1.9017323318011372 2.5439928858037613 0.20093454026797009 -0.16602924375035277 1.0277681497067332
Ni 4.087069825567801 6.966317124674712 10.55165446932936 0.649278624436998 0.04727127428213794 -0.8061583404775987
Ni 8.238589198012324 7.2418208337673935 0.31064953151659125 -1.079913978472353 -0.5276621024740654 -0.24689146661405867
Ni 7.632754405468494 3.800712885196302 8.363168723820602 -0.09164928617688087 0.16904849019265078 -0.29630267005733485
Ni 2.964461910665543 8.363731752165506 12.435122777151122 0.5011655988454337 0.02952526315262657 0.8563971820284928
Ni -0.021110847363186663 4.7705970985670945 10.271306181937744 0.5143023933377078 0.09487653486492692 0.035407432965016444
Ni 8.627920582944157 2.2913986371310657 5.738109713443266 0.6328842422393746 0.9859699827240247 -0.15898544952969393
Ni 3.7595991433544387 2.6490574146862635 11.374232544905444 -0.034043976958586526 -0.29847808044209884 0.20241189614444496
Ni 1.2321811964953353 3.316680494727354 12.657232028075022 -0.8177506733008884 0.4415885106127491 0.20970097360669046
Ni 3.1359773621009515 8.518691273651825 7.980463331629465 -0.2142184018610698 -1.1491473588478789 -0.032915519781098156
Ni 5.2594088936358885 7.9106206611531436 3.723190580510682 1.3715328699007734 0.5733971426173351 0.6726167849423061
Ni 2.8644293344668563 8.393286214321757 3.4972134515839133 0.8385665816049752 0.33352530185421914 0.2870721525980024
Ni 3.449698204187104 4.536614466935582 9.131521376564521 -0.2241325756509882 -1.279629044510925 1.1570367888982847
Ni 7.077311554984032 5.981026572991536 11.485916730196788 0.4185046322100921 1.519660293670041 0.24246942628696305
Ni 0.6012825907005289 -0.03642576145879403 0.06172220860790707 0.5210366267377479 0.6524287400302055 0.04341487665052522
Ni 4.500560738675754 0.21256945071977432 1.7254682522348956 -0.03081929937370176 0.5730253611002132 -0.20162025348108503
Ni 6.0151250902786995 5.623331587825734 0.4871344775075227 -0.15242039471766652 1.0689471950482041 -0.29903780960031084
Ni 7.9246782659704955 8.8466236029004 11.289894157523452 0.7133605425185714 0.2067298067935085 0.5029787407947724
Ni 0.07700091509290954 4.919881077091095 5.825628034226633 0.4919921598762817 -1.1482305034605644 -0.06720220887811007
Ni 8.262712518577837 8.684911362036269 2.3546207460082806 -1.3476948869409113 0.9743185145280253 0.20928856865962017
P 8.405252829626676 1.6146602911201915 3.314915373710365 0.14615461631361282 0.27267397489480133 1.3030528227515041
P 1.744328796598988 3.297599083938572 1.582968674747988 1.008330866917728 -0.024277127379809804 -0.16189336720510827
P 4.663323000247428 1.1247441639279474 8.115331249991124 0.5179088797420436 0.5651179333276783 0.6885280568559239
P 8.540207646253787 1.6774080802984823 12.43541424841649 0.07589279467357252 0.03564963088280957 0.008358656377340443
P 6.303745006313005 7.924995082563289 1.5835117889070616 0.3111785587279028 -1.2985287096289055 0.14422140384664195
P 1.64036769464967 3.1516643093955246 5.920844093024602 0.8045161768884853 0.7005646763054838 0.24537425863858386
P 6.994251296256393 3.8719694628667445 6.145682492597848 -0.03413010891448961 0.8340388689379508 -0.44759820714193876
P 2.398274451734078 8.456486598632608 10.32484275497815 -0.6139462676842911 0.8896430885658162 -1.4198444125219676
