# total energy = -381173.48526706017 ev
CRYSTAL
PRIMVEC
9.21129768638952 0.00000000000000 0.00000000000000
0.00000000000000 9.21129768638952 0.00000000000000
0.00000000000000 0.00000000000000 13.48166525626961
PRIMCOORD
 96 1
Ni 8.995467789142776 0.8106328855506152 2.9662497210776957 0.9284551763370076 -2.9522226679793095 1.5720598903176797
Ni 8.730495599341051 1.629239070395271 11.002522051883263 0.21476758949632044 0.20195989620869087 0.14628368569230937
Ni 3.3337160204505745 1.8056906892453666 9.777308000324963 -0.38944679561218737 -1.1046469624426587 0.8001080205184607
Ni 2.4688949127569577 2.1206802255889596 2.778248056034442 -0.6865195110663274 0.38056311996931236 -0.8261106152298096
Ni 4.926119111320812 5.568045237132272 1.3857936833317306 0.47033164418371254 -1.177273941880766 -1.1819813746587644
Ni 8.283102869775945 5.228912889502079 8.350004525012334 -0.12239428066922146 0.39117714803973275 -0.3705476447148392
Ni 8.563264489494346 6.53794882905234 12.180280418791645 -1.0442306661381309 1.612021518312282 0.31748701744443386
Ni 6.025561182875923 1.9743219163433359 10.110803954889045 -0.7087096740101214 0.44737606382880374 0.4565515596804847
Ni 0.5429958673226353 2.3042798114586667 9.022523212763913 0.147502645701075 1.419509654890368 0.7035785234311431
Ni 2.2320816600415103 8.055869366674411 12.266629886874044 -2.364643577434637 0.667967459095753 -0.7334328877884142
Ni 5.212157538975439 5.9901990109838 5.62585810492246 -1.216663242311666 0.08316850239937934 -0.2099190031547675
Ni 3.0464340676056807 2.818749210916567 4.981461509066336 -0.00883893844786865 -0.6196363760905328 1.1767360670994251
Ni 7.7320369845333605 6.0209831679161985 1.2353639805001944 -0.4277107241893924 1.5655058912492459 -1.290310178373855
Ni 1.509519834114487 6.322680801670488 2.862791188636757 -1.134707015052833 0.026991183876863195 -0.7802567901204885
Ni 7.456471802370098 6.541578080348379 6.487404596281706 -0.8017689531606514 -1.1297869520433963 -1.157392886686123
Ni 6.9468659681007985 3.9530928894785173 1.1799303909073837 -0.6161982969432613 -1.045000711534936 0.262357937680774
Ni 2.7586362820892685 4.600444469638625 10.525270900805182 -0.2635545290920364 -0.9314263431501894 -0.37865433298237366
Ni 0.2326497461524778 4.606487080933554 1.9536554488108615 -0.32828256539804107 -1.5445891957012365 -0.2876542503537175
Ni 3.1721038022043366 6.046305025309126 8.129794636411383 -0.28180627621337273 -0.28281723397639036 -1.1616583468306962
Ni 2.294276342150293 1.4786896206935607 11.974604115710724 -0.5031926565777916 0.12055465635732142 -0.33976794032982127
Ni 2.4882478492366005 8.26855823069867 6.5368278141215574 1.0036887401600263 0.45252186969580127 1.8796473892602144
Ni 2.622520935892366 7.136959518853013 0.8267600255737279 0.6263294718399923 -1.8039276298293963 1.456083083139028
Ni 5.227227222021939 1.4124972353805105 4.653924342988059 -2.008810356111837 1.0335258781261167 -0.02128642018260205
Ni 7.8236525515141 9.099325170774371 0.9164071382347628 0.8550509524132436 -1.4962164608248039 -0.3932198895013744
P 8.517862003103025 6.0883914445263985 4.326940775901894 0.7188850718812265 -0.7189205531048521 1.0106253193788595
Ni 3.7411317179730075 6.189319633487586 12.10826096654998 0.46553833656012733 1.4936080766676794 0.009982822244324743
P 2.853742930900463 4.9527950294764755 6.052607395199355 -0.5002590278707643 -0.06265058495168566 -0.06313498078727191
Ni 4.1507857608379215 8.98327203098045 11.254332218393335 0.22869782642416742 0.5340464087338546 -0.10876563414219333
P 8.495331168914921 1.0727937872925655 6.511064735568528 0.31439860832709726 0.11287811364867012 0.010664678802697763
P 4.281180891159594 3.4122515446892416 8.947713658447194 1.3406793748550265 1.4093532831826567 -0.5467648847417874
P 4.477280208015915 1.926561337739361 11.962321771349965 1.2625816021103353 -0.21427008103461165 -2.862114758147619
Ni 7.878450561565218 0.7829639895022795 8.940527925106991 -0.1854115049317065 0.45019579266578597 -0.6419054719013784
Ni 4.648020822288487 6.836404086014228 9.885242302321092 0.13221178098027556 -1.5668806601095855 0.848001758875946
Ni 8.424348908794915 7.6051882038283765 2.8131386094840343 -0.5341189138430027 0.19888639948968972 0.2637345063133264
Ni 6.791489798401309 8.812282711669825 6.575857924760085 -0.9891854043375286 0.43124804791868954 -1.2247480762023295
Ni 1.4166331080503631 5.467098625575673 12.497004442493218 1.1877306184377157 0.10079727122473608 0.8287819914143855
Ni 7.101063091693961 1.728352633708438 2.056291412366683 -0.5581870105357999 0.04302201208748074 -0.05895590970891782
Ni 6.360401065775267 3.0937064474312543 12.367837178155714 -0.8195242202615435 0.011560451144089769 -0.03091957239699191
Ni 4.890609558665397 7.753130856279378 7.383975204907277 1.1280910523982122 -1.0554794995790724 -0.5344505861508086
Ni 1.8030378355061294 0.6108094410318858 0.716234585532988 -1.1892018036666037 -0.2653920965214075 0.9737590424801296
Ni 5.053723218437662 1.0729319567581508 7.958348436734557 -1.6256583923694259 -0.18567555722637052 0.5660725839314638
Ni 5.96061232275314 8.752989588338332 9.70398146493886 0.6010131045623908 -0.07761877622574376 -0.22811418600655553
Ni 2.623331530090467 2.7783300365840224 7.59389883736029 0.9647478401204548 -0.5732256500364773 -0.9506198853595049
Ni 0.4145959040840143 8.180000814556218 5.273973636748518 -0.9852269339104129 1.2124813430198345 -1.1071625297756609
Ni 4.770254742842923 8.334667714332369 4.851498388607061 -0.40034030259623954 -0.9943409803965392 1.4852082826397583
Ni 7.557501315606046 3.512654689681205 3.759066114605975 0.4721810386876255 0.9057870453155303 -1.5696818770038063
Ni 1.1678267457221143 0.8418435255667865 7.47086445503523 0.41763225690746786 -0.8434815024080894 -0.216994164833994
Ni 3.8679160195940514 8.79641164572293 13.596259524704903 1.9125834778666029 0.8301359343391187 0.21343935760320015
Ni 0.43208539503779775 3.4961848893834406 6.692500587607169 -1.0986506356499077 -0.6778104133281037 0.39686160001901977
Ni 3.94565937223003 2.0087076906786567 0.37134057118788966 -1.0802950159608555 -0.23204977361553583 3.0326717145649966
Ni 6.902559626136455 4.239840587056482 5.850004902162821 1.4236131355357806 0.3298087722345804 0.43089246435148376
Ni 5.644370049921575 7.529941112870638 12.722283308221607 0.9325992804123681 -0.8254776096315009 -1.347212547987854
Ni 2.2826056279571905 6.958251132065024 10.28740019111312 -0.4524298242026273 -0.5310700997143499 0.2034305672169464
Ni 2.639911865960699 0.32543791133115124 4.47873098740456 -0.9972378423283599 0.3185324279898127 -0.9321675921915881
Ni 0.34989851238859687 5.513514354714618 10.234241792053615 0.055414986435194886 -0.3912406542878165 1.2243297577179881
Ni 4.169383370905699 6.841875596851406 3.1376010443881537 -0.11066387960617069 0.8800775563645683 -0.6142866817428453
P 3.6235126575691194 0.9784608874886488 6.178836255568746 0.6640203015225468 0.5343533984513119 2.2721507123105384
Ni 2.58624684552738 4.656587329154774 1.3685639509732475 0.702384503123042 0.6651811545998673 0.7052155448139339
P 6.2105700972946005 8.971260498772237 3.5029137423574435 1.0389215952203914 -0.017547264855143973 -1.6426212454760096
Ni 7.818825831516321 3.785152509708474 10.423390263661226 -0.06983527562558295 0.23508341823553708 -0.4048888411988704
P 6.131398993514241 5.381884910500384 12.522957273778987 0.2223590286903332 -0.5112165553235325 1.7862440965067041
P 2.39970885568956 8.37274721904767 2.7509199780012166 -0.7896420879901304 -1.3783465503884973 -1.1496623508110846
P 0.18548513851006057 9.254222352993166 12.320624671765229 1.318652476961974 -0.5522379920412167 1.1707286845630807
Ni 7.476782713811132 8.783875069545493 11.586884936072357 -1.3133552331187768 0.7309306901918509 1.3132472467860028
Ni 0.42991060764948563 7.551707409349171 0.48775018820302085 -0.6356792884860085 0.1410669173780603 0.16903820578000567
Ni 4.167817450295733 0.23342257402998473 2.3226480602135724 0.8755896957965437 0.36222755488491815 0.6152395325744179
Ni 5.68568272013157 5.257956111168102 8.146943309350057 0.31613538851254586 0.9139551829486195 0.791260854540476
Ni 1.3936785541677967 4.455191516117683 8.511568844510501 0.12268970042245322 0.9620057585989433 0.08581776709676833
Ni 3.6237521513094677 8.52901688462461 9.00746458327466 -2.4666006732954293 2.3616667541945007 -0.5788548232977966
Ni 0.6712438441491124 6.143705287249035 6.388852922128586 0.8045385454859886 -1.0537884850298949 0.4898997961236272
Ni 3.350370046702452 4.762719901319671 3.8214183099055257 0.11310668471970844 0.21685558237360072 -0.5989878466022458
Ni 0.7788041674583922 4.21365286767922 4.542013523772385 -0.022130770460768338 1.1765185517719803 -1.0776424088293568
Ni 0.7914835187502672 1.7717654797953297 4.98271608781385 -0.7557143248944339 -0.1255500526893838 0.09813592234248905
Ni 8.280919792219699 1.9737692384809946 -0.1651963341835195 0.6175710089210719 -0.05501929365867299 0.9879667014390792
Ni 4.86541665944035 3.710854182414422 6.670579541327181 -1.8885128100706443 -0.8137230401987342 0.033394773410361844
Ni 7.078827019032437 3.2922559694772873 8.220458676339126 -0.021119555587434596 -0.7105932641860795 0.3701478381732593
Ni 6.748150642696063 6.1854048319626695 10.550440771785963 2.23093695707639 1.1643618618047884 -0.2925357468157349
Ni 7.438187376424313 1.4386204756738323 4.56307147145735 1.7286732400707714 -1.6096813002148795 -0.22819440442518765
Ni 1.4693033083314677 3.0638157863763076 0.1128632673984426 -0.3102588751271108 0.3805788036985962 -0.08029760860948752
Ni 3.888659862027253 4.141012573972191 12.909557280746112 0.37338562838426664 -0.820475271320903 0.018407041752277975
Ni 6.4563919991662075 5.710507167448391 3.4765574562321677 0.10014858189714364 0.11652342371074126 -0.29740644464447485
Ni 1.4371835132317454 0.0976526514970455 10.105613388631893 -0.29393802647990025 -0.06467121492614024 -0.4022076948222815
Ni 4.961895791609692 2.459407276120102 2.520114333649417 -0.20616313565676106 1.7918030786517207 -0.33715235708384517
Ni 2.445092919485468 7.001535019984037 4.7545246097509235 0.9467066663480275 -1.2683311029996027 0.5914370308381814
Ni 8.39946919369186 4.379069351877905 12.667184088735514 0.02088764208228661 -0.8178910555334946 1.1181725077329194
Ni 6.495936100216712 1.8730252754739214 6.570370754716808 0.9968966569388574 1.4204815318853343 -0.1694693797801533
Ni 6.0599653798066555 0.6691731444248745 13.164832737453064 -1.060470525035761 0.993153130736025 -0.011990339592656768
Ni 8.698707410958733 8.204576556834985 7.550487833532939 2.4909757597056843 -0.7159465580781929 1.2033526412456887
P 6.948496367794705 7.188680955470433 8.575619603106981 -0.11209315585352952 0.02145585588093079 -0.7013758593528695
Ni 5.766484223605836 7.754715199484756 1.4718879984676831 0.8174884207784373 0.9442142389434771 1.5455261056932093
P 0.40696987071347795 2.2318329550034566 1.8292863494482485 0.5358706064267867 2.916136463779713 -1.9994795656292144
Ni 5.216026284011826 4.617697230241372 10.704577100814268 -0.9016761084709504 -1.9791156572608817 -0.8773884395681792
P 0.8546730210112642 3.5424348151636833 11.451353586149994 -0.020831334923054445 -0.3613410385149067 -0.6445858469470189
P 1.5446333009685573 7.564621648732541 8.41408291750193 -0.9833369159765515 0.8707246543947585 -0.5436430512833541
P 5.33137015388241 3.8148036770230735 4.227756285596394 0.41881316458944645 0.23348059252479145 0.46830535778230314
Ni 8.658610632045887 7.752283416890455 10.082304199787657 1.0237474585831143 -0.6594144273194191 -1.894462599896176
