# total energy = -340890.0735598667 ev
CRYSTAL
PRIMVEC
9.06115410233163 0.00000000000000 0.00000000000000
0.00000000000000 9.06115410233163 0.00000000000000
0.00000000000000 0.00000000000000 13.26191494425217
PRIMCOORD
 96 1
Ni 6.145492284364504 2.0967964006926443 11.701120642833153 1.2294179708741728 -0.2763138856402338 -2.519849248206925
Ni 4.563777197374559 0.2963097114526057 5.985513075391365 -0.13913396202140554 -0.8271246583166207 -0.4502472147290117
Ni 2.811023762641592 1.731314743762423 4.777777195793255 -0.19204983618383054 -0.04260857869914598 0.5930560544988431
Ni 3.3012050244478193 4.414603414852129 4.867096617759884 0.9968336649114057 -1.327647738482049 -0.32113721260251143
Ni 5.560295759026101 4.390274215673807 2.6392931427133832 -0.8436756206967663 0.8314615951290777 0.4872068226724965
Ni 7.7581059073686305 6.18205404178891 2.430166233053756 -1.4188576231286663 -0.22914982635992148 1.0070003210317624
Ni 5.035845211822326 4.625800798259333 11.42081655425898 0.2796894869806861 -0.18637695416876934 0.8644092536996918
Ni 5.474758462846077 7.883376364962786 12.410540156333678 0.27066285800204354 -0.22118532009720615 0.41174211667527794
Ni 1.8375386551097141 6.547336353325491 0.3801208577467939 -0.23399892692210672 0.16367205637208587 0.41366555895023593
Ni 2.6193531666568406 1.5186403922114322 0.22551491324767658 0.12230994848553128 -1.7624595924925968 0.26055919390913834
Ni 0.8815451997543106 0.23321326990387878 4.673777797815901 -0.5166500676342779 0.3396995489857311 -0.3061975605735436
Ni 8.701208964678939 2.2102329908279965 1.4331882708814174 -0.047739472167808106 0.29928617816569103 -0.8766837001916709
Ni 6.646954683219898 0.7147375049335809 4.727992495962545 1.1229866412921112 0.7927029863036412 -0.7680288805957289
Ni 1.017939130313573 7.409804198908465 2.83981376806032 0.15240728209154397 0.26212730972720666 -1.51849481260703
Ni 7.786367647494212 3.830376433019157 3.6773833739776713 0.6206843577390729 -0.06475477577888203 0.2011944787975761
Ni 7.574309454432654 3.9408319034041672 12.426361837780707 0.18246682048108576 -0.15598805746426683 0.3335787807999739
Ni 8.045000173433454 8.873180611310366 6.623278793263458 -0.11027461458755201 1.093480661413194 0.8924646171750114
Ni 6.75516298734933 0.726370214767894 0.23554742324031672 0.6385231856927067 -1.1549233420997076 1.0182136732490787
Ni 1.488530176617553 6.575027240732924 9.280091677731509 2.5590254041857543 -0.586493313679661 0.9317973533363629
Ni 0.313376395494457 4.920016476963295 1.3762815038052092 -0.05665862903430887 -1.3168542474109708 -0.6976999531631791
Ni 6.467516645481229 1.7517295243019988 6.967226617103443 0.6266894262825724 1.2129685670688979 0.2631405814830694
Ni 3.7201293691820427 4.302072940142413 0.6186339967752168 0.18357753704676127 0.09374859190807079 -0.162482664049675
Ni 6.546321504048779 5.680573520625004 4.787471724732134 -0.10772613713408544 1.3090056979008295 -1.7012254282724637
Ni 4.973232635910889 2.6338872580840396 9.596069530612967 0.48822317975215274 0.2058808285296519 -0.7049162684059601
P 0.14867994961545883 5.490805767034087 12.452951794945989 1.0077523687064387 1.0565339089855157 1.2118164557423259
P 3.8885943491162602 6.086241396682175 12.733162553631324 0.24134585420548113 0.36315700867772294 -1.5806417184494197
P 2.477700142167188 8.619930410999402 1.4081504894402477 -0.2825508676888811 -1.2802149989213822 -1.4463470867981862
P 6.416756059337109 7.820410404035351 5.685011673979768 0.04268905422809422 -0.5446740636510298 0.10132666136564486
P 4.579788256945545 0.9712470024305575 12.627942618175638 -0.0912430518773977 -0.016661005595448725 -0.3867198835993276
P 4.415165206416024 6.219458486559158 8.040274781488764 0.5398306195157994 0.2304073529161064 1.2069295599636698
P 4.638323313441621 1.097631981998246 3.7272215346184945 1.6714584814226763 -0.8029382908784042 0.24602397640744084
P 0.2849633340927936 5.66040339125035 3.859920326472014 0.029023640925859694 -1.0237353743982565 -0.24389124633515416
Ni 1.2460989944886807 0.9160555118550777 2.4415977852635784 0.8775812723052757 0.41852005882905985 0.23105604224369886
Ni 2.0743337992911313 6.371404982284035 4.960354017366327 -0.5460670873438144 1.3116012265421475 -0.0683761745815532
Ni 6.044940655581693 5.674266957262578 9.605989682292828 0.6345757710091845 0.8876296576802133 -0.847242255002102
Ni 8.610642727886635 2.3686400895376565 10.333207114983692 0.8246000921225539 0.12776505806283156 -0.02778796874654569
Ni 2.547271684547508 5.345772932006813 7.37040176962469 -0.37096776297139333 -0.053692347317133335 -1.24103704317034
Ni 0.41108916464875045 0.09813411282721408 9.35839001777613 0.45876296550950674 0.5759628464619823 -1.0158037782560054
Ni 1.3227472983432174 1.0659360644095042 11.387701659913692 1.3092633224375902 0.32087290319753126 -0.32213531484972263
Ni 4.009035211491778 6.903929017930224 1.5330113828620169 0.2128166364175367 0.21113590628100412 0.458511768730649
Ni 5.830825580503941 8.233734955439145 8.153770269126781 -0.8485303776859062 -0.8703143063302172 -0.35318909883173366
Ni 5.154374170649752 2.754753994709606 5.056038900198047 -0.014873060457090513 0.7226134285754071 -0.07378423297100196
Ni 0.7400480271178672 7.494698153136287 6.977332522445559 1.1820988740732352 0.19095094669269694 -0.4021004798204559
Ni 5.054864574606423 4.225778021303874 7.665440201135128 0.7669330764283889 -0.07022325509262099 -0.701738642008927
Ni 8.383071838738191 7.167282405237029 9.290488446125256 -2.932469653722098 -0.43906214464646964 -0.4463753904784313
Ni 4.462482553942728 0.3793171333642549 10.498489817543076 0.6371119071674769 -0.8314309990014584 -0.15398413966036062
Ni 8.493518247968945 7.629238171534699 4.574723977831667 -1.8227666169127705 -1.5277867794319173 0.7277232389981467
Ni 6.669408223467154 6.231555127491397 7.200172582956759 0.3311732566822749 -0.6282441723642019 -0.3713606275344379
Ni 2.3262157653093856 5.006052136627419 2.5922929355856517 1.1814021051165267 1.4089028259087992 0.37966220542159773
Ni 2.210042706588613 5.283405007260297 11.476264475499914 -0.5708172977053008 -0.0940956908348444 0.5135282341758446
Ni 1.224171001188293 3.1976632147604103 3.555798087819576 -0.722879280642284 -0.3277927702458161 0.4202606956692504
Ni 3.7275323322094875 2.621672822146468 2.6227692218114873 -0.16921098391244407 1.398336877467495 -0.44537883089311686
Ni 1.2609592874691087 3.370957789913267 8.215544688269505 -1.0393301435127198 -0.14285177719262496 -0.6792664290483399
Ni 3.4396775837934905 2.702543623884468 7.0353130363011465 -0.1850860032714877 -0.4282444852056754 0.09720518299810356
Ni 4.442557075732995 6.432640262748506 5.716363267706769 -0.03700331669722659 1.320707816829106 1.2595425581736954
Ni 0.6940934771913193 7.459966748871666 11.495282026053161 1.1833875109776715 -0.6688395772880611 -0.13703928427590592
P 0.22363653597033345 5.688955088312135 7.899393767341752 -1.2953814222491755 -1.583369401793228 0.001972550345338538
P 8.634582297431933 1.7529799635893764 8.128095488541389 0.16333369919606067 -0.09009608275714806 -1.5449872024706037
P 1.7060703680042084 3.389297566128137 10.301908982066804 0.2394779477588069 -1.1788770247018279 1.6380860766098175
P 4.173730751255351 6.090427649948613 3.616338377752584 -0.32678026982090175 -0.8981714377518016 -0.4421695799271998
P 6.950476167345139 3.6917951398224096 10.3113778882647 -2.4307643803231103 0.8602998595170086 -0.18938437353652546
P 6.288731010849019 7.975999483771284 10.314653495528372 -0.9486478492347984 -1.4725291445101931 -0.7641426581674453
P 2.5141712880490306 8.512320143050887 5.78890596256775 0.020131994863184684 -0.6592753306383936 0.4863061652350979
P 7.39807000414648 3.90066380658573 1.4456681986387003 -2.009553404925449 1.1190299706372082 0.20344136585022382
Ni 5.612433640617188 2.8622917734240687 0.4621034631120489 -0.9520445336211733 0.9153569483921526 0.6293317490014259
Ni 1.27807580785937 1.0523080884079408 6.80821604552031 0.6822550793630185 0.4237692230431412 1.7306205936051293
Ni 7.107542215224857 0.7747939292292996 9.19780099312154 -1.2948278637385509 0.5101125236260763 0.677661289344749
Ni 2.797015218161262 1.289655962998996 9.049227965126304 -0.8391589637733354 0.8264793114231379 -0.014398434813517137
Ni 6.33192553318908 2.0657800696731288 2.514777479268781 0.9720268902803711 -0.9566943736883587 1.015689621275644
Ni 3.9866088547072907 6.8810405422786625 10.265650773309986 0.11725361700854645 0.08262060031570932 -0.14778058195281002
Ni 8.056969958206103 7.418838169702054 0.45640490320022503 0.10717155018219607 -0.7253272279621444 -0.9491103906935139
Ni 7.5546829943133815 4.1144164354932276 8.25877817357287 0.974931979742308 -0.5792736560027701 -0.8075032845412673
Ni 3.0979905179404663 8.152193628286176 12.2732654815807 -0.9051501830624797 0.7313101850184567 0.21825426249334023
Ni -0.21830585892131774 4.889253858262958 10.403933048416272 0.8931140778335522 -0.4460020662994125 -1.2092065289233047
Ni 8.642039627384916 2.444454767200608 5.815429773306962 0.022213045761929485 -0.513524891741735 -0.5193039603173573
Ni 3.5843298503419976 2.7574360963694877 11.68658564529053 -0.8502607301134518 0.1276241616095931 -0.7206105392127654
Ni 0.8515718075897022 3.239308279722634 12.682608561804248 0.7547838426603647 0.17705182011310155 -0.796293531868377
Ni 3.202936806537611 8.074838554399642 7.956432827270103 -0.007170292496194103 0.06922823816920336 -0.5897547580397521
Ni 5.579650384517683 7.9111578639127815 3.5849740984096248 -0.28554774553367596 -0.6065875133263746 -0.6745268574808253
Ni 3.1072872622074903 8.619894166382377 3.4696219802644785 0.3891454623216847 -0.6839329812860737 1.0105507573871821
Ni 3.362213776055881 4.513958971273101 9.587701554657219 0.8191362407945054 0.06862582869851407 -1.281443986232477
Ni 7.404304078274855 6.349205154355956 11.666838671819647 -1.244869786652869 0.13852178235870338 -0.7725954169204888
Ni 0.6397673268473217 8.945117114951596 0.16498459058435036 0.3692885754967576 0.26699029424646276 0.6056526602169312
Ni 4.636556388361631 0.5031994221263374 1.4996835513917046 -0.21432433131131476 -1.2141494747508768 0.3073836104618448
Ni 5.976248045164239 5.4548239234820874 0.33241025612536373 0.03207219794419638 0.8131975067125673 0.5293317768670045
Ni 7.926099707281518 8.760795115068753 11.263398027478688 0.10144081834600593 1.3705383671979878 1.363508199824084
Ni 8.699025226503155 4.812904572498881 5.907466635435072 1.1155232430355304 1.413955043620726 0.12724440967267117
Ni 7.842474314649584 8.76052328044106 2.4344104777074342 -0.1681581171678975 0.7933177370695047 0.2995851974633486
P 8.532200315489339 1.6258791528354355 3.575770684031441 -1.2456537160067451 -0.26467912961478285 0.6567085983524819
P 2.057470991220048 3.164789347118342 1.3061046763205637 -1.9921195257197175 1.1525676973833376 1.6057325999797765
P 4.773180472239004 1.046726417386024 8.024917937255086 -1.1624561601416432 0.8356344955598446 1.3360832708439119
P 8.493808204905147 1.482413897494511 12.452766041283734 -0.22193916754409518 0.4331591488984734 0.3946044285537269
P 6.122839398723607 7.472742976373131 1.348564339050434 0.9391427379578406 1.1028014245934876 0.7076763476496005
P 1.6853928139911982 3.4937183077784124 5.915039948162537 -0.42082428148220424 -0.6088379999234482 -0.007687084231612568
P 6.6674510141477805 4.030310801685708 6.011069154855999 -0.07931981807725048 -1.6029599223306457 1.2663076448116708
P 2.291203465262816 8.428187325780598 10.061456756027521 0.8777663917328883 0.6056457182383956 1.058713433135338
