# total energy = -340890.1987027081 ev
CRYSTAL
PRIMVEC
9.08940703424199 0.00000000000000 0.00000000000000

0.00000000000000 9.08940703424199 0.00000000000000

0.00000000000000 0.00000000000000 13.30326596595494

PRIMCOORD
 96 1
Ni 6.338707046997489 1.7589275115220577 11.480599145512564 0.8899791317489963 1.036651311128976 -1.3858932523875034
Ni 4.6166007233438835 0.348129742797946 6.252428577610933 -0.6017348132197637 0.28440977527449085 0.5262243415862745
Ni 2.7710602522566594 1.4982978544151637 4.711564121145226 -0.638143947976417 -0.12959954016840905 0.8602309539522863
Ni 3.5320890344492 4.38154865761241 4.970552231342952 0.561467995279917 0.4369679811216023 0.05465625389229941
Ni 4.761449513734323 4.885610813730145 2.5003622589853896 1.8048763668959111 -0.6988119552804352 0.1072229722454218
Ni 7.277615524718449 6.12387891190223 2.5003886182657697 -0.0725948406485911 0.04742502625118284 0.025390929269278852
Ni 5.388564062190523 4.195397601688954 11.42264963100866 0.7676717543666263 1.3471202453843638 1.003970275956187
Ni 5.418231886728323 7.910320058496568 12.415392848672171 0.16812160750300725 -0.22334581808363468 0.8029475468497849
Ni 1.715125659056475 6.416694159293546 0.5116663540369513 -1.0958123948701646 -0.12755062805918033 -1.7970951802885953
Ni 2.9306884184738347 1.8529119801865372 0.39942217559490195 -0.6412141022613087 -1.4858166056477184 0.9962042588575231
Ni 0.6778079893300416 0.1375918078196735 4.741297389413625 0.5837998260078977 -0.763148412574976 1.4191571566469559
Ni 8.542742820656835 2.1738134952928667 1.536047979681829 -0.5532854594691246 1.1284152685068503 -0.35279751982026986
Ni 6.562688214969452 0.7829251637218184 4.969262444485747 0.8416907290562536 0.5867959325217442 -1.3930424618377752
Ni 0.7506550419520407 7.535236588099236 2.3461641045264505 0.3887225158516531 0.3916592298824738 0.6217855612230517
Ni 8.065121749582135 3.9137986825695883 3.8159357639264693 -0.6206835864081246 -0.3674137270715479 -0.40917332750683727
Ni 7.533509600764009 3.955219110393963 12.746138191589296 0.3456315981994499 -1.6669580224491614 0.4163904140805667
Ni 8.066167031390298 -0.15577880234102334 6.818056923288822 -0.25752220685502747 0.03810991949784404 -0.36913893729277075
Ni 6.952242021354584 0.5252313850848109 0.07588927715410752 -0.6223913131278507 0.22392174519176275 1.0667507016175177
Ni 2.094081216847527 6.650728211437939 9.426175011526075 -1.0947410161828566 -0.6772421995294595 -0.9527459305635722
Ni -0.04215121614938656 4.7314635599505594 1.5092160501366119 0.4965622957454674 -0.5988266384340332 -0.6232706304090105
Ni 6.378118715868783 2.2018452265657156 6.995722108811393 -0.3281154436925575 -0.4794469762214194 0.011827588762547372
Ni 3.078736680137958 4.320795061040517 0.6633031135955371 0.6128095829766866 -0.21744642188006422 -0.8713610024271767
Ni 6.202802233122122 5.570015894680755 4.540111545325961 -0.40411108249258143 -0.482433312543253 1.8672623853323
Ni 5.605101005806953 3.17987451213309 9.175010153956931 0.006874872742962354 -0.45052977896643703 0.1743159092391772
P 0.023729714926726937 5.489910950547287 12.564854513129074 2.721973437907622 -0.628524422608782 0.5110990559090617
P 3.9417849668072993 5.93317406305799 12.764789654809753 0.7312019415753666 0.28474016203071606 -0.40508013127407005
P 2.3613006940493677 8.63286429133462 1.2385962257657788 -0.2659808791453419 0.10918652372969583 0.18283371690220127
P 6.21760887716994 7.934606954074082 5.855791396329262 0.46965261583881696 -0.7307172886294641 0.49146971171390846
P 4.603212026792359 1.0735135063913936 12.467727836455182 0.17164967526092373 -0.7538412762414372 0.9191760650279266
P 4.191661855400646 6.245767860141173 8.430385933567644 -0.7536967802437728 0.4133847944850235 -0.6701294997440781
P 4.6513949734452025 1.318754797400709 3.8692151410996396 1.1141875549432423 -0.9060665242291621 -0.6279868049377572
P 0.2613831689494748 5.803195542564561 3.423795112301308 -0.3297136414176128 -0.5356734028143161 1.6570356211291268
Ni 1.1277045510894232 0.8997413138987066 2.6015737151774445 1.326823699918857 0.9110812038349342 -0.6246919362365694
Ni 1.9027401095113607 6.837524615260349 4.786994383244445 0.03532515766385529 -0.4765112906318632 -0.4209782905615653
Ni 6.113626060775196 5.505072081469178 9.605729884769666 -0.6060159570936209 -0.16236079375983006 -1.577257375358219
Ni 8.827795714446655 2.00735918439803 10.167340712541392 0.5092555749424197 1.0557823755314721 0.13113423164538063
Ni 2.4546398148148936 5.364958872140072 7.142949597020932 -0.6316729955400928 -0.38927298903848445 0.010568519544465669
Ni 0.4972269220330449 -0.2691500672544842 9.086330263233707 -0.04208330232329526 -0.3380972374956177 0.1842575938329214
Ni 1.6594075939778232 1.3638655244782536 11.622557504468256 -0.25243476502979106 -1.17417087747541 -0.6130252985319183
Ni 3.758378911806152 6.73374176582021 1.463200018119127 1.0889079544408473 1.7697643536841263 0.5224041965092358
Ni 5.853287264693182 7.8148721953006595 8.215019705576356 -1.2328881888109606 0.9148990349191276 0.5565121939365383
Ni 5.841334694452003 3.141535393291042 4.264774318707849 -0.5981591800533634 0.10706793472479625 0.2631794051408048
Ni 0.9210750611329811 7.462766745868879 6.960787881841851 -0.42705946375863874 0.03340222960952957 0.32273823854104416
Ni 4.991447869158501 4.677936041965538 7.135765329706387 1.1017328741196575 0.028757274638350476 -0.24701307979358747
Ni 8.098879807282316 6.686858604372301 9.433558336854523 1.515198144133629 1.5522014608308559 -0.8404082627994044
Ni 4.511827128537747 0.1454477823135526 10.41902457525181 0.09102373677774002 -0.34131111644722506 -0.16410708702697546
Ni 8.12802044621252 7.56862198011129 4.580832997749919 -0.3058828575466022 -0.8429698528789934 0.20538254873699466
Ni 7.391833013426171 6.532829512884073 7.130630723676544 0.09844754004563691 -1.2347530099338413 -1.2022388393562198
Ni 2.2811412134737346 5.179589505220982 2.7063236775253094 -0.7428613801911658 0.634216845007869 0.6934067251044639
Ni 2.3607644190347443 5.333118679322697 11.488301509027679 -1.3353291662867066 -0.830874098056724 0.6038873407863923
Ni 1.27950673785591 3.473962276508258 4.063469403388123 -0.0021890372315188106 -0.4036768231686403 0.03331712609489101
Ni 3.4987854471003943 2.95310289620368 2.8507434479040508 0.1387992043898061 -0.8783819138297001 -0.47952976574321277
Ni 1.280588377292184 3.475725621471595 8.222828415153693 -0.7392710917367462 -0.3691111693786288 -0.2829563306574159
Ni 3.718076481046161 2.7125244709994787 7.2950853650253284 1.0165635392401653 -0.20529950210488512 0.4097577392553975
Ni 4.104021792841371 6.806557005517613 6.177903620451657 0.8169232923035865 0.9417428945848492 -0.5748793835898164
Ni 0.6727361002086897 7.319372260602842 11.445677643712862 -0.1266967646993173 -0.028817695562640692 0.28164841047926975
P 0.18104553599610262 5.57529684016374 7.834107198452282 1.5024305600553156 -0.17888630221867902 1.339480983671551
P 8.859790427183498 1.4686754769125006 7.977117201801055 -0.4905639120701874 1.2519889141961535 0.11117784312811176
P 1.9914254538788005 3.232074976692094 10.35345268401463 -1.5141828154952375 0.8628244257110754 0.9347962880636869
P 3.8820039367873496 6.337280010094169 3.845455431129722 0.3501150878921003 0.20194472670003927 0.12521632349904885
P 7.321717327615939 3.668984593690566 10.509805936879793 -0.583948178660304 0.626126868910883 -0.5371253047694943
P 6.246376850412016 7.537281704680427 10.400985738065007 -0.33084209859510116 0.7480676069824537 -0.6027799666548264
P 2.574174606633711 8.539825121001003 6.0549148539623845 0.08692719811086319 0.056345982889896506 -1.0974800123805744
P 6.918211281443576 3.907127057811394 1.768682263143984 -1.0915716173159393 -0.22050500620072994 0.024291782667829134
Ni 5.181634621802172 2.955138923377843 0.40794985726811417 0.9299592716863596 0.08999889505765145 0.4208402223218043
Ni 1.6330301347839817 1.1874946705164007 6.939355969011679 0.05289247712365729 -0.5609136654383436 0.8164754061328906
Ni 7.131894151253368 0.7832323856793484 9.065430989655347 -1.4888229965742101 -0.43306093275771224 0.13716115456575087
Ni 2.755799137857466 1.6007627398363122 9.243547918707185 -0.08691871347043095 -1.0667625286920595 0.3040344914839538
Ni 6.217127138597481 1.426973277470273 2.2451126218980804 0.638137520218514 1.8047611814742854 1.8639914278905123
Ni 4.221702345626575 6.641829681958003 10.668580607777084 -0.038152085589689126 0.5035292139816039 0.149346126667717
Ni 8.070166370482404 7.066750371087187 0.33938755111888447 0.5474050894289476 0.9010513304027579 0.554234196535639
Ni 7.745692718414261 3.9013189267208137 8.246135472653641 0.9186284200545727 0.1705297027238676 -0.02380918660445577
Ni 2.9127277501874693 8.36012754406708 12.42188450317122 0.562810111130108 -0.2014536459962337 0.6922085910313046
Ni 9.319914389730238 4.792489838733278 10.187561007414796 0.2056885100131877 -0.7896603428225756 0.426892084942839
Ni 8.74537297152117 2.486616348737683 5.942089862411277 -0.057184419630791836 0.2522861552670687 -0.11548546936453014
Ni 3.6769196460255844 2.863245018329691 11.678059241659652 -1.0586123887810994 0.026726103140934616 -0.45286279797498785
Ni 1.0591704221019789 3.3813412188979046 12.653560763132676 -0.7837738021348114 0.8566434937113441 0.4165490511456181
Ni 3.2362833721458326 8.419272315595105 8.183676703323385 0.31874300133872197 0.15066355992755986 0.11194300342891043
Ni 5.72631733792586 7.702090832903283 3.7184891401252105 -0.984181523365034 0.950712445073311 -1.0819181533865754
Ni 3.116175947684282 8.581536409850258 3.355629104298478 0.7457597847848835 -0.31678793449488024 -0.02114423817778294
Ni 3.589215957617116 4.478332663641364 9.551478849985255 0.3285841557988599 -0.5599998953748226 -0.41306443503112733
Ni 7.387124700585921 6.098673986214938 11.6226374912501 -1.355298153209466 -0.1810588843899656 -0.6793155371187204
Ni 0.2279641461314195 9.19066302179901 0.3300990860774694 1.6968095585929552 -0.6429038312589057 -0.281350933843509
Ni 4.729945628976965 0.13218906428252006 1.244858827207735 -2.799832612278946 -0.2305487635899771 -0.44296482213498545
Ni 5.9315379697930375 5.544974578319958 0.37084689778180807 -0.2567243935440804 0.5728068173315037 0.20949605668473598
Ni 7.74650167563971 8.71887735003597 11.274944039989473 0.9393509973139049 0.26384737774210687 0.022047466718342675
Ni -0.04493348364050814 5.354905987967643 5.663359560149795 -0.195459890306644 -0.6873461207326808 -0.32694841996764984
Ni 7.913574066212417 8.812180113173389 2.3978073884346687 -0.3152211042283926 0.5124447713036787 0.6229746964351464
P 8.410419233150307 1.516303969736666 3.856537236177665 -0.6943675463558364 0.7019443302618298 -0.5982291140593503
P 1.5777847188707605 3.039097776090976 1.7154428793617351 -0.39490550473391345 0.06582075514955116 0.2226889012259262
P 4.895063797038757 1.3059569123059713 8.599510712247163 0.05271070013015438 -1.6840016081950093 -1.3771952103928733
P 8.563712082669305 1.630321491489783 12.33711669323264 -0.010299839264111293 0.30879720297991975 0.45283091629578787
P 6.28188007426148 7.856156282019621 1.3507340581456062 0.3751920854653861 -1.6312703392395647 0.12432877868777298
P 2.0938448922648116 3.1205933994996533 6.096554336496122 -1.3328081996370658 1.4821730953578605 -0.7797443692604442
P 6.954223512086581 4.121691600102855 6.174471460358067 0.03988809444418937 0.563109644648398 -1.6472649148956084
P 2.212997928988473 8.564757364477469 10.397766270095863 0.4780513814254735 0.7813124850785125 -0.653667497533313
