# total energy = -381168.57785330265 ev
CRYSTAL
PRIMVEC
9.24221169305366 0.00000000000000 0.00000000000000

0.00000000000000 9.24221169305366 0.00000000000000

0.00000000000000 0.00000000000000 13.52691102985732

PRIMCOORD
 96 1
Ni 8.479951056106389 3.925158070608864 7.95115883739601 0.25177990505461156 1.501757188137375 2.830126635276797
Ni 3.6002481179782837 3.761626376629473 5.470742376919899 -1.3481535717448847 -0.04307626236418388 1.072963515296449
Ni 2.198278539413701 -0.139200647434226 1.5061671975932394 0.06376927193716114 1.6948943438481134 0.2705134769083728
Ni 4.406723511707324 4.266288104788773 8.015871879561393 -1.016667154697565 0.6417069827373271 -1.5875795832198336
Ni 1.3723852588840115 8.693131911386631 12.474246415625743 -1.1834214495394006 -1.618666277322309 0.38090739068260854
Ni 1.5934127519052124 8.77458352317822 3.8689802109567597 0.15490356615083647 -0.3792703692998178 0.3421518671809656
Ni 0.18112239552516746 3.912865929035868 3.588445813625866 -0.32488408123945334 1.2561736417014624 -0.3700313672000531
Ni 1.896871531159158 7.041493225714596 0.8193618095149257 -0.24151708967602278 -2.4713818967341568 -0.8245494413902766
Ni 9.56966326987004 8.064245615646401 10.236868699577036 0.620500523863041 -1.5994297976902003 -0.04739108768945387
Ni 7.680111570384424 4.264495115717223 13.117005271141212 0.12046698173952156 -0.5842070887486454 2.594589931553925
Ni 3.549924275222673 8.019596490880128 12.912559230147162 0.9850161034511875 -0.37285520980209336 -0.2624394416509867
Ni 0.6171486868697758 5.9923173525067055 7.200483296860175 -1.145656314975485 -1.1072460906284027 1.3634961156392258
Ni 5.56471718557721 4.336759969070046 12.488828777260233 -1.5078869551841967 -0.8066892732804043 -0.12882280990338457
Ni 9.015010418576653 7.783698279219115 1.5346415276475573 0.5313912304991946 0.2941097761710741 0.7800829835467855
Ni 0.7559898122685208 5.334937318067568 9.718395410239777 -1.3271273472022047 1.0432094239624679 0.9225861191507401
Ni 7.434721607298249 8.15379340489509 12.14051107503422 0.6664073136974846 -0.4592126514524156 -0.9448392741219858
Ni 8.391235065911511 8.723058192900437 3.94044284033324 -0.06029571156626389 1.5928459738250955 -0.571853452279299
Ni 7.22356479638228 6.42830944766799 0.88159609049995 -0.8011475175265685 -0.10082812446267152 -2.9880872430864023
Ni 0.8909057703544454 4.138264988195435 13.399865933159266 0.8568607519284727 1.0256189645742142 -1.1611659805753098
Ni 7.482697928279768 2.93086245052913 11.004250461998094 -0.717862544153983 -0.2827053909888744 1.3778282159911819
Ni 2.080227769254395 7.209599814489952 8.458255888340636 1.4719041093316845 0.5466556128574327 0.7230361179351226
Ni 4.810404834733877 2.106115204251359 6.727297769118284 0.6303131390780887 0.045460446325644284 1.2809097109955618
Ni 2.0432496802066082 2.633318686768957 1.7943578431038847 0.032986225118033514 -0.734797886456741 -0.5627406913447535
Ni 4.353913514001986 9.038282307659964 6.053928708422542 0.44114011022142086 0.24010118316510265 3.019420763092361
P 2.6453612886258093 1.986604164642028 6.772910856565807 0.07697651465605453 0.3861182454595867 -0.7472052589821583
Ni 5.983703611193899 1.5894663275054608 12.496729019829102 0.45000090304616047 -0.03095376806903702 0.3405287297552458
P 8.855822564100501 4.535088590133895 11.490610762531192 2.05713861090358 -0.342154695394443 -1.3116652470108634
Ni 6.193880747668711 6.056208762051157 9.139741459359238 -0.0654173490635454 -2.1398872521567207 -0.49447713108166447
P 8.951202188937582 0.5847556590508333 9.113539789164168 -1.51011687295598 0.44531789574819436 -0.2134542700015356
P 5.626861817108657 7.403205665370492 13.262135721607944 -1.634851885943236 -1.0584576083707902 -0.8056261221232126
P 6.627368203456852 5.6038579521649075 4.600312726606787 -0.5882666035299997 0.2773127592183934 0.049387035073560105
Ni 6.213566658608922 2.3967088248063493 1.1490370465026758 2.1463543479383036 -0.029332173305213996 -0.3430872345110414
Ni 4.34944952574653 5.789007179331695 4.0369306063542325 1.1953400553538573 0.3119799715832756 -0.13028602471247241
Ni 7.46222642934429 2.2700535555459465 3.3564053011321975 -0.9244388560887628 -0.2830810291607383 0.3057679292352928
Ni 7.021077180049373 5.7637020036724 11.44877127012446 0.9877687264956603 1.0504488791337006 -0.883450586601859
Ni 1.64546488825041 1.0287043742724131 8.395829369352064 1.0750993306925292 -0.311786881735863 0.5106308580233915
Ni 5.700189524808017 1.460851709362746 10.264707165465774 -0.44601003671921247 0.5046257894798922 -2.19417892362075
Ni 4.075075986740869 0.34792490822838007 8.564104166380524 0.29858683810582126 -0.2990105559068012 -0.5808014055012062
Ni 2.8301038584773996 7.0659666023200804 5.493670455727636 0.45636489759097537 -0.21857719305039774 -0.6364380210289039
Ni 2.078638108840444 6.445684805680947 3.1408944842801105 -0.28002398750196933 1.499456050808024 -0.368585635892462
Ni 9.548221338705114 8.331918551163023 7.519176937895268 -2.8774097366334765 0.6442855420977807 0.9792493761707394
Ni 0.3436531579764713 1.5353254513140249 3.2289413383472554 1.1637028880645506 -1.1878799995313867 -1.0599537333003424
Ni 6.417348184581093 8.05039154029458 5.0013858974890555 -1.1177742438532363 -0.8409085994745905 0.7461721897319535
Ni -0.025709060310979484 2.6015347207016393 9.710753025377588 0.5412411267100807 1.024568411822513 -0.7862996538804586
Ni 6.530888755426397 7.17134630022632 2.8304384265412663 -0.8241702036739871 0.1870968630539294 0.8008065892473821
Ni 6.056680114848318 3.6479841414553693 9.380696085046257 -0.04894866198456086 0.4243045267213209 0.21942000066666725
Ni 7.924050506232285 6.634401526567415 6.092479821903204 -1.6282125262498475 -0.039839500594441066 1.8219780595732042
Ni 4.815543504444091 6.160479394552315 11.178030844541617 -1.2027744001447156 0.989349954939851 0.754416689128933
Ni 1.5392256646552311 5.06251388573251 5.3296840449321605 0.004093453343083273 -0.15509048535066192 -0.9816885817398512
Ni 6.060025795486982 8.579055292262204 7.6972179800366485 0.03524545346585543 -0.7829921867737806 0.4974750373677239
Ni 4.5185357889630415 0.790610213109337 0.797575143853254 -0.986224521936992 -1.2385032210048927 0.8703533870982687
Ni 5.302035044383458 8.654157504609696 10.887796746022106 -1.381325687621479 -1.4102441704280422 1.1665156749229975
Ni 2.545610097650362 4.315428944445629 3.4090923774218047 0.9965446729160774 -2.1183131255303715 0.28618692177957167
Ni 5.642379490568101 1.1833173339526 4.753843423295849 0.48021830716980524 -0.40231645248600395 -1.547670919950354
Ni 1.7829058185752387 3.7166722588768026 8.452817770971048 -0.24868661084126847 -0.5642008208300476 -2.1454238657042346
Ni 4.173662659040979 7.49257785259671 1.8030020837153304 -0.4100413319340874 1.1650460323560063 -0.1704109177578162
P 1.9783693540092915 6.638948694728253 11.277087945417716 0.5570580391376794 0.3748431867663996 0.2381440594387318
Ni 8.63855665124487 4.260151276213984 5.815692217199147 -0.09163231689601638 0.10762457855921465 -2.099051706197598
P 2.784244003977245 5.587221971088672 7.074169065211835 1.5054834879490264 -0.9403593839737612 0.952843889594017
Ni 3.4625021946670573 2.468095668046816 9.447763118533928 1.0892460545065563 -0.15115438352104937 -0.039759796396441206
P 7.177704941882126 2.627033982806824 5.9216754315299855 -0.11741096852201714 -1.404021329446782 -0.18530840369493892
P 2.669760727537621 4.696069433681596 1.3327980934707682 0.8312055132542138 0.48082611595713326 -0.2286931984384771
P 4.308312441429685 2.7983198924100816 11.415779346986776 0.23133372138511774 0.439782567752262 -0.5960470188063671
Ni 7.309369489888818 8.559508014497627 9.888483529205546 -0.3410640334334255 0.5999797782018699 -1.4166066223109604
Ni 2.893718001670581 8.634721133385629 10.345192041912599 -0.2620805156496712 -1.0306873802360572 0.625409274018568
Ni 3.017064559139155 1.1267365138699827 12.208158519417218 3.3699012047436803 -0.3071043886585292 -0.8186068506535966
Ni 3.146769758263534 1.3484941416161962 3.7780257570859574 0.25854524880290314 0.41722165173261044 -0.14689792223754056
Ni 4.865192665744944 5.40456814108332 1.4035250427952108 0.012486048282152691 -1.1871996856349103 -0.6619330799762149
Ni 0.16741342289717887 2.2207371138666185 6.862553840595099 -0.3124263150920748 -1.058565594703564 0.3881722997751379
Ni 7.211004630669723 1.8668528275282625 8.186865735274647 -0.20592890815876794 -0.592767833834463 0.24557737578832542
Ni 4.499053206680428 2.930252464556335 2.337084544407952 -1.3394197914163124 0.7193877225492579 1.622530902484038
Ni 7.006613118724757 4.447638782943153 2.1749650603776995 -0.5647970596531499 0.09670536054354958 1.5590310821581796
Ni 1.1997222597361097 1.0236396422558705 10.768192360074515 -0.5046391592163308 -0.4015487210820439 0.39166462919911255
Ni 4.389255731577276 7.107380952988196 9.037559566704319 -1.3163117446439394 2.041307300298278 -0.7504967852492365
Ni 1.2353879547212159 1.5995957915385464 13.240545915055675 -2.637146059748581 1.3344269661874115 1.415586151466246
Ni 4.3788305167695025 8.40904480787479 4.0815695646876256 -1.053323115357702 -0.7706871441541823 -3.6921331930722667
Ni 1.9193763166706204 3.190873592538975 11.091945187799125 -0.027269377238914327 1.3940469918428895 0.7928194572768474
Ni 5.619569712070241 3.5000625430525125 4.509831473975487 0.9725745352537251 1.433011546031545 -0.2819955094060434
Ni 3.022822457033874 5.041339978707146 12.800177632650168 0.7347708898735474 1.278482846721624 -1.3776844913244661
Ni 1.2578280447507149 2.3968659424054026 4.921820621107277 2.588675365841703 0.8398948134980955 1.4910675696340125
Ni 3.1465109763356813 5.226969800882802 9.657578884530917 -0.3251969844941819 0.21159716218813882 1.6284765785445117
Ni -0.07315580256157278 6.604798722463427 12.453144597851711 1.1860725140090025 -0.8488412240581059 0.15241422407007946
Ni 5.0790204758448185 6.335582337591398 6.60299926384368 -0.5001106752183581 0.36238799172218233 -0.29222258645069027
Ni 8.931044925200212 3.2734989652176094 1.4547647887311856 -0.8716854756461311 -1.272848274143666 0.7742131550295699
Ni 8.791404348488635 6.479335698513487 3.956702663392918 0.18973095824266678 -2.0648403504232116 -2.027585579836811
Ni 2.1374185753098076 -0.2588595624309012 6.417410107399544 -0.1730486124909794 1.945402324168837 -0.3035614085022772
Ni 8.46307477752572 1.0297857130423682 1.355450754369575 0.1107466691279641 -0.5043316552782411 -0.20102350043735057
Ni 7.470590630940953 0.3966045615209566 6.231252554935303 1.2962049465917354 0.918910470071366 -0.12026335036914772
P 8.934621661131601 5.499420959852988 1.7160513559568753 0.9824429434073725 -0.1768250488142761 0.4203128890634245
Ni 6.549936953758687 4.460051073268366 6.961854935860318 -1.3423693609629397 0.05472953033239606 -0.17633808187552857
P 0.5500446845352689 7.528557782779923 5.517044933360917 1.2583194843998717 1.0271030053189085 -0.8835899403932009
Ni 4.030639432843903 2.9135979990566816 0.004561955699572014 -1.2111425696037528 0.4452150516217429 0.8598684284065449
P 6.431128322239241 0.20399686950499063 2.7471799623605646 0.13490886819646442 0.4329819998906607 0.3566073804846633
P 8.2845522161543 0.8532945898045906 12.70070093536248 0.3429103426135449 0.40787414907943953 -0.15779374321443793
P 7.9990048431924325 6.768265720960854 8.881431808525024 3.5065157427773412 0.37767937066361407 -1.080221739520759
Ni 6.7185426219663285 9.064576399972124 0.5011949745472464 -0.9049316392937705 0.19181175203109546 2.165777489659922
