# total energy = -381172.3946780609 ev
CRYSTAL
PRIMVEC
9.18187569309419 0.00000000000000 0.00000000000000
0.00000000000000 9.18187569309419 0.00000000000000
0.00000000000000 0.00000000000000 13.43860319506904
PRIMCOORD
 96 1
Ni 8.405042880207594 6.406818871019279 3.023403358193257 -3.9982605625295076 0.6120513646544233 -0.6802439624702608
Ni 8.387725863103425 3.8580128821732544 2.943968199087581 2.825420488050379 -1.2026216766169355 -0.7872072532963927
Ni 1.7422057759350986 9.465228129376719 1.9651270209307914 0.7108717146584467 -0.8700793075012757 0.5555971383214366
Ni 2.419543546220095 8.145260078018687 8.127089146497399 1.207088197028721 0.5048286495193177 -1.0622800674406738
Ni 3.744322900315444 0.05443199405988306 11.87542452638576 1.2420289747699642 0.3008170129879207 -0.3726531210936163
Ni 9.049858447638417 0.7699939118553027 0.45729687961887827 -0.7669909262495178 0.5715757731378801 -1.403597354535486
Ni 4.463263748277531 0.6761193354123962 7.369447611688883 -1.8232661822570084 -0.07991477134877205 0.5364953844949792
Ni 7.175286755174309 2.275893104759471 1.5516478873482435 0.5972479810930037 0.39197290446815075 -0.7665751788683378
Ni 4.056736212600374 6.242206207899684 2.7673979795656742 -0.6847616478349562 -0.19660685942689365 -2.2767074784432855
Ni 7.146382211248579 3.9096333859694594 6.564434945043763 0.4125723258860572 -1.089657173902046 -0.37228133957649434
Ni 1.7043029940655265 4.061474060334071 13.279073436058885 -0.5850686654179923 -0.33266449651582064 -1.580200517146943
Ni 2.1097562503146943 4.667955297749035 5.811402711712604 0.14817781739122868 1.5614286358560785 0.45346032234967065
Ni 5.8490291191310435 4.215086836661091 10.760437253576002 -0.9684054914776998 -0.2677014613808744 -0.7527467576256778
Ni 4.393628404842736 0.9472757267248095 5.053532548205309 1.0025230019866993 -1.7853449817312026 -1.0738765140290216
Ni 0.49123217310525213 7.6799042663148 6.575615714782759 1.1553725138219844 0.08070230024707392 -0.16130484169148993
Ni 6.888224601014837 4.673749061159816 4.229437189806428 -1.034801916625063 1.1802301962956125 1.6353887322833125
Ni 3.960657067861226 0.307528554543987 9.667327635407867 -0.13020117830814995 0.0687834373223009 -0.934812486013603
Ni 0.23439675293672732 1.5110520614083356 3.1870050968254877 0.16258910772055224 1.5245245637408775 0.39446378921080455
Ni 8.89793513639473 5.274363080160378 5.683346767521185 1.2611137593155572 -0.5634904250265844 -0.890832223777911
Ni 7.828962832417181 5.622438796704372 11.117487335187661 -0.750955727163526 -0.39477746379648143 -1.241942842814061
Ni 4.271316641934652 5.327287410270895 11.909545293756281 0.44628025966146373 1.74300714019494 0.6264318017458115
Ni 0.13621036778113885 4.503544635889404 9.441814346971823 2.9886690837318013 0.25626879406390063 1.6423361101354232
Ni 6.473249739921012 1.3523433442049555 6.674416367406147 0.8467565736149352 1.3266792039211925 0.07723208231028636
Ni 5.865216765554506 1.546833830048288 11.016442632203583 0.2451508297738681 -0.5909225530956081 -0.4647171262104125
P 4.579414472756718 5.3415284990983425 0.7828962832417182 0.1042543765354011 -0.42998280805302075 -0.06035279005644444
Ni 2.405458549275346 4.965751064312948 10.564180174895531 -0.7876607958940435 -0.7316233453835013 0.7644946421902253
P 5.835825582229772 6.422363786161038 10.14673630749242 0.21624314560058241 -0.25370951797715663 0.30185779554760916
Ni 0.45156830752381383 -0.08892921832397448 8.75027772448646 -0.880325153599 0.6257363183406837 -0.05115878226200222
P 6.851680736712295 0.7366040217708311 9.014776337907977 0.2925869117686445 -0.38966816759437406 -0.25867431818159964
P 1.7509377394908068 6.118673255556364 7.48214411462269 -0.20563657372932972 -0.5966442860707337 0.44779309676156426
P 3.3599145026043233 0.23827976806575882 0.4327417900951872 0.515346518331506 0.684179550079241 2.492556988149875
Ni 6.998636653335962 6.558696272885701 -0.37436067140301177 -0.7680857019755932 -1.5541339019668783 1.244124423846412
Ni 5.334201362486929 6.2968934580971565 4.607424702013336 0.4774877956125196 1.3526496598430253 0.5823414962948164
Ni 6.199886943937266 6.077878182919128 7.0084061688178485 0.7191344688878711 -0.2176341124108381 0.11961003305586497
Ni 5.57921970894757 8.224518026928124 6.0512011619782715 -0.23038087055354517 0.5466697539248199 -0.8465897090197678
Ni 1.301328844188642 6.875994342911574 2.25011958036318 0.621979936622045 1.701693626158134 0.013540714798912164
Ni 2.4039343579501646 6.3846446418005245 0.4417400280390294 1.0738981112955763 -1.5369003116974111 -0.06882174675940406
Ni 0.9935431971319737 7.02728410474901 9.685482957740888 0.16015555857839514 -1.1194480320112334 1.0527554157796901
Ni 4.269865905613093 9.008815464363954 2.896126037040245 -0.3963298958852658 -0.7200564664815083 -0.8794859455271562
Ni 2.704769325288987 7.0418924685945745 11.759288492907297 -0.033294243276755564 0.5751899728516997 -1.0091315084421524
Ni 5.490954340218841 2.8467119379153716 4.378767539422217 -0.20417618713371935 0.4747999643677112 0.9301420771211271
Ni 5.7846458084553065 8.039888875321205 11.680390473515617 0.8694200766507221 0.3272114438210494 -2.174314323486339
Ni 4.544146889142129 7.512279948046653 0.016799159328626235 -0.44475508126618885 -0.2887947917160639 1.443446882432256
Ni 4.583013767934255 2.992887395125543 8.497093936185554 1.0857894634165237 -1.7889008174032608 0.6897920111700121
Ni 0.8502820671905529 2.922664411661762 4.996727957528398 -0.871469245870267 0.012359550006617424 -0.5279454380424391
Ni 6.5632963924876035 4.768873290851862 1.8790928479371165 -1.050101780206927 0.3209670055732344 -0.7881469915018426
Ni 7.107359240573753 4.0510342679441225 13.070949701543087 -0.6535453701331518 -0.5528817962728027 -0.29064984264693167
Ni 1.5541517847842494 8.596338073393317 13.143424080867918 -0.8195242202615435 -1.087301786295992 -0.6461765884729065
Ni 5.165484401039887 1.3738840240174595 0.9857202392461029 -1.0686219504983017 -0.6803316370880605 -0.6357345672039761
Ni 4.820521340274426 4.101791675447755 6.496448666440309 0.15209155062333807 0.7890646182201055 0.03872492737402363
Ni 3.9714457715183835 4.48732026196413 4.426527982778023 -1.1182169878176096 0.1988699444294575 -1.3446766689398777
Ni 8.181638668563078 9.02979604977383 2.413747946434224 -0.838644228920446 -2.1895072291766935 0.010080781274769735
Ni 4.2290524692249525 3.3104150120377387 12.89275337187847 0.6120508504337911 -0.4865851299280975 0.7764466723457788
Ni 8.416979318296365 7.991867666702537 12.084690486207899 0.8091626745215612 0.6150536418158569 -0.9325622565268455
Ni 6.249992438283742 1.1174434244934093 3.298841258029358 0.27261252552924664 -1.0083321524693085 -0.1582902232348822
Ni 7.743709118837003 7.707964077698862 9.71518265208084 -0.4365692030212868 0.554130323967923 -0.11771410158473275
P 7.700636941087448 2.5906661590357962 4.704196160161632 0.35834210378758286 -0.5913318727188849 0.4249532160489133
Ni 3.1975881264725006 2.5526440127853363 5.852108720157946 -1.1008535568384976 0.6064666714777942 2.23549552298135
P 8.728823354303215 7.5112883054977395 0.7209434149983645 0.6061969627561753 -0.46606258449471344 0.8867806794163566
Ni 8.578451780011068 6.090209441652373 7.961512386455249 -0.4322574630198104 -0.01911486645257998 -0.32362732601421684
P 2.346529272618632 9.166073445245775 4.025533445248783 0.3234239517541591 -0.5400095682958248 -4.240957788556561
P 1.8532881051642855 8.884042958834492 10.83831424841732 -1.082467341021826 0.6190483647975468 -1.1224729348804863
P 0.7822397791468358 5.34905763696972 3.661414237725936 1.8697206170648057 -1.3457917563809274 2.6971718054829097
Ni 2.59080388716759 4.136499164659718 8.477218848580206 -1.0104638541003308 0.026940790254901988 -1.4475681036894812
Ni 4.535185378700098 3.407605163706687 2.1193614102259732 0.16758398983198233 0.8659462591695087 0.0675891599038836
Ni 3.7002223525151643 2.49342091611413 10.712918293544606 1.5702907142323987 1.4902957244649946 0.10604540699755284
Ni 2.7061190609805634 2.329827441169807 1.0367035208858766 -0.3118861263178887 -0.6374690333965795 1.0060970924912027
Ni 0.3362063061460302 3.6545517040124382 7.246161651795246 0.5355795575489293 0.4417579463110779 0.07245702951914618
Ni 8.850088383409668 5.127875439184807 0.8861565727725793 0.4860552255665565 0.45793069941619846 -0.10626009411152022
Ni 2.823261428008664 2.3081214875991507 3.5970566363014678 -0.16138685988233495 -0.5896015202913395 -1.0194264626102572
Ni 8.755322246860283 0.8459537311020557 10.880121163729466 0.09279959773124018 -0.09224655344124758 0.5093931289615485
Ni 7.3454360891920025 4.008164091454532 8.909766901103337 -3.0134077241290615 0.7247559288397066 -1.4233205439960264
Ni 0.6240874835959013 6.003982449274187 12.119765250437979 0.4902708063098008 -0.32502806301648535 0.47825655545774415
Ni -0.00973646073025539 1.309794533356216 6.67420151152055 -1.2918962919140526 -0.9561421007293147 -1.0183987926766913
Ni 4.674208154932461 5.291230185367355 8.60070589154626 1.1612497985383679 -0.6038629153063599 0.3335931789776771
Ni 8.699294442846687 2.140524714957363 8.75733307758447 -1.2187178108478494 -0.5412079594793002 1.2552732413743801
Ni 1.8562538509355724 1.8736810505451769 9.647989687516514 -1.0273521452152372 -0.4219051732512089 -0.07209064731866294
Ni 8.026363972779082 0.29572617183682903 4.9893227749756335 -1.7957916309858235 0.9701723535701355 -0.4869111458089485
Ni 6.834657539622617 8.826959239143813 0.42420172773644477 -0.4369839219612022 1.5176993132889283 -1.1885996513062302
Ni 7.629201950063885 7.0069187049944786 5.372968158836619 -1.0569344868580441 0.9666283449726192 -0.9341018330998235
Ni 2.1632314929523853 1.7390839382811125 12.247633884370158 -1.792509874910758 0.4745811634886858 -0.28157333426696024
Ni 7.663523800506826 8.514444926228899 7.166712719876391 -0.4417093524613296 0.2004185198635 1.9844923481917631
Ni 7.824243348434391 3.1035198124575376 11.004952433261826 1.1555743454201453 -0.7692810078352751 0.38726624302110074
Ni 6.246108504967166 7.125658718351383 1.8569599371579004 -0.5906333039899635 -0.028821037996750364 1.0058723780749064
Ni 0.30605486353379646 8.067893595452551 4.219170016674996 2.7023631198758618 0.06644013390110494 -0.3705615286719102
Ni 2.280474860610468 9.327775453846801 5.912125130868283 -0.43615371275042303 0.19898821517487666 4.256290305148574
Ni 5.594994170975653 7.99944271395118 8.48088700782364 -0.26519669268114976 -0.13314843386193198 0.49389169089183976
Ni 1.94619032099673 4.544468254782981 2.114671308244632 0.9750870172629337 -1.164547495453033 0.7854126232898151
P 0.11442820464422367 2.736960980626855 1.1405624686962668 1.8373285738873453 1.9517465212193097 0.6631600104047805
Ni 2.798185726146794 6.939358465412038 4.620419810341826 -0.9838943311419185 0.5977732574688545 -0.5967260471512625
P 0.7857187917559397 3.45171489338242 11.250650238505981 1.1611220147112518 0.02240716405060657 0.42931149301760907
Ni 3.8544044051202646 6.483790532940941 6.599066224689468 -0.23761158397402954 0.04255535686370736 0.9491594987638945
P 6.560422465470847 8.158830889938075 3.73875409285326 -0.6260607915596379 -0.3365057246387818 0.6880868555534472
P 7.23372939243202 1.718534901017522 12.733197167570788 -0.17089814180687987 -0.24915095207219673 0.22903284116608297
P 1.769503491656571 1.768860760374868 7.478286808744926 2.0131624624329456 0.8969018270107586 0.6285827866505433
Ni 3.613774995126109 6.910031555215475 9.638891367130237 0.29489036309084055 0.7765477167000174 0.8422214047487431
