# total energy = -340856.82419944933 ev
CRYSTAL
PRIMVEC
9.43791524076238 0.00000000000000 0.00000000000000

0.00000000000000 9.43791524076238 0.00000000000000

0.00000000000000 0.00000000000000 13.81334295394438

PRIMCOORD
 96 1
Ni 8.423065615813083 3.024880135113567 2.4626153933251773 0.06100019383245622 0.790071205107749 -0.84020000344334
Ni 0.7211416624614827 5.980136769802075 13.034464014882552 2.9488835763037473 1.4411164345268663 -1.4446653282203894
Ni 5.1172281831322675 4.296563704894419 8.393332407769284 0.8017766664701353 -3.783325851327703 -0.8128720050523485
Ni 3.8965754208339014 0.4761258335561173 10.656924820538208 0.15507685850390712 -0.8466084780728452 0.3071082453132711
Ni 8.991086542081511 6.771175632229396 9.62791364531874 -1.3228477459902444 0.9781134627940833 3.8263473491945517
Ni 2.189681267468834 0.9468588423673683 6.127985486564815 -0.7259370936320014 -1.1122247747899168 -0.5291057768991275
Ni 3.943349728561514 -0.11013858279251147 1.5765716451273841 1.235517913124324 -0.9104176021090062 1.932654280474549
Ni 6.825528585862028 7.529672563049614 8.175855471623887 0.12581307654278331 0.9585687078929362 -0.45845006225477813
Ni 3.311868260493153 7.1937110957009835 2.8487535368307575 0.5803465773519747 -0.5689470772657814 -0.28643194791084214
Ni 8.789794686711353 6.235621134246478 7.521821161395336 -0.5025588796485345 -1.6172691398644665 -3.0735214015915067
Ni 7.291648341723872 7.640096170881143 5.39904149960809 1.354852581031615 0.6036757389962184 0.14788239763799693
Ni 5.094869762025183 7.094575234447789 1.1765040825791926 0.30933842019537044 -0.374949887547593 0.46272529259136436
Ni 2.64978907134874 2.6736103693117124 1.999191106044246 1.0752322567259676 -0.17603392037154844 0.6825111612378826
Ni 7.378609292370001 7.541224571253528 2.6707959829992887 -1.1537666027874451 0.6478796872069423 0.6233606190196554
Ni 9.158194268599892 3.770381056704381 12.448142971042726 -0.9116000524528816 -1.1308449609942652 -0.44070045158084103
Ni 0.3837616764584024 8.984810328473992 11.386753140149105 0.10306035622729992 1.7657477763255656 -1.9061035265692141
Ni 6.205646315573577 6.38863805337234 12.949981460767752 -0.14789422471253885 -0.24436355798588238 -0.25266076499766804
Ni 1.214839006535612 7.989081961204773 3.4776612854242757 -1.6849032940736723 -3.9103398901571236 -1.6422535777239458
Ni 6.137023234159641 8.68266491128437 13.681024440064794 0.8268729473171307 0.08247250477361925 0.9224696481775339
Ni 8.319408993179435 5.377865649275474 0.010742235079815985 -2.7471980168023657 0.5715197230889641 0.6796528658534812
Ni 5.739215108510156 1.0845485872096063 8.239797347098982 -1.6345407824607203 -1.92575395381029 0.8901421396894219
Ni 5.547682057456048 1.0404168957377917 12.419078911186556 -0.9446191876913796 0.09434868738591494 -1.0177259349793826
Ni 0.977277243054635 5.0328626591659384 9.527642402867073 -1.417094360580656 -2.462377122132385 -1.1420529138949427
Ni 7.7332200801524005 2.139632003167073 10.897277375543611 -0.0983045867098694 0.9531431660019907 0.42544635363524796
P 7.139037252951579 4.417010378667579 7.507358500143964 -1.2887613458294964 0.5414517000589901 -0.5466237311782327
P 7.303172036182189 5.227142143543037 11.511004237539092 0.4750889563630399 1.1192428579789626 1.7832109661073354
P 9.757577387075516 6.43204302537381 5.189755730064144 -2.8338310807115774 -1.7305295765532194 0.548399592131733
P 9.246136762426747 2.09977568728053 0.3253079486716862 -1.536626232100418 1.1118887316067367 1.0913379040385784
P 1.3801912808269283 1.7083664681361546 11.429767382461325 0.21482338243492033 -0.22810081627011683 -0.652657825321876
P 3.51540633968074 9.657441106811197 13.481380444688428 0.7984311470366701 0.6539099525614221 -2.648892658761548
P 5.088404790113678 8.50079628539432 9.547658333421698 0.5373533616199003 0.26501517279796294 -0.9614807393334086
P 6.6075127447587505 0.3014432362987969 1.9149709259719863 -1.2841945523944207 -0.6238871809470868 0.9698941602080845
Ni 0.9847143202316645 3.709638634481841 7.424353923549372 0.3104218830675363 0.16891607837984457 1.5693134379207943
Ni 7.576984831943584 9.69415459693638 9.566844671230307 0.9817875692115607 -0.8546452323343926 -0.6184503262022317
Ni 1.5743480723064347 0.47092365469827635 1.6921068278308418 0.5590964097239468 -2.0066490867944604 1.7590991606607962
Ni 4.320498257839783 7.688927944122197 12.265295633346513 0.34727530445046 1.060999400956037 -0.45539096371348026
Ni 1.988068522981899 3.809482339374982 12.074975354395512 0.05311899131216658 0.7551700223551897 -0.9653517922530405
Ni 3.8632690180956564 2.3321088457411085 11.95065536022457 -1.837389251921952 1.3679094142155732 0.6757931257877587
Ni 4.306095999245688 6.317495048600198 4.959487587449168 -1.9905334121795204 0.37366176486378877 1.0100807597292991
Ni 7.597701055805995 2.349285851403791 8.318215096906727 0.1412677205349567 1.4186845878859116 0.10109577630176136
Ni 5.1077242025265965 1.3218460890650037 3.4470088244400667 0.4875346383255604 0.37698311592753786 -0.1594276792734351
Ni 2.956606256562005 -0.057811949553165355 3.7976745636691676 0.7359672241744938 1.3098688172320732 0.22898141910285724
Ni 5.238099563089396 8.264820091666822 3.95551992021098 0.10880342935866423 3.0732969442855267 0.2068164529700438
Ni 9.242776864615804 5.545605716112207 2.0308100095448607 0.631429512070719 -1.6254863855679362 0.8636998863374931
Ni 3.1039793023986997 4.664680149326982 9.853913962680604 1.5849100068074704 0.1479466752170291 0.22708625896267343
Ni 9.26786284321548 2.1217660296948435 4.613656892176656 -0.394364801739095 0.5231230769531313 -0.41793281886702216
Ni 1.4374322365105374 7.2741032573684175 8.045899154495935 2.2125054898440797 -1.2066004587590253 0.40238947181578444
Ni -0.22805589529226628 1.6495021910382701 6.804881258780571 0.57110757525221 -0.7787164422165621 1.0120186001819604
Ni 1.974421297603746 8.353187291677644 12.847900969972384 0.3251856716402722 -0.82933889235912 0.39612806428710484
Ni 8.80299833007514 0.6019945896112622 2.3289159990291934 -0.8936462961879383 -0.058323418331241494 -1.4256072831476738
Ni 5.764348276685828 2.27994548843471 6.330434430338405 0.73178481066203 0.19567149209681786 -1.1403958379074939
Ni 1.3911958899492842 5.419033835374717 3.7908924778069677 1.645525306496682 -1.3690198736709327 -0.9270482686871518
Ni 6.356030056358841 5.696112149795063 5.683486106841471 0.7031913152950534 -1.8785454144452873 1.6761851974743844
Ni 8.355273070936683 7.571624096110395 12.318987932915194 -0.22906883661034097 -1.339738608208312 1.126057824018267
Ni 1.30260217997368 4.137865160818592 0.6543438738470866 -1.163381757279706 0.29971375262141287 0.43776322332938805
Ni 6.685064093951201 3.8881851142217445 13.124581948162838 -1.2239824016808984 -0.7131391705363848 -1.7092891791172045
P 6.636487144420529 3.51775638056536 1.3421319439943278 -1.0565958725717028 0.7781142898561889 1.213252416857904
P 9.221390548774245 8.329913392796229 8.315065664604727 -2.4874363790938583 2.6274365457703004 -0.32087213186658287
P 3.5995736674278835 5.720480846839593 7.908469896113197 -0.8208637650085734 0.4221921083640084 -0.032379444771970044
P 5.478011367454992 6.4429532553441735 3.2002337681415565 0.9392679506817952 -3.0810395643454225 -1.4630260901157641
P 3.168166563668976 3.597563391490438 3.7799520465079675 1.0613439287796493 1.070836441651117 0.4933139640114988
P 1.3947728598098097 6.44626596357912 10.959174998586544 0.4726222399901021 1.3033137897223748 1.2957542322075621
P 3.318776814419023 3.8305288902693677 0.010472310705116691 1.1986153836710196 0.2875866303405757 0.1560101689514539
P 8.959403460757542 7.424553063560077 1.35553189599426 -0.1442903094113644 2.0167848896768814 -2.2528113885519785
Ni 1.7875033870820842 1.8109471684370857 0.07502576308512493 2.039213650994043 0.43972188971765563 -3.8128529142525434
Ni 3.2993724607693116 2.2286126676658475 9.350404018173789 -0.15307962556822025 0.8207802041558315 -0.9946811373447774
Ni 1.9328000915749386 3.253806206187207 5.462941848256309 0.32790461323333203 0.07809751563437518 -1.0179786744201371
Ni 6.82445266352931 7.773293468088526 10.62574855526044 -0.9787577812463015 -1.0864492084877095 0.5531720738197119
Ni 3.0028709168688557 7.931067096474823 10.117264829443604 -1.9085257628574614 -2.006444169872506 1.3002585478358186
Ni 3.2473978617668986 6.414007169427994 13.816657663185111 -0.1112320934048149 -2.1185154713491645 -0.29212077076550336
Ni 7.01698613359454 1.664451848713923 0.2152514757414085 2.7524258408602083 -0.7173431813154033 0.37961926799880424
Ni 8.509809494409629 4.25144103232668 6.025311350903411 1.1167414317133477 -1.1812468104855849 -1.2525571279947976
Ni 1.5842956349264716 7.083919828187807 1.3767690927756706 -0.23947717642785854 0.16823679292463284 -0.891282166831136
Ni 8.112218440809729 5.327939077871305 3.990785634144595 -0.5195081059083634 0.2580102022350395 0.21276007214798845
Ni 9.188980747979931 9.340421535267515 13.742384101941369 -0.18549506578444827 -0.24903550954025497 0.15837584097015303
Ni 7.492704249214049 0.22554352226621902 4.180842595261535 -0.8586546106041019 0.8646972172537559 0.7565509618631164
Ni 4.582447594195689 4.572886986098823 1.8826753239515837 -1.101686080042122 0.300313848099257 -3.001499145616934
Ni 5.4779075503878 9.110372352285161 6.162505605197686 -0.3487963690806767 0.1666697055478291 0.5285655881249413
Ni 3.4295118734521286 8.434523244865003 7.971155585075269 1.44932545270022 0.7217186846752797 -1.6732988770655246
Ni 5.363397325274984 4.262587210177025 3.838023538729113 1.3848056757502796 -0.8864567204180345 1.9322485603956983
Ni 1.265001525819764 0.3299457402006105 8.974819351444038 0.16467632926688414 0.7185104621506271 0.18407864505289587
Ni 1.283254453815164 8.089671261398657 5.725009158552206 0.517068386118619 2.06191700612883 2.0461060072385022
Ni 4.834808008709132 2.0310865404601994 0.8248067792188106 -0.9612981910089573 1.1083097560062267 0.3800537844330616
Ni 4.429336295917834 4.14245198760544 6.0243996482951605 -1.946546979296241 0.19396453670804015 0.45373877282203795
Ni 7.524887540043581 4.727914181162131 9.561679300241742 0.4457878934060774 -0.34434553239817467 -0.7430832663939847
Ni 4.479612070184378 4.711397829563398 12.047611063066732 -0.025441322891240056 0.7380986686951998 0.3973763348719092
Ni 2.160357664944683 5.650300509417777 6.324342256077272 -0.4099292318362553 -0.03043671922330242 -0.4778192108100094
Ni 5.125486358931633 6.14525309621341 9.406430314171251 0.15160869744964856 3.055595413240705 1.756613418124465
P 7.191568688950748 2.9986804825203768 4.343302148544273 0.03675546235247863 0.013892441711376073 0.5628399359267791
P 0.1504771761457372 2.719214375554614 9.158481181221951 -0.010836685604187789 -0.40184336950432725 0.5266028079716156
P 7.538176124644161 0.21773742260489778 6.507410440989149 -0.2576345640631757 0.2525674339529134 0.19456617484778105
P 0.7626807586280563 0.3793890903465778 3.937451975353486 0.03625461145666014 2.8279275707429488 1.3076638391609543
P 3.2640652200088196 2.429177803565662 7.0799738358429884 1.4073030855218474 1.0112886639944711 1.0227282732899807
P 7.355675158435761 0.1716860591815503 11.916038974856663 2.0104579190175893 -0.887497245867407 -0.5731500596035356
P 3.4166102433747185 8.406530388383953 5.64295781139274 1.4460982040121741 -0.3076623180445282 0.7056472330347138
P 5.146212020709244 3.31699304844636 10.455788690768838 -0.19952660417684992 -0.3522002525559031 -0.22884360797341233
