# total energy = -340892.48276341154 ev
CRYSTAL
PRIMVEC
9.06736485056890 0.00000000000000 0.00000000000000
0.00000000000000 9.06736485056890 0.00000000000000
0.00000000000000 0.00000000000000 13.27100500209174
PRIMCOORD
 96 1
Ni 6.525546608768844 2.1760315127479815 11.581512781324959 0.5263004462398485 -0.29981916785102564 -0.9133571443533044
Ni 4.843260304945027 9.52209301878156 5.7779432976330645 -1.5555017288486823 -0.6131965340024601 0.2834808357023182
Ni 2.7060008435690497 1.512672180118319 4.926952987678594 0.618063118066142 0.7675077179849362 -0.40470809264663204
Ni 3.2704352275390853 4.33733762525552 4.747158026910308 1.1056355516081733 -0.2296126249289529 -0.614050397362323
Ni 5.2282515418963635 4.561972517839717 2.7411260008667266 -0.14020045561270691 0.6119253805995203 -0.18931341108927396
Ni 7.295601621588957 6.315482971225528 2.4810014429247134 -0.12385543859578023 -0.7559045865283691 0.4177417859021386
Ni 5.183839589693352 4.458940052980016 11.637516452534978 0.6122701655334488 -0.07753547248331807 0.14639835689330272
Ni 5.687069262072877 8.102905368514822 12.31683253352864 0.3483867923470839 -0.5601590466605062 1.3503621493604292
Ni 1.756729367847238 6.594395108784658 -0.048604701631078114 0.4225908864643238 0.984853352621078 1.995065495721919
Ni 2.7871446900910475 1.475840544787851 0.7209606734963119 -0.04279446945770694 0.6643895119365074 -2.5061902626625936
Ni 0.5554250504239128 0.060286187548419704 4.599213091317256 0.3395020882629443 -1.2787119320132945 0.9875596958086476
Ni 8.752382565819289 2.382060173008663 1.5751354419264247 0.3613209839102487 0.8840491394178064 -0.14651868452125089
Ni 7.081004301705604 0.6347091804500272 5.081918783743429 0.45103551495826194 0.1505920832596761 -1.017128667715016
Ni 0.7129741386861012 7.223126175701111 2.175383196173356 0.03611962854069263 0.6655747904938601 0.4878462560287082
Ni 7.613820785036215 4.136704046979483 3.852957190572937 -0.19111189775059345 -0.4741690156519317 -0.5132706096390838
Ni 7.488591411439689 4.102882776722801 12.713330256258992 1.059363665124827 -0.8031342089392942 0.2815903035478247
Ni 7.874815809987516 -0.47858820212495073 7.1319039533372095 -0.047389287917240966 0.002241230625692914 0.10653957302515199
Ni 7.145028963711619 0.911025331501252 0.6295244613259598 -0.8484851262702677 -0.5430162163326325 -0.9226000031078112
Ni 1.9426738153415515 6.246017890411467 9.156714491633227 -0.34522459256901833 0.21448451103826288 -0.29917690628133636
Ni 0.11422340634785036 4.957699514572263 1.505290438532269 0.1330129367253322 -1.0515032885401439 -0.3979882574242952
Ni 6.255810644265949 1.8911077124059608 6.943747975597425 1.1828820320961628 0.5169961381197871 1.002692437685028
Ni 3.7011169151133236 4.310525427896536 0.4249638074069827 -0.5683433822435116 0.36025577587052793 0.17955376059934883
Ni 5.707135340109884 5.466541885688755 4.993375060906021 -0.2941311163273128 1.053106885581838 -0.8759427082605883
Ni 5.228396619731245 2.798152470812659 9.250792933871352 0.6474461992139495 -0.14002690614932015 0.31470508382392254
P 0.25141263395739666 5.390022395153595 12.389412254110306 -0.19656906421042275 -0.2658592659658131 0.15935517416428685
P 4.080704002715335 6.30614358560505 12.644228776768603 -0.48826920249873973 -0.33095265603103646 -0.2907858540041637
P 2.13040453367784 8.649749065005512 1.3817104185710487 0.5657321698729095 -0.7226183136714135 -0.0441088173937563
P 6.056691315891485 7.713498324964289 6.03035787538761 1.3688650932606232 0.26389365759901 -1.1496721210030973
P 4.75513458761937 1.0494749228013287 12.584601786632424 -0.38746036130977785 0.33164531122268687 0.883444415954272
P 3.9706261954992157 6.137953038154325 8.237007158450803 -0.5472809051462575 0.2800658964834983 0.08343589712815308
P 4.7946229608011 1.102437399897651 3.6374368129651518 -0.41646189074845047 -0.5807656671672644 0.7272663539663862
P 9.07325846711781 5.866666554291137 3.6702026419730736 0.23503122484136296 -0.8303272244143184 0.5778114696349468
Ni 1.6070725138025876 1.3673585937554247 2.7880523332955227 -0.10667738415459692 -0.7949408744952245 -0.24038220474063113
Ni 1.8859302471736377 6.389109972427743 4.66002065233478 -0.4263485537345432 0.3690108963553387 -0.11870346208119557
Ni 5.809233866407538 5.714017469902062 9.47935943578083 0.9855917734489993 -0.610603319353987 -0.42593846278031805
Ni 8.86510804352199 2.2027258343661247 9.965834431704511 -0.06386517408507711 0.2321436188809228 1.1157168471035754
Ni 2.575512398458079 5.094643923335447 6.894977341192702 -0.5873602896656465 0.4145423051282344 0.7881590756867006
Ni 0.5593675405868097 0.0072257829135523735 9.030122293125284 -0.12219064929884764 -0.7164001006758436 -0.006149307430847474
Ni 1.592056957892382 0.9858220227471969 11.492981752798105 -0.9962533669279036 -0.0775825236711696 -0.219677368093112
Ni 4.073096483748752 7.051925263176601 1.513173605385127 -0.4117832543258586 0.21058774708701794 0.043064178179325834
Ni 5.50791627072394 7.700142096790538 8.182291053025354 -0.4558892435061374 1.6960626531246015 0.04835139472019415
Ni 5.217561118938554 2.9287678590291506 4.832941643939101 -0.22609561291462996 -0.4737468405128486 0.06318151775449118
Ni 0.8769655895534834 7.1962777088834065 6.8616402682099356 -0.8963755221936432 0.22421665072436223 -0.031544093354868255
Ni 5.172450979655178 4.59959301389735 7.266737479602871 -1.630962578191159 -0.65574109223289 0.9981415850895519
Ni 8.0693742539279 7.030027577474217 9.172507120696515 0.5411010015877906 0.028901770636014745 -1.4266786618349816
Ni 4.915926165491154 0.5453403274267324 10.557097334289956 -0.641478925886921 -0.5456510828523183 -1.6003641365790118
Ni 7.990977818903967 7.33545268935789 4.952712463998221 0.050607794854538646 -0.32028720589739035 -0.2847684441654902
Ni 7.068056104942456 6.0610345835732415 6.925049256154173 0.5846233503504576 -0.01905907351398008 1.6519610348196967
Ni 2.6545798184683402 5.10931491938781 2.485699244565461 -0.7290843810117313 0.9500655555179315 -0.2699938569594769
Ni 2.488048598754068 5.020853709568991 11.701416891644877 -0.2650254572106081 0.1106962755060029 -1.0772731984153965
Ni 1.0488764767324437 3.650865580056344 3.705184534908806 -0.5136789008210959 0.09032671071071541 0.48977072674493066
Ni 3.7657218884588635 2.704958096630841 2.592835598679364 0.43102076239923187 0.18040530996636672 0.5074203215058939
Ni 1.0873765071640453 3.4845882465531144 8.279447865572365 0.5241594886374458 -0.6017440691911443 -1.575613411996893
Ni 3.642142775234111 2.6328816147889182 7.163144651605942 -0.08417508928702276 0.13681097031518372 -0.6409562206142316
Ni 3.971551066696583 7.060602731175433 6.001506427712076 0.1727645055916573 -0.6438124591161042 0.2727796472347302
Ni 0.47946320281657806 7.097933071563306 11.021263892891247 1.4298357194067246 0.9017375578365051 0.45125071629286156
P 0.21951092480348608 5.429465431511924 7.902418681546604 -0.5919036860619548 0.7343798250827159 0.7824507124480137
P 8.526614252650083 1.511030987111225 7.786059004080126 -0.37799510213182 0.2534734907069506 0.3186396429916383
P 1.861348621525952 3.277353626789983 10.24944890458673 0.712667887326921 -0.4622786919722491 1.0560371718547554
P 4.000621037860906 6.273437601204017 3.7347133147259406 -0.0706333460468461 -0.7300418598289944 0.08671302521752808
P 7.004067712395162 3.9597181557890844 10.197307023993954 -0.6670146082641802 0.17585857113594874 1.611054526413322
P 6.372008922641119 7.805622750113858 10.279640508761977 -0.883754233885207 -0.44527187300160737 -0.5085325807334662
P 2.2658074904454115 8.506747656636037 5.799057563027088 -0.05505940286798904 0.5313408368772333 -0.11722919152851424
P 6.963853950039025 4.040036872125196 1.6034555420317054 0.491302847118741 0.267998423796003 -0.2849327376574964
Ni 5.375578083218234 2.7416809235851476 0.4477473746386091 0.416828787169566 0.3646657320127655 0.4611980573135605
Ni 1.4620400157447757 1.2401162651999216 6.971245665726222 -0.22947867045424997 0.1625358858851136 0.19546888916770852
Ni 7.077477096845055 0.6489032331202177 9.27416315959778 -1.3385001078155205 0.454282818250966 -1.4773810732858557
Ni 2.7991498809274677 1.5209234819771877 9.252663531204853 -0.12934782916891918 -0.5492861085017443 -0.08241516917312258
Ni 6.5205686255594815 2.1633644042899154 2.7754976601594903 0.23748611413975873 -0.32591252250396774 -0.141764200555401
Ni 3.9319176156799727 6.952873371411453 10.42494502776019 0.4509601816356362 0.7969931290385629 0.5120688760214986
Ni 8.01758146687531 6.889166067169241 0.1968697151973369 0.3947139575483976 -0.07101695463850995 0.12018107506798657
Ni 7.65507729433056 3.5936505089250663 8.205303117846919 -0.08220176761073583 0.43387391557731086 -1.0435045866053836
Ni 3.17165535671434 8.440510557648084 12.468692757190547 0.16044069391898175 -0.01217957278532741 0.24269311226199491
Ni 0.16917072957264145 4.740354783190846 10.213803280556416 -0.6248945391656786 -0.11267011140292209 0.026972671934101935
Ni 8.620588420194387 2.6671018490915244 5.818486205327088 0.07296970748950658 -1.0193920098278961 0.6952532913948994
Ni 3.4625092135571305 2.5927947955383033 11.617689752925527 0.7166279004159335 0.3631680644213165 0.13018215214475642
Ni 1.1131187554907804 3.271713725958976 12.546381031032968 -0.7242455648621914 -0.30547199526142876 0.5532728610636343
Ni 2.8413403287838603 8.339726799229041 7.8615974057569025 1.0788153460915355 0.2021187903840584 1.2344516766433384
Ni 5.66584256135682 7.734933575067988 3.542044509584883 -0.08708609228623067 0.9567725352244618 0.8592943010706298
Ni 3.316669720042792 8.354896500338809 3.947327601953761 -0.2721247872595507 0.8529853281334665 -1.7702384651070673
Ni 3.7294977665619613 4.51329890423707 9.78248234377223 -1.0492607723628702 -0.6450147069543214 -1.4404731445159127
Ni 7.388705322123975 6.120317013851577 11.310399484127162 -0.9739670447258774 -0.7571687979527734 0.169788710792785
Ni 0.18152954763158471 8.70353667228772 0.25609592781465573 1.3975462632453994 1.9231139450842818 -0.3630395092632522
Ni 4.75144417019458 0.39266948136242485 1.5048261894606492 0.20183082682999431 -0.10235484551984309 0.21516379649347464
Ni 6.014963303633777 5.828338803788458 0.2882079998291441 -1.2623792562915421 -0.3640496956953214 0.8262623103163252
Ni 7.975463557936357 8.885237593111759 11.199467531158179 1.1612071182258905 0.3342958614716565 1.6011038429585134
Ni -0.28688688479525704 4.983750053298121 5.783212343248656 1.3978067159956378 0.819641462565698 -0.13323456581783505
Ni 7.890429811966607 9.028429416139515 2.847731914146846 0.24252496211524682 -0.7228114035188261 -0.770700256780305
P 8.707607919029074 1.7697229014337865 3.8237348876819883 -0.9824154326035469 1.0502030816714818 -1.2122975091438024
P 1.9195339006779983 3.306523338965787 1.5745116072364356 -1.008967214950146 -0.14454459151401558 -0.6754324000142303
P 4.741370328035015 0.928153583381915 8.156558778799766 -0.6333331568513351 -0.3324675500136661 0.48327406327699346
P 8.590502904185895 1.681941743965973 12.361436713862869 0.004460606874514898 -0.5154761019308348 0.5937646505300935
P 6.382871625527851 8.014317215590482 1.4763329026899792 0.5758409761721374 -0.4006444641002197 -0.9461420520938093
P 1.7543899877597784 3.3770946382708167 5.890402194814172 -0.19554370826970194 -1.3850062217968597 0.5003199630156868
P 6.695405551320702 3.870839847194982 6.110249518847289 1.9324545057589169 0.1342079854746979 -1.1894185476631
P 2.2313515046611236 8.342474210727104 10.183346002596041 0.2106813352420888 0.3109427885680129 0.6693363144188215
