# total energy = -340894.5129447606 ev
CRYSTAL
PRIMVEC
9.08052524636229 0.00000000000000 0.00000000000000

0.00000000000000 9.08052524636229 0.00000000000000

0.00000000000000 0.00000000000000 13.29026657161505

PRIMCOORD
 96 1
Ni 6.390437853063572 2.0618694811608065 11.593777723350845 1.1888724453516428 -0.7106750252666083 -0.27892895466557766
Ni 4.7126291901957496 0.43489359901893515 6.136115948293294 -0.43660468424491267 -0.25881007242851556 -0.8558585359162035
Ni 2.7291246425227884 1.5674802802632657 4.7503397037857455 0.5290291580249211 -0.15921324926978386 -0.09642022520296296
Ni 3.167259989079981 4.442311032026608 4.728463810243965 1.0273056082480179 -0.007779129724786603 -0.2995155205676777
Ni 5.0452579130918425 4.541179791680799 2.9031392894398613 0.1955622202124632 0.1259640002983508 -1.723248212400458
Ni 7.146110089439593 6.1591659537585945 2.496643217245554 0.6417422068506367 -0.737433267197059 0.17628408870914156
Ni 5.513849341563083 4.390642842971469 11.57012113879435 -1.2276091998002083 0.6479161968718324 -0.4678880677392265
Ni 5.752240372716782 8.195900540841262 12.338151970127146 -0.2182581191480822 -0.7613476119208114 0.5363822559558826
Ni 1.8458891864900744 6.429021005136557 0.4623422109479109 0.017179597103080087 0.12476020979823675 -1.3382615094421533
Ni 2.7508906617082305 1.5926060938160895 0.2812393059681948 0.4831005138136067 -1.0589900838354924 1.2754772271260806
Ni 0.5573726325505014 9.046300817326808 4.678492771370621 0.02308747794708282 -0.6349755775507644 0.545778352458802
Ni 8.580542512754548 2.283116480515542 1.5024110519449334 0.8099149793065537 0.8840229141655614 -0.08884112730412441
Ni 7.056766800843195 0.6548566120938121 5.026790848754156 -0.9638656946258174 -0.2258521294452562 -1.2191001338879326
Ni 0.9271579569922401 7.389840469479833 2.6705597944892006 -0.8911893500070135 0.6140732801804585 -0.73139297454025
Ni 7.646047491305971 3.9647026419153404 3.769717429830616 0.3308806651425205 -0.4587022874749004 0.11036228920535186
Ni 7.414475934665525 3.9199719742025794 12.905287075446221 2.0142608377034468 -0.7906041947930835 -0.6788182857673277
Ni 7.941836522989992 8.930042851690088 7.074103339778883 0.0003036472833478642 -1.4476748044706746 0.020966060728705826
Ni 7.140452922166948 0.7147118027749808 0.4089823200261694 -1.3800820450223652 -0.8997688641459085 0.03830120957304372
Ni 1.8763089463028537 6.7174911334148755 9.111913061059111 0.531856085950755 -1.2641188646904682 0.5857641488231202
Ni -0.06932981079718477 4.757296294231289 1.2930459199678161 0.3966366284924072 0.18234237908807951 0.5271851628376469
Ni 6.534936252436932 1.8568312194973577 7.114745046941287 -0.21861704514939767 1.4439672737121003 -0.23000111861662323
Ni 3.5185582720283355 4.416104635961031 0.7806809111522521 0.9075045422272693 -0.361665511733861 -1.571230709548165
Ni 5.948770182157969 5.698356535484235 4.660431606514615 0.8609040687599109 0.4646597906099159 2.0416487427980967
Ni 5.327598686781019 2.788901740686229 9.584355540317397 -0.36623281938956925 0.2538779252342208 -0.5116132765413189
P 0.13002040980754026 5.556727582111126 12.424352488911245 0.7529591307468001 -0.35172459847106524 0.7570063042329802
P 3.9448980161984237 6.03777749131763 12.673704622175395 -0.4841940039881016 0.23483607811142138 -0.5464800065115168
P 2.3626618822946304 8.373579179723842 1.3516861363615373 0.17394721304584881 1.3870307084260565 0.16360829301368598
P 6.414310554122616 7.726437381939564 5.725566329597368 -0.6608881836514683 -0.04514548618838677 0.8318333766461997
P 4.801146150988278 1.0650003313080574 12.75125321643722 -0.8002849124159571 -0.5425058523551173 -0.2985225605267891
P 3.887799673003571 6.271074347768353 8.159147114619701 0.8561454710290028 0.11352963118973997 0.7077447389936907
P 4.769564083934891 1.1481507016380927 3.898287679744992 -0.07265037647687488 -1.1154142282614918 -0.3383067824032625
P 0.16665397309491187 5.512487262765497 3.5468268553934585 0.4715210365061235 -0.46505728315865064 -0.6854633018876711
Ni 1.4211476147758222 1.1316241455607023 2.6115772422910197 0.7169436318841395 -0.5276549033852138 -0.5417208945599766
Ni 1.7514789647666522 6.5767066688962705 4.715080932031406 1.0848237570691444 -0.39745989572465096 0.724780354319739
Ni 5.803372810778203 5.258741063300332 9.264020032595791 -0.6499319417502808 1.866342187510876 -0.3444208657208004
Ni 8.852032058689614 2.3235611402785628 10.326616748852375 -0.7253344270509959 0.1402621620885778 -0.540853661463675
Ni 2.492849373768008 5.098315422520519 7.051895099010491 -1.5606321080967123 0.05662186225910248 -0.5708327243242685
Ni 0.8075283923052262 8.922079230986862 8.8559157993678 -0.7162502053615406 0.7696229645557262 1.0362448197191767
Ni 1.5301320796334266 1.0510435638954478 11.470058290060942 -0.08393006315575223 -0.054072613474687524 -0.3227600929179151
Ni 4.029056324838674 6.93590500887063 1.7643896556627146 0.5861685833503905 -0.20963875291018733 -1.5716456855983965
Ni 5.484591888990911 7.957100886048286 7.975462616292292 0.44229607820273503 -0.043028182735067824 0.5413532268079129
Ni 5.2726887501876245 3.053226752145987 4.791034986047523 -0.15483748879959142 -0.3820121937110131 0.7156166855425998
Ni 0.7911916192069662 7.482870451355034 6.847862959552193 -0.1904323551850656 -0.2132418968804134 -0.0961929396835053
Ni 4.940341523576365 4.571372538360647 7.013141233061542 1.1790009518742017 0.3359025438371441 -0.4177207028562161
Ni 8.312676096421065 7.239221796042648 9.356586907679814 -0.615587659942456 -0.5955135149004003 -0.564695501078279
Ni 4.501806633905214 0.4077282994798575 10.612610617876681 0.10612896785029464 0.32397751026478394 -0.9440406894800902
Ni 8.243891117142914 6.947110377112113 4.784416191143781 -0.29708017165330775 1.1963594977573073 0.10258727324562333
Ni 7.184893013069557 6.247283371437165 7.255037346987699 0.366654223197704 0.24372283907808992 -1.0079958521758123
Ni 2.2419635397777764 5.269474244225318 2.4337533150033615 -0.6751490644458567 -0.3266900240999406 2.2693178708474333
Ni 2.0730476078263385 5.302518275854782 11.398251311957214 2.070711207381692 0.0551578761190663 0.7334331448987305
Ni 1.1136901080591386 3.300879919123278 3.6647510974258934 -0.8471188420503605 0.38747013150179077 0.17698779964438552
Ni 3.719746390957271 2.674296430657248 2.6018619882540963 -0.667261948388296 -0.7408867729632982 0.012453909492636616
Ni 1.0471661795849834 3.375558159332322 8.277297461732536 -0.312722506176255 0.18697242166092315 -0.8586957482546825
Ni 3.5847734626417043 2.658305625573575 7.035255944419167 -0.0309545393999854 0.24974667667466666 -0.33779359021226985
Ni 4.0913124064137225 6.95804332959408 5.968007275042559 0.14142430071747902 0.4125322166767411 -0.0749096048246968
Ni 0.6701445845179299 7.441454175383068 11.314004014168855 1.17336329397245 -0.1873262054559161 0.34351300919455036
P 0.33006619865156644 5.6765995968241105 7.908280349732635 -0.8891566358477009 -0.6833151451964167 0.8515079722569915
P 8.693840227137846 1.5412648036723722 8.059523763311647 -0.3114855484453603 1.2050701381574278 0.6434159950086339
P 1.926106547142639 3.173244055264047 10.491456432988901 -0.048035149031355986 0.3635100211417675 -0.14106511760584736
P 4.0365749998013545 6.29233185753603 3.8131232488995908 -1.1271549137371877 -0.2628991548962247 0.0646897268689015
P 7.1686116311757315 3.9863687753222927 10.297590849675792 0.48797326852487566 -0.723035089493858 0.49591077820439755
P 6.266288910926164 7.595832186301593 10.109001959624539 0.620976435058195 0.6894428553607095 0.09222392773342826
P 2.4193061992236204 8.489128864385817 5.770540355388632 0.545528441231525 0.4289507672440806 -0.2894614787657854
P 6.8277468718168945 3.87714821680644 1.7230169662122714 0.21737288832965146 0.7869617129444898 -0.2039231905826488
Ni 5.3668174756262115 2.7830357213312866 0.5387766247533102 -0.3677055472803539 0.44886370411792376 0.4283344738163204
Ni 1.5719842208206205 1.0916789146901305 6.855877431197196 -0.6066445918165552 0.4855775145991896 0.001628279632042357
Ni 6.80750638088475 0.7601298662542576 9.27364266527448 0.10285801040850674 -0.7191311264537615 0.5113237703253581
Ni 2.5150330971180437 1.6307987833004327 9.01529263947347 1.105820928146102 -0.3067655172618717 1.5276955052696917
Ni 6.501202100883357 1.8568584610733094 2.7167170127293017 0.30908722341651285 0.3677428282761925 0.5500918922324913
Ni 4.220646328507279 6.879051839859343 10.593326306260442 -0.49236908359972625 -0.326602863702773 -0.4544769365396431
Ni 8.3564987116021 7.176656976606814 0.39658195465293616 -0.4046630983413095 0.24128569039150705 0.3783180326888775
Ni 7.652748918990101 4.0824679747547234 8.1374709926349 0.7008045602304317 -0.7993765416690748 -0.4283095341156559
Ni 3.0228160728585247 8.378301052888812 12.46739962723019 0.8105194456597719 -0.5835594278623175 0.280143286688653
Ni 9.276846274606404 4.833717995301245 10.199349554321023 -1.334933473510185 0.14504441396856954 -0.7969445351888146
Ni 8.762171180150133 2.2975091131433794 5.808072890682411 0.008624508444217404 0.8793447919636017 0.0652527984612231
Ni 3.733194648952115 2.9043242979937616 11.816788160722188 -0.48217877333028575 -0.04247462422444298 -0.8418545083276276
Ni 1.1708792565071633 3.2435636433208117 12.662926038623821 -1.1247568458186565 0.7114206451833812 -0.1625914217133974
Ni 3.070961018090571 8.515716642514718 8.024065220000328 1.0425972442997657 -0.19926306610281813 -0.4724792866543347
Ni 5.651564588524459 7.939693519015122 3.516006644414189 0.0340473193926962 0.645213967449321 0.6987191384563128
Ni 3.1224566771646813 8.440602537090447 3.5323134517789017 0.18264499793016284 0.18392129353942516 0.3988205235176035
Ni 3.4101458802657176 4.327079165750736 9.26330267109573 -0.010321693640982222 -0.01794809983798844 0.2456210845420673
Ni 7.358067711394784 6.2779392249081925 11.60722688939822 -0.42259937110475604 -0.5320784863742062 -1.231017197040493
Ni 0.5409205367807123 0.19281224237630679 0.4937199661816597 0.15165960529224204 -0.42739010762518015 -0.5788815627706739
Ni 4.943737640045015 0.3979213321372302 1.6761550992075522 -1.0220477022831882 -0.44447431680097643 -0.5856559053800301
Ni 5.952929062753269 5.592068986645853 0.19218387002435328 -0.8490078315429571 1.5753475599300162 2.0699313917928737
Ni 7.930812765254855 -0.2859448341875925 11.336491027064486 -0.480237847553831 1.2253517712245994 0.20212264703880028
Ni -0.01510000555005089 4.913681101244927 5.810783427489609 0.07284166655207455 -0.8403236735053979 0.3454763035685082
Ni 8.019166276591672 8.72691150034326 2.496695884292394 -0.40378635216331105 0.14932170118768476 0.2783959649802431
P 8.57099888064612 1.5188994698159917 3.6642598410062304 -0.3159009039042366 0.7437484107818094 -0.4660085913283265
P 1.8058077477397438 3.211100765311652 1.4940251868144554 -0.2451927387553971 -0.2654347768338848 0.5156524796076991
P 4.665510344324552 1.2066474457318013 8.287730985322053 0.36022209441911507 -0.8954769216387739 -0.2861023324855653
P 8.546581348068042 1.6739040369814067 12.463253459370332 0.4515502498111514 0.10095359429694226 -0.5297051010460232
P 6.242543337221561 7.658587696769091 1.2703891012487518 0.5900350082843322 0.5755776952084216 -0.3092998536479512
P 1.7749793642876888 3.2723579891018035 5.844660143290664 -0.6711605121117538 -0.6718158863075655 0.9702088632350259
P 6.920586162660434 3.9231773996395676 5.898260668133313 0.03716221087259406 0.12852790437078512 1.2493499339114098
P 2.5275823831064796 8.539898081434549 10.273774447873715 -1.0555172947955433 -0.0665036401491887 0.09248078093924073
