# total energy = -381163.0556788724 ev
CRYSTAL
PRIMVEC
9.27573077730492 0.00000000000000 0.00000000000000
0.00000000000000 9.27573077730492 0.00000000000000
0.00000000000000 0.00000000000000 13.57596959783042
PRIMCOORD
 96 1
Ni 7.207400559235013 1.8765731086177464 0.8481385088799608 0.22404490103318833 -1.5172858799005933 -0.5295737176744815
Ni 6.860608809880598 1.3425229048281822 10.483010818041405 0.2525908309916811 0.7308342738233026 -1.684242777671538
Ni 9.722264534954302 9.227942286402786 10.095905814832195 -2.1983937330330465 0.14529535363711105 -0.7919936189414425
Ni 3.5832890338782284 4.987374964369483 -0.05434928977966468 2.0265553388000836 1.4907788347490003 0.23994948807858676
Ni 9.170312170620859 4.032586884875344 3.76396450212789 -4.8095495393654515 3.0534038049060253 -0.5908654746054275
Ni 6.50691591677248 4.063938855154262 10.51606859522396 0.21738651517640628 -0.9479467094027157 1.338728935996875
Ni 3.9169185211540087 1.357549588808019 5.853197654118306 -0.3250283201268015 0.8860666840684676 -0.17431873745265464
Ni 8.313587117691432 5.092366961880452 11.652404061667827 0.011085311279884134 0.03624406993369887 -0.22421613650372998
Ni 9.020100985207602 7.995670718478517 4.09740383692121 -0.7950681441017081 -1.844398336249933 0.12635095132412433
Ni 9.071803908975262 4.3907692317157085 9.335080688032852 -0.7621523672102939 1.3474136082550665 0.7228882795033486
Ni 2.436437671367734 8.91317963567947 0.8568688267576288 2.7641744967557043 0.577110072692548 -1.2535889116934216
Ni 2.2638998017943135 0.6568302703549369 3.6628646012823154 -0.16731582377226023 -2.299163493453957 1.8442389278539335
Ni 1.3902743672529962 4.155685109008932 2.01111665704931 1.0705348512502983 0.7804290540322946 -0.9796237287910226
Ni 1.451234470410704 2.144038807727987 5.971960401651786 -0.4916306627718049 0.33420073065468897 -0.1343465679350912
Ni 1.3461404398603651 4.024507723303469 11.390727346182162 -1.8136209458577606 0.5266683711022284 0.9819426067321864
Ni 8.92478357497501 7.518573502118704 0.038819861187663146 0.39125119581077783 -0.09651329913740153 0.015006500711161252
Ni 7.050501571877645 8.44542308028737 9.16876219599553 -0.9335205066750568 0.4542357670631144 -0.577853892837108
Ni 4.6255565310352305 0.7924971097926472 2.8392780243938547 -0.6841988333529506 -0.9370053798998635 0.7928066017610411
Ni 2.478632971012349 6.800242353497404 13.053960500355807 -2.3160708107322567 1.788270897128746 -4.588370647026149
Ni 3.546167559009521 3.6568363038017626 6.514510885193895 -1.7435013062225393 0.5721714977403501 -0.454672854600533
Ni 6.398733067848509 7.162728639452981 4.253989304575788 1.95666966955254 -2.1433297021793667 0.5553433704394178
Ni 2.814432979307439 3.0739679285394326 0.256874669623711 -1.1688970306709805 0.23939670089891027 1.682483114667954
Ni 2.504076300738702 6.496508546756816 1.4525469863262268 -1.4574156859075222 -0.3736738490486468 4.271193961733283
Ni 8.004649625943014 5.111864548130832 7.426476625637839 -1.5574691369876983 0.8649982934339425 -0.29127693470796934
P 7.832195237947258 7.339301451946913 10.874392860746358 -0.020053576216765463 -0.4011967370592639 1.302504406447202
Ni 4.963591990465593 2.5525048915156945 1.4296034660644208 0.1367060693062033 1.2363699767119738 -0.7800773271198308
P 8.736625374647241 0.14382206200256975 1.2434840713778663 -0.6972063013562122 0.7413428866641103 -0.26697846717192086
Ni 4.684763521061957 3.2507355313812516 4.459434684491966 1.0516801804376403 0.6009282581580683 0.3381293762851338
P 5.493542321218683 4.70819401719348 1.3381438322930705 0.33090611906381723 0.0830296628286699 -0.9675158897838949
P 2.893388000317544 8.234511512180255 5.179544918290634 -1.086843872822967 -0.2834548675603893 0.2882957405924583
P 6.112029502951737 1.0855666087729758 4.781578961827109 1.6199798539274102 2.7372545324364084 0.2749422021036878
Ni 6.593671827428908 2.33703893956037 3.1035482342256664 0.9540281397101052 0.480539695064966 0.5898468035329261
Ni 3.176576063221502 2.5757777002227376 2.9364004918501987 -0.38751769691027455 -0.0017876880280420823 -1.007087224318614
Ni 0.8100031966291569 2.094116824283863 13.171215941625878 -1.580560728699839 1.0622818672128866 -0.965260518090815
Ni 3.162504779519396 1.2806074013927442 12.829576860759609 1.4912534603925738 -2.2554814791849735 -0.8376348138193251
Ni 1.8474844166666553 9.298085363103729 6.9998922567774065 0.005448424709080939 0.0597894613538067 -1.0490990499740256
Ni 3.6459929744360653 4.783327437092663 2.5016571901325655 1.164847028971323 0.6538438752101772 0.5539709155719234
Ni 3.8917905662766157 5.254274843897766 8.207746390807527 -0.2688510016042853 1.0463801083809656 -0.48581971251698264
Ni 0.9722079020337268 8.287392453766087 2.1769342596206367 -1.5903360629190482 -1.143458535993218 1.7390738665788052
Ni 0.4659672669107971 4.579177876776475 6.249100688040402 1.9559782999124702 -0.5934448052968296 -0.9397302350301946
Ni 3.9651801487756693 3.212315454193299 9.453450144578218 -0.18887992309628118 1.794083647155781 -0.054731330104608955
Ni 1.9392492219830282 7.731284562011059 8.642082487940767 0.7113728226645814 -0.15069287050359853 0.8135047535403409
Ni 6.320881858809763 6.853447945663047 1.9562970877154613 -0.6805900329557698 -0.0978556720979089 -0.9990545838221245
Ni 1.3966375186172977 1.629829392230318 1.7704559649544596 -1.2957172083220392 -0.335564443771435 -1.0339241420057999
Ni 0.3730114577530595 7.180315425147901 6.176278780269476 1.3590190537044788 -1.9556453420530837 1.288838221814019
Ni 0.7336500181229684 7.128881497574941 11.427341438573281 -0.3966463986844201 -1.1557134421011708 -0.7816832381543699
Ni 8.60388039042783 0.8251476823908107 4.033067367733465 -0.128987617616023 2.034392832566632 -0.03169424577948735
Ni 4.178021068899948 8.933632622207579 7.427494173312276 -0.017914932607207855 -1.9398572259808915 -2.3522254062759425
Ni 1.9500739998870216 1.8839287631831851 10.874256507502839 0.7096936351899454 -0.3505336634867576 -0.17029213279176478
Ni 4.554662120135298 8.676676326152373 9.51304857044689 0.3769460920420153 -0.3406639697815294 0.4465353130950633
Ni 6.805344005465866 4.832275468797353 3.0990133294122453 -0.48075181107577203 -0.8586294137931212 0.8117008675623827
Ni 6.253354538209015 6.411969535773957 12.229858192831989 -0.06983450429463457 -0.28475713131158054 0.15747158398832878
Ni 5.045107113190781 6.5059976194181575 10.136877645577464 1.024800839548293 -1.695315747656248 -1.523281949583028
Ni 6.366147425366307 0.22817741351456378 6.851954552995915 -0.12739070544254835 1.3485731757808066 -0.11858184890166676
Ni 3.9884251302901577 7.800388756856603 11.577274352060984 -2.4188272625658924 0.3881874692837895 1.3003354238203413
Ni 4.568056275485226 1.3757763999317096 10.724364407230881 -1.0913782703582107 0.23505745009360807 0.22424544707976865
P 7.937298544228448 2.723577195614538 12.248362348308147 -0.5826952800898094 1.108262190597743 0.31994833450073284
Ni 4.953036208756299 8.746003138538361 4.915383234509787 -1.0357879346874161 -2.28670624152721 0.09006445818826424
P 0.8244102617880965 2.3977764251776357 3.699193928736283 2.2535906899201636 -4.851999480999548 0.7240956695478885
Ni 4.410665674392715 7.457798913578031 0.4843359967165196 1.5169539504824714 0.3579042449192159 -0.8175922933461531
P 0.30625309523992233 1.4828368854226197 8.37486630599044 1.3508920537219702 -0.09170019401947432 -1.1961661507995787
P 2.4753400865599775 9.091737454575677 10.368253331089711 1.5648332906622535 -1.1499896522435162 1.497247987413112
P 4.75464687729905 0.4216366940241087 0.7209617458908583 -0.6132217308134407 -0.762784601477654 -0.044670089213865
Ni 6.018910440931009 4.603702909148505 8.44786445264755 0.632901211520239 0.9264846828741979 0.8397989113501795
Ni 4.2464945140475745 6.338143993924872 4.539043644527119 -1.4287625409472038 -1.5407811348090559 1.4022832637097529
Ni 3.0849967725221643 1.1384197231662532 8.797445414269086 -0.8381086681319502 0.950324465606273 -1.1408534942702029
Ni 8.67406057005218 3.4427709872050527 1.2272172221831508 -0.1284327735538175 1.1573514919252261 0.05768989851230064
Ni 1.5823005473459457 3.52587225990589 8.197808372772961 1.1619288268832633 -1.0899461658973744 0.09041489954914751
Ni 8.790480267972507 6.952123170463975 8.982160463304686 0.5601027395012741 -0.22137840994461871 -0.5196942537772404
Ni 4.274702011567749 7.51595774601851 2.7990937031978986 -0.770904402371311 1.9575808685128997 -1.1114606429303826
Ni 5.11365476418522 3.3085233345876603 12.654799829758575 -0.06224229376967345 1.4047502371930065 -0.6765950528637638
Ni 0.5599461891814828 5.207859086715604 13.476023877999095 0.8250963150326822 0.04719131297382195 0.5457978928428278
Ni 8.13775636366564 0.5675021995333192 12.333971778631296 0.5155056696171896 -0.4547597578873845 0.017693303514705012
Ni 2.467539196913655 5.505647149980218 9.984379064936167 -0.005672624904745069 0.6037356456998764 0.40228277103459104
Ni 1.0865683877049648 9.218722209936146 12.448634653128302 1.543574124173161 -0.6772604543619045 -0.12113392589955914
Ni 1.6076140168403743 6.240934334598521 3.9574358410875425 0.12456300618576613 0.9623076061100782 -0.24745428109606413
Ni 7.501802980738739 5.457283489319188 0.46855797853769116 -1.0339349406390774 -1.1488216000773441 -1.2649418748123955
Ni 8.50820122669202 6.218987955403278 2.246415976711848 2.7920144017861075 0.5435533197830251 1.5416614805314803
Ni 5.727513356223251 3.1442037625488912 6.836952913489378 0.10582943433200484 -2.1962969984050176 -1.2672846640129594
Ni 6.707345909017117 9.015453844050876 3.004212577388095 0.8239071798205875 0.4590689267856997 -0.8350768232841618
Ni 7.308506025519099 7.4918965001890685 6.490100871884427 -0.9237662555017704 -1.8443394579875396 0.47702859658791397
Ni 8.168625995940268 2.4139161968596827 5.86826700646006 0.9370431751163346 1.098148756312825 -4.273418480188427
Ni 6.824915797563061 8.646697164039514 0.39908739232350193 -1.0509224763360097 -0.29643842430425077 0.3545402135429894
Ni 7.611497773791546 2.0508084369370376 7.7325460614068975 -0.4590285604660675 -0.6378048194694435 5.224761616867203
Ni 6.017769526036243 8.652095639395233 11.563114948915784 1.771421686781891 -1.7289869146564483 -1.4152958739193366
Ni 5.546404711342812 5.312637742416983 6.103973530706991 0.34783889026341386 0.7742226681112666 0.05490385112673125
Ni 2.078292427450776 3.994704800076793 4.296658594066929 2.5084016684916155 0.6103948028876068 2.409265587019386
Ni 8.988071886576506 2.372101202179989 10.30475817069022 -0.05209440670239415 -0.45417560324914036 0.6135775714909626
P 5.55094981946017 1.936011991915767 8.684384458490179 0.23598536122451616 -0.7068926754060406 0.41245842601601224
Ni 2.6870493675203426 6.389995329386159 6.509202384427438 -0.3363609715308013 0.0503815377763455 -0.44992814082669613
P 1.1558673728983966 5.795615772136807 8.181842984830928 0.17719708744171417 -1.2854369094419538 -1.2406218100097925
Ni 5.809761261685727 1.20514933091375 12.591318582955362 0.008239357190656778 0.9433696315549948 2.1819049913494033
P 3.3972085972612516 4.116504421891135 11.468558148613036 1.4020426084538564 -0.45248433158964657 0.07709349984989304
P 8.657883695446726 5.7826946790603175 4.754847233085447 -1.1331278434911711 2.2495882536289904 0.27445883470936605
P 5.646953633775793 6.793730790439473 7.8244694817208345 -0.24930470404124164 0.34627488821040364 0.5910158841403629
Ni 8.8219713742142 -0.10285579669581141 6.441431112105289 -0.5103251538575146 3.0018858395323913 0.36149016249826127
