# total energy = -340853.90083231655 ev
CRYSTAL
PRIMVEC
9.48309772136782 0.00000000000000 0.00000000000000

0.00000000000000 9.48309772136782 0.00000000000000

0.00000000000000 0.00000000000000 13.87947208142946

PRIMCOORD
 96 1
Ni 6.40878189980519 4.6528914858167685 1.0926368544258882 -0.8535126613918462 0.7799145762897214 -1.3111088602867613
Ni 1.5802444740019579 0.8254363454080403 2.1411308362655017 -0.5135459747876575 0.14936772393427178 -1.9582789230211888
Ni 7.887500327295157 7.1465195038029705 2.552212700420517 -0.7409628776168723 -1.3243081325858546 0.6720465142611329
Ni 8.537889116196549 5.182825964724205 6.243514262200821 2.539231252277962 -1.8424553535909494 -0.4116683260145491
Ni 8.638030630409759 5.958495960469413 12.715512389472687 -1.7994127726781783 -0.5128818588410973 0.15028895019696054
Ni 4.161553215512339 9.100862708315995 0.3473459629214003 -0.023262055851734128 1.8770891416147353 -0.2958133891257422
Ni 1.5231941568138267 9.163014932194155 7.484491424413788 1.7235577732210767 -0.4501006618488184 -0.9903429149807396
Ni 5.210099354390605 7.946267085209859 7.060168310609539 -0.12755062805918033 0.5928781341600822 0.5680847292654861
Ni 5.774248850654221 2.6073493284449905 13.110105042935096 -0.03024337226557372 0.7981218433263674 -0.2921922474333871
Ni 1.4685999619913417 1.9769698761903656 13.318880185563968 0.21423614247288264 -0.18011503241945756 0.2529199321963257
Ni 1.4914257787253562 8.083496995454116 0.9945854149979628 -0.7913022493013727 0.9219492568976897 -0.7588449001036157
Ni 9.11010872880443 1.0733539230810836 7.368486583971806 0.3858382523253226 1.0699990333514864 0.7093100265982817
Ni 6.765915368107219 1.0004478661425278 3.7908864181446202 0.17756449808346192 -0.8452956727986927 0.47006167835177753
Ni 5.816638298431972 7.235433030058942 13.470458022986689 1.119455488210401 1.1649706990333808 0.7914817123020305
Ni 5.10979662751247 7.773352277429211 1.9385320353229036 0.6221532289751156 0.05455829486185442 1.497202735997473
Ni 5.5998167472036755 2.413002719327045 1.9652222144661875 0.12221276078603467 -0.535457173038452 -0.17905213837258196
Ni 3.9958929776533862 9.18734856150013 5.545986890074902 -1.1590008546031911 1.4368849129440222 -0.6747636560819799
Ni 6.323007278966318 4.768338720100063 5.196793619675401 0.12688188412692988 -0.8945222710349884 -1.3222972728034128
Ni 3.1756808708987605 1.5896896395470672 4.033569325756519 2.551043671531858 1.7298060681236338 -0.5229680394325058
Ni 3.041077778783014 2.4171657993213254 1.5202600863121631 0.6992500712591183 0.9107323051359476 0.06022809155312207
Ni 4.491128801209864 -0.033022991945516736 11.70780710847908 1.4307091231506133 0.4589277732221451 0.717772298433022
Ni 2.115641217321024 4.068125734638425 12.203872703105034 -0.09381364081805134 -0.890572542358621 -1.9526019272410693
Ni 1.4053571818504431 5.130830138736418 0.09856826826548416 2.823616859182737 -1.150814719247973 -0.39652761371836875
Ni 3.2205928227277147 7.125950664377928 13.571236801381255 -1.339892617287673 -1.3293804049024396 -1.8780543337414817
P 8.606935552274804 1.4654895058680526 2.6115057702707145 -0.19004334727676303 -0.9068044308364512 -0.18598126139224747
P 9.04880050064265 7.221360112720645 7.508891435405321 -1.2024126459299227 -0.8363873145654693 1.8759090052637049
P 8.523702401683012 3.5969580136456902 7.817279883692319 1.0542284007807907 -0.7279214710518819 -0.6896547142611994
P 6.8722872776649435 7.917760892811667 4.100065756799553 -1.2035878971849465 1.7078010246074524 2.4358808756140693
P 2.0361349242184157 1.5913681478818908 5.873626027173719 -0.5647788048207047 1.2852474191389671 3.2743075892070705
P 3.999392240792086 0.44072792492521745 2.375776818375914 1.4230914587043555 0.946589166933557 -1.4717467578182137
P 1.9911565907039035 3.6688778283988133 3.2054227109581244 0.44883619331409796 -0.5988850024757945 -0.49653092828689965
P 3.6057014299434726 2.270367443258781 12.20817613294878 -0.15958168835279612 -1.23963373506491 1.0519365194228205
Ni 4.9681286274337655 5.490628357558705 12.332050048058766 1.3648189482157076 1.6842373783548994 -1.1172584805590822
Ni 6.74066187830137 5.372355160090226 10.35426652206542 -1.165889354192908 0.9554389040147029 1.6463773700843323
Ni 4.976568584597567 9.139714960563298 9.454877185706593 0.22101999816393547 -1.6969630534516837 -1.2205129550750593
Ni 0.34302925674054313 3.1139838357215694 5.550470498779447 1.1218553559011455 0.025769395654620133 0.0058204633365190085
Ni 0.39120339425977607 2.1695905614838025 10.43616919401667 0.4588688949597517 0.20154312038624644 -0.01967690960363708
Ni 5.671196025374398 0.9457284944272762 6.70345209861673 0.8260669064760677 -0.4675196286562142 0.650418394468396
Ni 0.5122636742118974 5.270705833305057 8.609922728124914 0.30785926454668266 0.37855611684161256 -3.1971315569457004
Ni 0.6204079747740195 7.565321557988381 5.758760106793953 -2.8520542885878237 0.5777307369956824 3.0584966460479004
Ni 4.062122933644395 4.125337264491483 13.769935204142422 -1.3175139924821566 -1.2054933417377756 1.2150933267213848
Ni 7.143465946267302 6.796944064556615 6.24558252586085 -0.6522263942114122 2.8402238716117987 -1.2321867918685618
Ni 8.914718978913433 0.30575499198993344 13.894323103160586 0.08562056348429771 -0.3441956370838718 0.4531062814443616
Ni 9.478773644197679 5.875452471836358 1.3334990072339101 -2.353313497133799 0.7341299138554389 2.588283015499291
Ni 2.7436498950914343 4.012829790568612 9.02554320295251 0.241489578872197 0.8045598856422271 0.11521164687785318
Ni 9.184845023644801 5.776088571653971 3.9551080700465517 -0.4127109083464506 -0.9984043518326352 0.04660304457051974
Ni 8.951247872166205 3.6703761578728367 2.5569182136167856 1.9250744112447622 -0.6462511504645838 0.13645050165197145
Ni 6.581497562529163 2.6316355422612805 8.15341303161318 -0.04733735163338299 -0.28697187957471226 0.20316522937070172
Ni 7.447351819653882 5.443108553797116 8.310514773584119 1.6266626652642244 -0.40269517598166127 -0.37165141930197926
Ni 2.3570714076954635 6.311437899483353 2.1727067074658537 0.35861926870836947 -1.885351124513211 0.12519292646028118
Ni 2.8792961279802354 8.317018282149217 3.1533605032847802 0.7002319755564135 0.2288811460795671 0.8967095084942945
Ni 6.7975320166287005 0.022882715321635667 1.391889286160519 0.39246038562753055 0.1881479300262631 -0.5165012007612395
Ni 8.463399381902539 2.3747668684456382 12.718454994762494 -0.8741411362754752 0.405279905989702 -0.9622669826801298
Ni 2.357374866829443 6.078163173334611 10.023824181216467 0.20986552420901275 0.4624494132221584 2.0638823573853164
Ni 0.1876145578925703 4.80355894583755 10.650427463872633 -0.20455336796747997 -1.849132508500809 2.4210394397258628
Ni 0.18526559453361086 8.038158304218003 12.153407449124257 0.4322489783793782 1.2030129985180829 1.6877353642058288
P 1.2710859981624865 7.19186767813702 4.017663325587028 1.4315974392928377 -0.50161014258202 -4.519351953764591
P -0.019303794160265876 3.327306123811165 0.48465458287853225 1.0663524377378346 0.2802687565229237 -0.548861619369816
P 7.406422768958407 0.42233166323750876 8.673143697140558 -0.8390851731126066 1.2316538021832273 0.6337419622539795
P 3.8483928723435143 0.2668183401709927 7.73197657282091 -0.9263365873321079 0.4014345641016828 0.510637800001927
P 4.291879430458563 5.994010162242943 0.9382994355035426 1.8593133056885527 -1.46959191625874 1.952619410742566
P 1.2111148868098034 6.138011004414114 12.091255225246098 0.6777325089023166 0.25622765641331996 -0.4642373583605166
P 4.14782168969977 5.075562643960416 5.338821977475706 -0.6408281796767996 0.2102776720457669 0.5211111887294251
P 5.282872647958045 2.1973760384387933 5.06928293650663 0.19640322805651983 0.4188108505966012 -0.7052800795032821
Ni 6.902339215026842 7.894489370474621 11.072862492877654 -1.329717219416568 -1.0691199731806424 -0.03626978096531173
Ni 4.862069660107957 7.142403839298375 4.824727117052202 1.4820072592039573 0.6316413709712089 -0.00012392717237398013
Ni 4.2614007536895055 3.5947389687284663 3.5243867100643063 -0.386237030425638 0.091013709475411 1.0717725803121412
Ni 1.3983112400833584 0.5247036020854663 4.3048845509691684 -3.9619277895367446 -3.166497376999611 1.4537706329557671
Ni 4.080889984461435 3.940786695542311 11.002701792791818 -0.051492254342020996 -0.703827920437788 0.012362635330410966
Ni 4.720155099482894 6.719201627670262 8.975132950939766 -1.437992544185904 0.7206858725353911 3.0178559897084027
Ni 2.4660132367940757 8.947264971032725 12.483655386465504 -1.574651819414572 1.024118725879604 -0.38900893674382037
Ni 4.340954462281798 2.0500561119897216 9.281036827567307 -1.1259243837641966 -0.1444602593303254 -0.3737381266276789
Ni 1.8928737636863189 2.1652473026287224 8.211790034202677 -0.15065584661807602 -1.66746684376478 -1.4785743222630083
Ni 9.19374965260751 7.01141380749657 10.25445976120938 -0.7954574091203268 -0.7037225052081753 -1.0632488591118465
Ni 7.174921382123856 7.781991379649687 8.561163483462977 -0.4811439043078682 0.19226580884937855 0.5867128858896347
Ni 6.137214424187419 1.2641254042768335 10.483512612156636 2.1012325158990004 1.0971858781789234 0.6452278514063919
Ni 8.556153562822935 -0.22722735459440893 5.393937742684718 -1.1401127594494365 0.03722571712067782 -0.7354661161683592
Ni 5.4544787882234065 5.551111556199979 7.373192097168073 -1.0940951550687414 -1.5239802612016333 -2.22605031840805
Ni 9.382472784648897 8.867663846950748 2.7940487673866543 -0.5428784052031875 -0.214018884255754 0.15075174876599198
Ni 8.20386595756664 0.21527106471561974 11.22170635316518 0.8683191302770594 1.5391446276468976 0.26210185580590994
Ni 7.88381140219772 3.2916781248623934 10.00639140227914 0.06736855925264527 -0.09306956356317521 0.7312263670553987
Ni -0.12024947507852006 9.027349733109482 9.199577964599502 -0.07021297067997585 0.2555853948436308 -0.6556176792811483
Ni 4.507515594444752 3.3055424140460783 7.168497531581431 -0.7119970865121416 0.10127883884684492 -1.2232725200980674
Ni 4.9212726405277545 5.689640650861584 3.1555956694684975 0.8875484108203165 -0.3796935728801654 -1.865138397010762
Ni 2.7581305856410148 7.186357998235707 5.787531825934376 1.6067862380552713 -0.11000182054213958 0.37940072423009497
Ni 7.843090979656856 2.073090556878347 5.900843466562292 -2.167797605413744 1.0000719693430453 -0.9773485596036007
Ni 2.3930502812678984 5.098502257869673 6.777846053621579 0.2350335388342081 -0.8978785891017311 0.3337932108036251
Ni 2.4269523563921616 8.717840382646346 9.842308203607088 2.0081135871551288 -1.3594497134839942 -1.2944946487688482
P 7.200620577532739 4.248958929196349 12.102081129850813 0.203381716256882 -0.5243947445767033 0.7664615361086091
P 6.6820563330515945 0.7405977063355376 12.759121363645118 0.7853290624370732 -1.3886314772542732 0.369227383241519
P 7.091934792078423 4.358849068088647 3.017674441384645 -1.877786939012708 0.6870915815197135 1.732751523905203
P 2.4921391716101158 6.911708515788457 8.114980880604481 0.07764474436767273 0.23014484328333912 -1.390750837590121
P 1.0675028516540428 0.22517521220087308 10.909084649959167 -1.6546205839297308 0.9983827545660807 2.022182149433053
P 7.970268806088043 7.157387134038609 0.5622064094963541 -1.0355205399586422 1.413174970921592 -3.266592222840684
P 4.166228382795209 7.282620925392741 11.102120694942238 0.4247315869564105 0.5230963374802539 0.572503427158472
P 5.069171035950975 4.24071811708922 9.220397157810076 0.9555535752156963 0.05034965609714555 -1.9281895598349763
