# total energy = -340863.9242919607 ev
CRYSTAL
PRIMVEC
9.32505810149589 0.00000000000000 0.00000000000000
0.00000000000000 9.32505810149589 0.00000000000000
0.00000000000000 0.00000000000000 13.64816512285718
PRIMCOORD
 96 1
Ni 4.225939157185187 3.1827262568371557 12.24185795005482 0.5698878439124959 -0.7636682896341881 0.703724304980388
Ni 6.54748697294646 5.958413727381123 2.745642133328924 0.6769272393922019 0.12028031965001221 0.5545368153777223
Ni 8.289911380140675 6.38403735447803 0.10399864302436228 0.8057356511178833 1.4850946398800293 1.1325565443687335
Ni 9.142520092817852 0.31982618036404653 6.117312717494204 0.3989537066613581 -1.1967996706185196 -2.6542786056638095
Ni 5.3723151753513525 7.9207976051614475 3.082001641713539 -1.8003311707273897 0.8297677523664226 0.3044214425097273
Ni 7.9954260451775845 3.89041424150099 6.5828102930490635 1.0691156023052684 -0.016710627886461542 0.0014989531430296766
Ni 5.405913359704488 0.40907537898337015 10.72717104441229 -0.11975941414953568 2.2932011052229346 -0.023541791875682033
Ni 2.5773714598200903 5.588815049380424 2.469280981299154 1.059087271534989 -0.4319494448610884 0.501892192598813
Ni 1.4950679158949443 8.982586021255093 4.188321872788699 1.1343357477563432 0.9088181188323704 0.883824167891194
Ni 3.937990687953862 3.6772900385060114 3.8092162980497197 -0.5377503399480029 -0.6553744529220906 -0.7938661533738071
Ni 0.38775922866063023 4.91063154856153 8.059664505452877 -0.5405520710628561 0.7206426780022815 0.35688454540544984
Ni 7.8543845413360165 2.832141372313016 3.1786847766543502 0.39623142263418853 0.36611223465130494 -0.0050460470643396965
Ni 4.186177109424497 0.7358170224382535 13.256121207515173 -1.2244002059446073 -1.0969624493142078 -0.10275979426774559
Ni 8.468001339834313 6.241401265700468 10.56863386655369 -0.49266038958789987 0.5833658237942727 -1.4350226629243028
Ni 7.271223382609392 1.6052061771757882 5.560316739305038 0.3646017115440495 1.9423231710228805 2.7591140515136607
Ni 1.057937167096186 6.028360988228435 11.802182392899146 0.9812831187713166 0.6616559150554283 -0.3936634047966962
Ni 6.777937133900953 4.755369331109489 10.113017122567129 -1.6725326883234615 0.19856269760168382 1.5536183957830405
Ni 3.670007168125829 7.7206911832813665 0.824914222610462 1.7490723725524133 -0.9115887395989719 0.4404703378479059
Ni 2.429615914142757 2.5388496447873945 0.44791890852069605 0.46333850069533106 -0.7769809475826942 0.15184498183017076
Ni 0.6134274998187612 1.8490377965112819 10.183196577361263 0.5418965009058925 0.9561618982236565 0.3676888351098055
Ni 4.456463918604521 8.784624362739214 5.596252715725153 -0.4051688343331345 0.6920422406567694 -0.7515789625698217
Ni 5.983554084032817 1.9407124427437752 13.394050006961216 0.7004368924783678 2.844893766283642 1.4126782337908315
Ni 4.3669340357362305 3.658677222527977 1.2471556511326032 0.08599028811889062 0.7370653423346789 -1.4515705399806549
Ni 8.875860731240762 4.343640040589372 12.981097268817694 -0.3012834111013779 -1.6376250778129988 -0.4146202095540214
P 6.074874378057311 3.37540060740737 7.2364754185918825 -0.4972150988381178 1.3778870942535755 -0.8456504850349501
P 0.3881956413799549 4.405688977221557 10.422216466714458 -2.3294405471709427 -0.11265365634268985 -0.31761660104376266
P 5.826259003913837 3.377759847107993 2.684007229276611 0.6482951774778061 -0.8207840608105735 0.6846765443203177
P 8.389820052680085 6.180126308891016 6.518254780798193 -0.15555276969906112 -0.0522836398950648 0.295613100189478
P 8.196921900715346 0.7860194052535572 3.900645695254046 1.9562125274104631 -0.8559302696944034 -1.5461994776111498
P 0.4565744274539684 8.058612638898607 13.204831522924799 1.098937056542075 0.6634965678085929 0.7286501216877902
P 0.0756495338786596 2.0817725967015543 7.054572442639016 -0.3967610698854135 2.249079689423688 1.1286919192070046
P 8.381315599688117 2.6566717539469464 1.051039421615749 0.7243556080774943 0.625925037312722 -0.40565374438935303
Ni 3.506538899541187 1.8109262840352165 8.665465972753184 -0.7672387805942658 1.6090251546881194 0.5769257245958839
Ni 6.366841947331991 0.9374201161442235 2.404752511716789 1.2368343179429022 1.775465774944278 -0.8459525896564011
Ni 4.1383022611122575 1.4744408873661807 2.184907739345373 -1.471987155963794 0.03801915955625065 -0.3399330051527758
Ni 9.059405849925959 8.487201634472978 11.180085386559956 1.1329185556938424 -0.36832389759064305 4.281054656577447
Ni 2.6487268044412926 6.4526697821325065 7.626553789203283 -0.9355213391551694 -1.9072381543942896 -0.7279168430661915
Ni 4.200360522802548 5.00115921264708 5.732543102462109 -0.45890129085958387 -1.1561045068920024 -0.27005222100123816
Ni 5.316178325557883 7.950124912902388 12.28666485425044 1.1351374177220321 -0.2798800057249373 1.9764525086064222
Ni 1.6855695279266405 6.381351737743725 0.3243320484404925 -0.036785030038833426 -0.1958959494027981 1.0223163825635424
Ni 2.1904841240922988 4.447800939624765 9.516046485292474 1.5307348063166477 0.534845507596382 -1.5312639393472403
Ni 0.8155248216043082 4.813744194848215 5.685074826683258 1.453334316749297 -1.3972737263103032 1.3051593275715458
Ni 1.0368065854297401 4.187249491106598 1.3066905520996186 -0.9959173237447235 0.09198841468385448 0.6328806426949488
Ni 2.311709879460259 9.314632690266041 10.055750075731305 1.1773755004556368 -0.12002269511325137 2.107493409207048
Ni 6.605805886336555 5.734285955821975 8.056429642796173 0.7268292664289677 -0.6052492541309255 -1.2794490672896353
Ni 8.361723652609033 5.135952927558146 4.477130112377327 -1.0826254638662451 -0.9523528088902115 -2.1517870889181
Ni 1.9233491845518413 3.714207943544608 11.95887693927615 -1.7239866332283795 1.2408133571953082 0.5298519110365327
Ni 4.3712235624646345 6.28309360048894 9.140586075766828 0.3860519109980255 -0.2510363420203676 0.5990318124663039
Ni 2.7362424747588543 8.05231822467758 12.282188826359931 -0.8012228508491943 0.25060388246863935 -0.2703401845553021
Ni 0.41372671796625776 7.850188265188663 7.274949675828242 -0.10425849030045917 -2.031624268682559 0.08023513080266827
Ni 3.8176135128734776 5.919910562464638 11.511749728188587 -0.1802096490157929 -0.5787910599393967 0.7555019517733118
Ni 6.062462725719254 4.649837648532627 12.670792905284895 -0.36240984609905325 -0.7040377224557488 -0.21861138872244287
Ni 8.662065124062206 0.3521636168613551 0.8163584817989156 1.1711480314886862 1.5375687985193456 -1.510954795476243
Ni 1.2877532240995222 7.0464894822734045 9.390578760992446 -0.38882381731620774 0.1414700663537499 1.2452338548605069
Ni 0.646141668663521 8.155845019761816 2.1496683447657174 -0.003572290732290622 -1.1883142588553277 -0.37620381455935203
Ni 7.5870351254591375 8.38763798908346 2.271081533801592 0.6666256003558777 -2.4605539528807174 1.3844477781902285
P 8.926188069834676 8.71974060844304 9.30334004490061 0.8682641086694078 -0.491910655906069 -4.132089824508548
P 8.620894992527626 6.279783204861585 2.4202833959910457 1.3269751378950567 0.15846094448479162 0.6034032020611222
P 2.776843777749016 2.147075978612464 10.972878865438553 0.7407430482965824 -2.205548341799956 -2.0737672205991964
P 2.8407763761184563 7.701099236202283 2.9022415641132544 -0.010554635587394725 0.6013092956465708 -0.304396759919379
P 6.176237759661137 9.13202940244947 0.7356575639446541 -1.3884450722750799 -1.7293021319040218 -1.8147118649290939
P 2.527883376455647 8.109368930165362 6.3680840450716065 -0.7975145487596716 0.5260060549278812 -0.43717058405071163
P 6.049258443442251 8.812963214321002 7.0379356064734795 -0.04896485993447696 -0.33423749742989534 0.9019419605378273
P 6.099734982965849 2.6839009236142113 10.515079125349558 -0.0713941354722706 0.43692041571311857 1.4653938190169924
Ni 7.740861283962975 1.0131955383073037 10.456910345394958 -0.9224621919783661 0.9959718311317428 -0.7416635032283226
Ni 0.4425141048429061 2.510231041462451 4.810637085487552 -0.7100173370779513 -0.341718893408605 0.31164675661357294
Ni 6.500777756897376 6.398547144889765 5.158637996410734 -0.07199423095011472 0.018007749431330277 0.38231841209752226
Ni 7.231144282873124 0.4013924636104731 12.578612840903096 0.9605602844016684 -1.5404144954982568 -0.6119752600008493
Ni 0.6865928382181881 1.9220716515914251 2.385890716687345 0.4288936887539001 -0.5692604947411423 -0.07791445308929162
Ni 5.482294910644408 1.3528887549645376 4.288826416541032 -2.312994485799778 -0.41949476403750335 0.4911017868515284
Ni 1.3528421296740116 0.5364491451601067 8.137814087409549 -1.157852599931361 0.10793645337267863 -0.525308000419592
Ni 6.350737571984262 3.6130310631028877 4.844443218636434 -1.264125035338055 1.7181322313301313 0.09649144476053059
Ni 3.710617796174095 8.928724485639297 8.112264360707034 1.0160583174689726 -1.3067968631749687 -0.3037151604713221
Ni 4.4317058893351415 2.4969894589530277 5.967987764537761 0.2161197326488407 0.4209934600702169 1.2781491175312891
Ni 7.729969616096068 0.624225917104615 8.070597203575446 1.0595837515554332 -1.1130660397442895 -1.1258860743270933
Ni 5.797080897102579 6.547542923295093 0.5846242603433339 0.21331388776892937 0.5694160464824001 -0.3850648644944078
Ni 6.279783204861585 7.876941856892562 9.430418206735409 0.6519134909566837 -0.0903969018270185 -0.7181854747110406
Ni 6.010167799865137 1.8464827305904494 8.601947406963614 -2.672125146926927 -0.8462976317006456 0.053279942370063074
Ni 4.291093338166413 3.8942654904984493 10.007626248367657 1.3551852817806855 -0.262008010540523 -0.3458046334422044
Ni 2.252495760492063 1.8381368035862706 6.414310223110841 -0.518227696534043 -0.5927225824188244 -0.909127422542673
Ni 4.841933845500318 6.695662146238529 6.809205918739402 0.698837666312048 2.8105291727608432 1.5934152160650041
Ni 1.4324594757764455 1.0323492076554412 12.465961476462894 -0.5630091145147917 -0.31650485603682266 -0.123497026815097
Ni 7.0215915771324475 4.48815979110419 1.1600875836040923 0.7532697200086834 -1.8878358386082779 -0.47645498347263104
Ni 7.956232825961313 3.1643652174279624 8.962736702572306 1.6309715770522233 -0.4297089855663438 -0.4278007128000374
Ni 2.1328179647695706 6.336041280410423 4.859210380651874 1.4781891710094477 1.9444852116712061 -0.3104218830675363
Ni 9.156022776954222 7.37351927002374 4.728871245997674 -0.5991814506702907 0.1019486112203599 -0.24200817037982839
Ni 6.967972493027387 8.741635844874114 4.996824925639771 -0.5316046320615813 -1.503952653126797 0.04979455492462392
Ni 2.340971911794463 0.0993883342971377 1.0005414344585097 -1.7051257917681344 1.270766966134605 0.24897534572628088
P 3.0428970105492668 1.3672027191560623 4.1506663556539785 0.8473494700039277 0.34798441470234265 0.5037688407962356
P 4.260973400486528 7.995164943550638 10.520019541133708 -2.344526494969788 -0.7947249018296765 -1.7805617014099464
P 2.8592120159924916 3.783232023639503 7.1330493341351815 -0.23465944332424102 0.76779105355331 0.9042896348343974
P 8.570185326551398 2.361813416659647 12.085354567368972 0.7217749918345118 -1.3628227437212854 -0.30704525328581955
P 4.750762752405507 5.869620524103144 3.7736766365990766 -1.8473764450416506 -0.11793624489786786 0.8307000343727048
P 6.9538263798817574 6.431473925059324 12.058113275126171 -0.7465226310928368 0.3718725341738499 -0.6136693598738205
P 1.7068213353484545 3.8854906108214298 3.7103492345006646 -0.3117963948175598 0.5304486640802671 -0.8725971888271229
P 3.1778212762738063 4.787167779248316 13.458087045981436 -0.3923449430955888 0.6075123391334892 0.15072989438912104
