# total energy = -340897.5993716214 ev
CRYSTAL
PRIMVEC
9.00513671401044 0.00000000000000 0.00000000000000
0.00000000000000 9.00513671401044 0.00000000000000
0.00000000000000 0.00000000000000 13.17992783413056
PRIMCOORD
 96 1
Ni 6.46748911720659 1.9788157352858922 11.432203737570099 -0.4674707776961497 0.2581341294074135 0.18381870652328985
Ni 4.6836796153279785 0.31526803187911345 5.986666151220982 -1.244933807121585 -0.2910553056154665 0.02738867642559799
Ni 2.686403349980441 1.505343662319465 4.843438843508777 0.4341145708332072 0.0063940764518018904 -0.08966542297763268
Ni 3.418971213646211 4.23937517985895 5.128784607442118 0.03055267597587641 0.5892855317128174 -0.938887427413925
Ni 5.036933114478326 4.406132299703605 2.648480018151853 -0.09133201204677818 0.37228442490028785 -0.4277642031351472
Ni 7.385661851653125 6.0054355574685365 2.4450746938233547 0.028031709326235596 -0.2786798147692491 0.18177339395848696
Ni 4.884323064256522 4.4944636847644235 11.359792533531712 0.39010782623495394 0.19168165421113442 0.21117987214506212
Ni 5.634676072737779 7.7954045727921075 12.366330872558203 -0.8670770303398422 0.9087967786761316 -0.17670189297285052
Ni 2.0002209450207853 6.418204004510305 0.2934467848325874 -0.8866464678313375 0.25170508595261815 -0.5831591071001053
Ni 2.527678811996755 1.4193356025054296 0.40760129965183145 1.5225047050973715 0.5885820778878896 0.7700873057866544
Ni 0.48405040694858076 0.08851959241608057 4.828321920672445 -0.08249178804732889 -0.29484099791014384 -1.0012557052385014
Ni 8.816361936567235 2.330340248206076 1.3075449360477376 -0.18566398726214475 0.4157874903892453 1.072845501661346
Ni 6.688385118383251 0.7055776682019834 4.7982186494807015 1.4893063639685318 0.2534076704660217 -0.8240514187079357
Ni 0.9615864980695547 7.312297003647163 2.4676910944330235 -0.6452304225095534 0.03993257452887962 0.24745530953732864
Ni 7.8158462329091485 3.7936479328046833 3.794224261548071 -0.35019762030357754 0.46590549009155885 -0.5087400687585819
Ni 7.795071382737335 3.8805294908704155 12.448744982349018 -0.1261131242817054 -0.35578976967937437 0.5774548576264765
Ni 8.069349833770305 8.834498281710724 6.78001868704095 -1.2331599544151084 0.33011987571709595 0.47918060993391026
Ni 6.847244733416169 0.6989913112814531 0.3985871578997794 0.4903340554475685 -0.2794642583437574 0.09012333645065769
Ni 1.6884360999845225 6.450955686380649 9.270959243187708 1.0357187720123775 0.33639439587189807 -0.12809107394368263
Ni 0.26834046394875005 4.923792578041981 1.2066108622936162 -0.29144791306819484 -0.4172635607141394 0.4799288009538444
Ni 6.486697073607316 1.9622372787768734 6.912384289637591 -0.3196356883563205 -0.34152271823739894 0.2451562290905068
Ni 3.4547035957362637 4.422395576431084 0.44226657305295475 0.8011035516625106 -0.8527863247487829 -0.12076471548559847
Ni 6.149769887140755 5.571793203752185 4.574712959712887 -0.04472896747625845 -0.3298205993091223 1.485523242777016
Ni 5.238846287669647 2.867469631907025 9.331995158653475 -0.4598302304317564 -0.1402189675554682 -0.24076118534660473
P 0.1331238350996613 5.746537879774734 12.267204129722801 1.16046201252975 -1.205080165459757 0.05270864324762536
P 4.002864271791123 6.189140344423444 12.441364372379006 0.002234545757473571 0.32198181999099384 -0.14018708587626827
P 2.5415917480676042 8.352318241637171 1.3681026787592259 -0.26464261994989263 0.8956108761134769 0.443955468183029
P 6.329035141744252 7.811487746787277 5.824170262022751 0.42051060689652736 -1.208183744085745 0.05629944592267724
P 4.744059056334481 0.9809205263828971 12.482920376318262 0.06849958753329494 -0.17378317666415877 0.7658143894429134
P 3.7848499143314016 6.14656405850566 8.190837231335498 0.043364997249196284 0.17400943374235195 0.3348663892631458
P 4.769525582682936 1.00366750147349 3.7465393616283493 0.12090021262219824 -0.4322497497103266 0.9559502964334827
P 0.33304957463995466 5.457500009829063 3.5743305320767083 -0.21334936899255513 0.3504845554163771 -0.42923024615771244
Ni 1.5026781418812956 0.9339047081137023 2.6643227549993904 -0.6915303340173574 0.5271576520338213 -0.1281088145554955
Ni 1.8389749687847767 6.466921793599818 4.841409085715659 0.5333804930150813 -0.18354436981598068 -0.7814744645776736
Ni 5.900174515570698 5.611992133603494 9.305371472249936 -0.5250920277540441 0.04195140473112129 -0.16704071573400264
Ni 8.543965559086892 2.313329545139517 10.140847335615932 0.6816506130098002 0.00479562161643045 0.11628765355085134
Ni 2.180404723559057 5.25932396833315 7.004182652295352 -0.11765933708739736 -0.19645670700227455 0.05587084302569087
Ni 0.5009971735451709 -0.13033404377619903 9.136695357792533 0.29933528623607153 1.3321499972277766 -0.5081088629324861
Ni 1.5452003969793873 1.1501990844798748 11.359911401335037 -0.8458965396074852 -0.15521004164766172 -0.27738989231323197
Ni 4.0074028606453025 6.761704940706136 1.5512644559762225 1.8287032941121797 0.7268902015738901 0.455050549654926
Ni 5.435626532990168 7.72173355014122 7.913228680782141 -0.03508347396669442 0.9318462042964273 0.7262427977978783
Ni 5.396823399314251 2.9778726068122783 4.7406749259944005 -0.14346678506880453 -0.08623480002952891 0.6718498248692945
Ni 0.8617348417366086 7.487609003276483 6.825713451768659 -0.339539369258783 -1.1531829623698333 1.1079737128230465
Ni 4.916273288968092 4.552483779977682 7.246996255480324 0.2102470759181476 -0.3762992024866358 -0.5376516095866095
Ni 8.121948836741069 7.100316087719785 9.357103280564637 -0.4344801817027421 -0.6308600127204942 -0.5954942316266906
Ni 4.595888538464087 0.49275567251472335 10.292376769443884 -0.5914676269658007 -0.5882136388048773 0.20903197256412387
Ni 8.101669269083107 7.073183611097473 4.53228705957658 0.030549076431450613 0.8963505824929789 0.7322753771452033
Ni 6.9267510845938585 6.02490466283111 7.176167253945269 1.2834679586410411 0.2574299042515373 -0.9490993349499202
Ni 2.457366705303426 5.365818713947303 2.5711403028438364 -0.5179412756418758 -1.1411417149345833 0.8493605868966856
Ni 2.3452077287581625 5.033916393712155 11.339799329218119 -0.1138142523096943 0.9906187943499455 -0.09598108078301534
Ni 1.2708589099901104 3.459656420874754 3.878549261328681 0.07704130645571894 -0.46296697628852523 -0.5083094089790665
Ni 3.586799944748104 2.492099517229165 2.810013258245893 0.1524049680986988 0.6534648946042035 -0.5304892875102154
Ni 0.8216962033170542 3.4488322466629993 8.045607791083706 0.71997599095256 -0.36957345372702805 0.41762557203924844
Ni 3.6342570147114546 2.5566573416252303 6.93585797925305 0.18762805296705107 6.9419785354719155e-06 0.09282890830727884
Ni 4.092708519803334 6.785847711972122 5.969268227279959 0.19924378282910848 0.22283365433390656 0.09719875524020034
Ni 0.8400117506791908 7.619390172506782 11.415530727126619 -0.4764243873450118 -0.5645456057639762 0.035773043834551294
P 0.15547728572015965 5.619619484316769 7.990080317685601 -0.9483447161720828 0.06555464597235808 -0.043152624128074066
P 8.53132234727882 1.6222483458610633 7.943582294771794 -0.882368409281274 -0.20870621379358897 0.696400260515149
P 1.749887152248262 3.212978713568098 10.392596735864402 -0.7332511107949115 -0.6505649473485893 -0.8074752595168094
P 4.136410447798048 6.035548734310557 3.8744636308462574 -0.617797008888949 -0.028908198393917957 -0.6081024073090043
P 6.796924030009109 3.9313184613814784 10.38466230999254 0.8108991975966937 0.21567158936782857 0.6636762879195667
P 6.182467538191405 7.726812447192326 10.126692161370126 0.41081163444120866 0.3028710673034719 0.10503547767579974
P 2.411647626706854 8.40800600646703 5.719811534813779 0.8362703293716307 0.7288691796771318 0.02084676154202216
P 6.915062417267022 4.018209024583827 1.5768858706744628 0.6273046912690681 -0.18731952058769674 -0.7561143885463301
Ni 5.346772850005655 2.707727513485795 0.5224564140997564 -0.5277032401246461 0.6598363453481862 -0.09819068683982445
Ni 1.3877455832584777 1.0765190566923724 6.858491248535187 -0.008329345801301784 0.12397705177530907 1.1428972641731092
Ni 6.727062180146552 0.7921485490544835 9.203846661533843 0.7191547806028453 -0.5786313944330809 -1.0259249258504073
Ni 2.5964240249189983 1.5978354204966145 9.06920005783251 0.23113446089011805 -0.03341354246343923 0.26783155920083546
Ni 6.384245634333494 2.138152622559428 2.7215098750757205 0.5003027366245061 -0.6153215507652628 -1.2780568149277989
Ni 4.0839105013300525 7.023466251843647 10.242147918430302 -0.37057978350435533 -0.41687969501215943 0.22596140132961084
Ni 7.956992744219502 7.203091711911763 0.12602418539205107 0.7559192418163885 0.9118080546986297 0.8364060836185466
Ni 7.461485101955101 3.773224282960873 8.260084930880884 -0.008846908867668635 0.18637489728624032 0.28205104523432717
Ni 3.0484188470576092 8.368833662189882 12.334066368578755 1.3401862372686921 -0.3098122745079955 -0.2777920128476571
Ni -0.03976578278010663 4.809679486851168 10.16376720932954 0.23397912942776478 -0.20907131044249153 0.3849980158122144
Ni 8.617726633103935 2.3835335901934607 5.600296262167365 0.10239804005295268 0.15928575437893214 0.7294484492193695
Ni 3.5812167600465328 2.540322023804828 11.465258892544382 0.24495953969866843 0.37190390163241754 0.12898710339539077
Ni 1.267094762884858 3.277932763975243 12.673804958696657 -0.34772396195210437 0.36240933187842106 -0.2571861636718474
Ni 3.032758914483365 8.42417022669174 7.951199739834792 0.28786070993756874 -0.33694281217620037 -0.02629210092730956
Ni 5.650290979628947 7.770622436826425 3.548194924077727 -0.4214616579558871 0.08560925063038805 0.35248281679332844
Ni 3.151437609938204 8.418956252591402 3.5951675176911677 0.6505562055978409 -0.9734728786982781 -0.053538595348088434
Ni 3.246576878280292 4.114176765494535 9.048929495311162 -0.3092468889228287 0.5864578324560351 0.2230246872987901
Ni 7.12889839133718 6.045814590052155 11.42809109167783 -0.43741355329945314 -0.19767952366578215 -0.9705649610228639
Ni 0.6767459223003399 -0.10180487046483422 0.3880592526826724 -0.9408167832261538 -0.05104385395069273 -0.13719637867906048
Ni 4.719006766270336 0.31233055631515805 1.630858156979082 -0.5132739520731935 -0.21036431822230225 -0.4862696555702077
Ni 5.95743817930826 5.694470179864278 0.3699886450364757 -0.36770991815572796 -0.9586844075351941 0.41373677850780355
Ni 7.7551155915746435 8.851707097782825 11.249490416156553 0.5230778255374927 -0.06838285944977254 0.32205046844540025
Ni -0.1076717169697912 5.141284637578006 5.807458529491823 -0.18476821492075277 -1.2519413487876698 0.2714143914560874
Ni 7.969689986847268 8.633467611907717 2.6135797106850664 0.06903566254242305 0.5791687549937896 -0.12197236264045444
P 8.450861451619893 1.5671459149112064 3.467309886484214 0.19560027253925022 0.5567502780892734 0.4763703941786247
P 2.014160896501481 3.321049358089953 1.6552278576877768 -1.260985718378125 -0.38004427135136487 -0.613306320107447
P 4.759601922132725 1.1141245071984358 8.070939240382929 -0.18252312764031792 -0.7763111752091791 0.5766796700233487
P 8.619167454962403 1.6106317196271498 12.459869027610068 -0.6340458666476434 -0.2749234330506104 -0.7363868282104156
P 6.3585179590231915 7.7212562779006015 1.4798951462442411 -0.8061359718800954 -0.03614791067546678 -0.606230129986956
P 1.7338580090727846 3.1481057093904927 6.075775580085374 -0.18078274791044346 0.4787095838347627 -0.7217001727325184
P 6.764217373821843 3.997182030586782 6.181346398682783 0.5331884316089334 0.4789250422796784 -1.7583959639461846
P 2.3874057989380986 8.440613606151526 10.149440937488045 -0.02355567583275298 1.0733597222936029 -0.27692246575851015
