# total energy = -340895.14002715616 ev
CRYSTAL
PRIMVEC
9.04454883016938 0.00000000000000 0.00000000000000
0.00000000000000 9.04454883016938 0.00000000000000
0.00000000000000 0.00000000000000 13.23761144996300
PRIMCOORD
 96 1
Ni 6.437385163440702 1.5723495645027958 11.191500226331272 -1.3515548841169498 1.1144590634370741 0.7609922854639217
Ni 4.427993962386153 0.14997308831867212 6.008498996429702 0.6340044718867468 0.7348811901991665 -0.6506793614392665
Ni 2.634993588394386 1.3634114455486752 4.712324725735142 0.042402633335926976 0.6135785999322271 0.5484798105503651
Ni 3.284102757742004 4.360395005585015 4.927303698749669 0.9136826460135233 0.21113256384689447 -0.24348732602851617
Ni 5.258880471015184 4.734938810788646 2.649044294761869 -0.9843144493984725 -1.3996800217589507 -0.5247518708058059
Ni 7.137243295406889 6.1032976244628525 2.6002109675527834 1.4603236035829368 -0.05098497568829929 0.20073605110391882
Ni 5.192104568143521 4.6392836639959185 11.51538460994822 -0.7878364022399593 -0.04577952022795986 -0.03331918297742004
Ni 5.801698104327616 8.105091404629931 12.433267918922864 -0.2196017776601702 -0.13715884057290573 -0.1814437785332101
Ni 1.823598082161188 6.603850081814391 0.37900638552015276 0.199030895487354 -0.5938469258312546 -0.14366758822570094
Ni 2.8707216605255166 1.62785595972471 0.46907833241545605 0.5438402548958247 -0.7352586281432434 -1.22911200959798
Ni 0.5590281779036391 -0.11060397684369289 4.398805394900385 0.5124553128266399 -0.16210959698097244 1.0148020764643684
Ni 8.62687141772301 2.5368150125211777 1.1675345593369315 0.5055169338355939 -0.4473313266337974 1.298435892804783
Ni 6.698383704571349 0.7909783420529881 4.73572930434289 0.12761387719694797 -0.5047252911722339 0.24167546963075798
Ni 0.6994303248138334 7.375630464848635 2.4262426915978494 -0.11113233460215699 -0.28623088764362964 0.3678122480615472
Ni 7.828047834148841 3.9151409188358524 3.813014397465762 -0.1896977910118862 -0.8062650412587921 -0.7329127536188861
Ni 7.48328772773383 3.882806657320724 12.480220884462302 0.7598129204438399 -0.6248464595365626 0.18112470463089453
Ni 8.017015589627324 8.961628253302852 6.719570559843849 -0.4550289523883712 -0.6141059331906069 0.3033320661002905
Ni 6.880061553817329 1.0054010753239684 0.4164698105891914 -0.7721814693115218 -0.7438000899553513 0.21707798279705193
Ni 1.7971789554798758 6.3734763824991925 9.207553149610808 0.5239419733100009 0.4616161186875856 0.46165211413184365
Ni 0.07672581086964633 4.891943131247698 1.582861138973532 0.11917834483508509 -0.1175796328893975 -0.4052531665168246
Ni 6.169259517953714 2.05160210972339 6.852303833932035 -0.06550605212260976 -0.2531955544552156 0.2454987000315901
Ni 3.575147289572862 4.51470405053875 0.7115681091364353 0.39282136851137506 -0.049778614085023945 -2.2386397250372867
Ni 5.901965970944879 5.54434451631322 4.862743710303519 0.8135134952910892 0.6699148126301108 -0.4681135534864712
Ni 5.30409416984431 2.8565398082022377 9.194116568098394 -0.17051453321521604 0.4830622043765036 0.3925843127999046
P 0.13316560351487827 5.503372710812932 12.599214584657444 0.6413264594694569 -1.3531286563619729 1.0162444653378497
P 4.134444090572165 6.337696147938676 12.61819728341771 -0.6598569141734765 -1.2485768031908109 0.08277023851969616
P 2.4196700180753195 8.441467214422698 1.3498527626291428 0.5375536505561646 1.1151434910986087 1.0099432057101705
P 6.244537296580404 7.768172921916631 5.635291071065451 -0.3637815296355993 0.2522558162497655 1.2072753733388628
P 4.8143951709034445 1.1278009525503272 12.582217164331464 -0.15579599605811878 -0.27646249540295614 0.5494809981213699
P 3.925741129883609 5.9204530284377235 8.361933975644156 0.4222155054027761 0.8505507505500448 -0.805167180208923
P 4.689616577375413 1.1121900615363098 3.8496167815008877 -0.45496981701566164 -0.7830600638972385 0.21128811558815225
P 0.17930275076377936 5.627192582181354 3.7399561510840553 0.18025052955605733 -0.4108301463839699 -0.8857473530558359
Ni 1.5152061059706052 1.252561456981007 2.4521218587232307 -0.7697438064043065 -0.37485398539967696 0.7315714090996434
Ni 1.8131516284409157 6.607938217815745 4.735927379958884 0.3710826912827029 -0.7300680850812394 0.7010236182197734
Ni 6.050468415648904 5.7236436492575296 9.148261610768174 -0.3237849346380037 0.05041779033091962 0.2596999312326366
Ni 8.520480391652393 2.320559853688529 10.496803818294227 0.6160340034512551 0.3512692561012015 -1.9921575780465044
Ni 2.34333402725359 5.1052949899554925 7.1128600966324464 -0.022535462098354737 -0.1652982791215992 -0.16570605608297911
Ni 0.5858081820771059 -0.0469457299004962 9.038124332636137 -0.3228331122476956 -0.34650397350207424 0.8662445071362178
Ni 1.5771974425928963 1.0554536076945196 11.441863282674325 -0.3772155436533181 -0.9482953509913861 0.4571927928089094
Ni 4.076423310818445 6.864061747210263 1.6028631583695339 0.3587758488908918 0.7881253942352877 -0.5042270113795768
Ni 5.45427890060199 7.908860876564973 7.871308814918914 0.27686281616516834 -0.6422230031417971 0.5912619387128979
Ni 5.429614416363737 3.117167522837186 4.599248873738419 -0.5414846101794545 -0.16946012380877265 0.6164551501490738
Ni 0.7204914608597432 7.218182961504479 7.027437047756381 0.09038636030405725 0.7609966563392958 -0.3652000072496807
Ni 5.253218583544283 4.5575480776148805 7.070883441774304 -0.36179252423002856 0.03750391048272896 -0.1489154668882016
Ni 8.218636668702917 7.075559473439568 9.373023167630185 0.5594779614330816 0.4361511416472617 -0.9397261212651364
Ni 4.373916605854977 0.319921966842187 10.400089554851592 0.4279184693248243 -0.27863250647108145 -0.07684744527735797
Ni 8.103689499585219 7.159221548688501 4.7721327083071525 0.17908787670652385 0.11691114606746317 -0.10335937552495747
Ni 7.265241748263421 6.335534500805217 7.012810203638265 0.21315139404913616 -0.5785925707753454 0.09690770636234278
Ni 2.4568521576805487 5.259323653900286 2.4294589331068788 -1.6891499851651683 0.19436048659487817 2.200485325454752
Ni 2.360636248869937 5.148853536376992 11.646661711699643 1.2050269436243184 0.679766765723526 0.3538298177395261
Ni 1.276221996316273 3.466567482722759 3.796348007621307 -0.7155873749665611 -0.33411562714005033 0.03374238655776769
Ni 3.633502717627577 2.5686156456644484 2.6125350695781018 0.962085205686627 1.0355308243712875 0.6211209310558593
Ni 1.115789791909183 3.2448675055874228 8.3102145329527 -1.096981475477601 0.3894133712710906 -0.4794027532470453
Ni 3.7126877412821084 2.743302058784222 7.266746761163033 -0.6611213827081968 -0.020158734336062058 -0.6256095629548323
Ni 4.210526834030979 6.705953991812792 6.000821079059018 -0.9791280201015267 0.10833754546583924 0.28346258086987314
Ni 0.7876806996058787 7.054901724264587 11.421305023534776 0.03896275441644258 2.08525568085477 -1.046250781891953
P 0.08474832554486839 5.487680418860835 8.160894461048404 0.20830666436232514 -0.8354159517911355 -0.09301325640394303
P 8.42842497523254 1.6639708425862225 8.095580157242713 0.18738688349052243 -0.6134287046179242 0.6526794225884308
P 1.8026418628799146 2.9696961566821733 10.530175489542442 -0.6303913006141918 -0.03409154236707032 -0.7752217987997423
P 3.9757484395107827 6.147588779327072 3.721079273543294 -0.3983289285931656 0.45019399289357304 1.0599460199908584
P 6.853669560782045 4.0500313177831595 10.31922134068854 0.9004183248044493 -0.8215543633176948 -0.14303792506150204
P 6.35139863918215 7.669297915795405 10.272518909147415 -0.6125586433081451 1.0366384556131694 -0.6417162387087079
P 2.3379886989863334 8.451000168726738 5.880874987888339 -0.2404086871031924 -0.943346234516227 -1.2469405531389688
P 6.946846501237668 3.947529447643034 1.4610618197792307 0.1073615547058151 0.766889367674647 0.582468508790984
Ni 5.3092947853327574 3.0733105063093937 0.3121689797174966 0.019782067722933675 -0.8146180412091777 -0.05846662877732512
Ni 1.3865202674147319 0.8997435621509394 7.019693105180367 -0.3338952835991282 1.7601402003308009 -0.7121876052563928
Ni 6.6467483761825745 0.7119733049171004 8.952133286103248 0.8203246046756517 -0.7485111222777755 0.7507086441497265
Ni 2.5401343618851087 1.4722173661156668 9.108482781238191 0.7290049339240476 -0.20687096035706307 0.6367228992591744
Ni 6.246780344651942 2.0634776021344003 2.6379384934431482 1.441073497104073 0.6316020330928412 -1.0835076093608824
Ni 4.144329782274553 6.853561026197938 10.464265149979031 -0.0041176217127993605 -0.12811447098245032 -0.5080674681715895
Ni 8.133455109276488 7.294319972255346 13.54896002970635 0.6480807474741548 -0.03967083622706071 -0.07698499929648678
Ni 7.517575611762879 3.7933651154681067 8.041173579139747 0.8915251360798775 0.18167903447246775 0.7303933296311421
Ni 3.2886340766284596 8.378490021994772 12.540597769146004 -0.09191513824375783 0.28805354267466515 -0.1882993680024628
Ni 9.364544807701716 4.55100886892245 10.393536779336147 -0.845166603419996 1.348478302074155 -0.435841580826643
Ni 8.54503634130654 2.2131558381662493 6.004315892667255 0.5641792235634929 1.128460777032805 -1.1453660374285757
Ni 3.7286151914997703 2.6327324512254955 11.420113856474206 0.39753137239253467 0.11909246998949813 0.22466350845379374
Ni 1.1800693993463907 3.3627541530246767 12.550711383475015 -1.2316203778421306 -0.2848862006902771 1.3572172246090495
Ni 3.0044724463397032 8.374139594081825 7.95528835382636 0.06989132567449899 -1.133527392922435 0.9310211372919708
Ni 5.587315167070808 7.874473502500492 3.420227737583525 -0.30194649860667355 0.07231227641116578 1.732451476166281
Ni 2.956382581031749 8.24338255387925 3.5009250097766107 0.9158256604984549 0.5604120432115768 -0.2232208624699962
Ni 3.183681133797257 4.270727350015509 9.646340384056945 1.4560100638092472 0.2773502973245482 -1.4270129052459486
Ni 7.5167706469307545 6.119532589335483 11.408596528190747 -1.410577899618377 -0.45125791538171317 -0.028797383847666537
Ni 0.6124036774575913 9.130110106031191 0.4797843646827168 -0.519029366499732 0.25653593168235816 -0.7941644013405161
Ni 4.758870686584179 0.32539844106523874 1.6932227219127198 -0.851134905188289 -0.007488852177877425 -0.9174053462807491
Ni 6.056184570411859 5.872155138510232 0.32494259581199053 0.13615019680273324 -0.8356848891818058 0.19289521490326134
Ni 8.034905706907583 8.904276770151123 11.383591064467426 0.5197289636699179 -1.6594439734603035 -0.5641522269802994
Ni 0.15596691072596602 4.8733294500733955 5.917834631596149 -0.36033779406137295 -0.7218690942102147 -0.11354917157376573
Ni 7.925168197827009 9.003196999015726 2.4591241483078496 0.25854010659658055 0.21820695419517258 0.22821677302269083
P 8.59307193932244 1.6336444708770685 3.7401677935230633 -0.19062724480469104 1.103495879557351 -0.7224475924215042
P 1.8907357669798728 3.2357596450711337 1.5122114559041273 -1.0732728190067515 0.9120435677482034 0.12210426023262842
P 4.567071987370245 0.9419535663649122 8.208298749566751 0.32722764177096547 0.35885298198573035 -0.4271574227890837
P 8.541065784437968 1.5977014344403915 12.465421289464482 0.6588246162542202 0.25337296057334424 0.20185705208223947
P 6.411960937113702 7.80341952810529 1.442621793939498 -0.6859983484555346 0.3998494790027501 -0.7113136872918717
P 1.8865119627483857 3.0693128157947958 6.0251916154653165 -0.6050109128678742 -0.011930689999314936 0.29978831461309013
P 7.043993998561862 3.923805596467039 5.841545672427532 -0.5386700235487949 0.2774210026614835 0.7522268805664658
P 2.3588544727808514 8.26210476963766 10.382960084114947 -0.3573733121164103 0.5829328500219122 -0.5519968225646881
