# total energy = -340894.4983576901 ev
CRYSTAL
PRIMVEC
9.03496401883397 0.00000000000000 0.00000000000000
0.00000000000000 9.03496401883397 0.00000000000000
0.00000000000000 0.00000000000000 13.22358310972776
PRIMCOORD
 96 1
Ni 6.426850132127619 1.9211676864149325 11.372466669527032 0.19062235970868463 0.25834753096980023 -0.17971316899534856
Ni 4.62575712016941 0.33426566767554383 5.957092527053819 0.01824043426742665 0.16451254999551024 -0.5689668747601233
Ni 2.7189640618252557 1.6809279878593044 4.6589199563314425 0.010255616289737177 -0.06667564695067872 1.7183644019455955
Ni 3.3420513341528353 4.51338023522639 4.757686571176523 0.010190053159124387 -0.08825980087935767 -0.11917680217318828
Ni 4.853618917746429 4.617363638410923 2.7055850868112965 0.7617242785339398 0.11806917093130634 0.5891176386763854
Ni 7.043468370075137 6.008233135016753 2.8046688289004282 0.7589312891698349 0.044851609097051784 -1.4820234571538735
Ni 5.208458102442696 4.21115164717132 11.394510175226015 0.030992591726772427 0.4468029649341531 -0.22607504408933968
Ni 5.67280105346067 7.68915208791184 12.454010613684583 -0.08941011243371699 -0.28171268805830196 0.24960449466984752
Ni 1.6443725226334276 6.415610636640473 0.2855364916623839 0.10617319082466875 0.5537760259522978 -0.1814553484974359
Ni 2.795499243715618 1.5027042836957725 0.4055750262622362 0.31957938119708834 -0.7732549048813586 0.3482458958938454
Ni 0.6450973486589578 9.072459319467237 4.8660410900497055 0.24465692085658514 0.8118283942791825 -0.44392075829035155
Ni 8.647563022224887 2.5120272413770386 1.530193162328924 0.10077310285501997 -0.3206615585176736 0.01062302693148493
Ni 6.86340153321114 0.7145834514664654 4.682338583584402 -0.047389287917240966 0.9169494896902531 0.04853882814065189
Ni 0.8103034763772492 7.659978188452038 2.640061719309788 0.12283393930980135 -0.8379842267389439 -0.6634484881794767
Ni 7.697916003203264 3.8116707042740994 3.708064962593878 0.5916638021370069 0.04707998420693827 1.1304017028092597
Ni 7.416558182491687 3.8933919556255723 12.713219219615823 0.3295892000246066 -1.750512704543366 0.6279240700206219
Ni 7.937152820730697 9.017851995733869 6.909546709457962 -0.08053132188684842 0.37574435842443027 0.42225869993588566
Ni 6.675636906833439 0.6295870255859813 0.4636382238089734 0.9115609716848301 0.5988153255801235 -0.29052103037855126
Ni 2.0018047420602496 6.4162069442788585 9.157212704810256 0.7126354914270888 1.2656692398967233 0.7265104496369682
Ni -0.03197383487094817 4.987390597957584 1.3734546030757073 -0.5424019797874013 -0.5839906018624653 0.9015629799318539
Ni 6.302709723772811 2.0359749767325845 6.845293657925499 0.7522119681681304 -0.49782033652228463 1.5668189536337145
Ni 3.5750992011909646 4.226357491950152 0.736054140434032 -0.7758818009812444 -0.41985497559039947 -0.7353601867181143
Ni 6.033413580292215 5.752399088220921 4.858489666956333 -0.1861553250762665 -1.2366952212618767 0.906310264808852
Ni 4.930443218491766 2.7702555536906304 9.280231874105613 1.838903117463317 -0.2332561352188112 0.6172964151034466
P -0.011852066061123457 5.232039359051579 12.456774409238855 1.6117368971923276 1.6162885211187517 -1.5998725416545736
P 4.068489562169689 5.730344740564875 12.614492358613301 0.29999323153504465 1.6524873396368118 -1.1593677510243063
P 2.401258580064816 8.443300551185185 1.2387288306431348 -0.35226144481114174 0.08140112608631142 0.05741221937088176
P 6.453964059745724 7.889122950948008 5.792326402092942 -1.5371013719646238 -0.3769355505190541 -0.0477358726233823
P 4.823722221149191 0.7065125179305594 12.594749154804209 -0.7166826649132689 1.6490937405742307 0.3306688062420305
P 4.194951956328513 6.092095672887883 8.308787100411735 -0.5356011548154841 0.8235348840828334 -0.9420061755485647
P 4.776559707931425 1.235531356806398 3.7720930435173146 0.5078628083599511 -1.7223904923858528 0.30879488898707463
P 0.17959882571750593 5.709663707469957 3.562843272229298 -0.1895188422318607 -0.5795415649521761 -0.012618202984642784
Ni 1.4555959802633152 1.0763352872858953 2.593726808814388 -0.4707000832667248 1.0451696330126323 -0.4028931509250804
Ni 1.8872413957764826 6.670279173052187 4.586005084603218 -0.09374036437795469 -0.042524503625771926 1.0725783640428883
Ni 6.304435401938442 5.695587233218372 9.152464831113717 -0.7538430760136502 0.06468715576574022 -0.64523993559125
Ni 8.818612964799355 2.5404241339140956 10.415330568665139 -0.9360219329406718 -0.9897091380514828 -0.12627304689833738
Ni 2.5440200496728447 5.2511573433367875 6.913884395779006 -0.8598095501441515 0.2160801376601569 0.23955482374332934
Ni 0.5928056862546552 9.215844201606302 9.332768384040223 0.41767776543342255 0.10482053345151625 0.04837607731054249
Ni 1.2593926973060372 0.6848710681392732 11.66091332316402 0.6165369112296026 0.6333496119115672 -0.8503422340836645
Ni 3.9011078150677125 6.736939139052316 1.3561183137342805 0.22482343107042574 0.8994068528207995 -0.09355524495034209
Ni 5.587321256994525 7.791247183574818 7.901117769443775 0.3764529544556807 0.3648449379031071 0.2350083420232275
Ni 5.1543838415981895 2.987573548025287 5.032617821839862 -0.5155496354812477 0.014778700971071321 -1.2212616603156257
Ni 0.6355157691058084 7.518770732689499 6.780815635784008 1.2502855583518016 -0.30837579917178504 -0.044400637602562236
Ni 5.045837781483585 4.435525948560206 7.193867094936609 0.9499205452996349 0.7866670645222064 -0.3896370572461225
Ni 8.206096600606793 7.3934828838790105 9.307088305243509 -0.5279557224550843 -0.8881497918497414 -0.4398489022138231
Ni 4.5725502158898275 0.1864690125088448 10.442650493467415 0.16581044287132735 0.8476726576713014 -0.6654637188372927
Ni 8.112991294340686 7.374220340166314 4.527358228368 0.37213735779946233 -0.26621844907744474 0.208690272953989
Ni 7.349834971742033 6.30186947210054 6.942275867337532 0.4094036983500885 -0.43417602019876195 0.38755240680295194
Ni 2.2086331429378516 5.247353623401025 2.5049040755875964 -0.15231086572299574 0.8516157014794494 -0.4828994535463942
Ni 2.4122360615896405 5.023521419865217 11.42287544538831 -0.5073496161689585 -0.010230419478756575 0.22516693045277353
Ni 1.2583446414567538 3.559324153666402 3.7090958520111474 -1.1282843993559406 -1.1398741610760692 0.9357450251302014
Ni 3.6532335717479056 2.6131827007613486 2.635129532343202 -0.3636573453529092 0.1523527747045247 -0.7060550099960937
Ni 1.223171525756225 3.306037966780036 8.272621042143651 -0.7654215248798689 0.2735982864812836 -0.4781413700361185
Ni 3.655645907194102 2.629057132892309 7.14360468549566 -0.9494569753996551 -0.11113490570531828 -1.2844822588381686
Ni 4.099334930009814 6.926384268774557 5.696468142229623 0.15464028518712075 0.27927605359235125 0.6931321312868385
Ni 0.6617207793235874 7.237295457443089 11.27212616391518 0.8028033079624367 -0.2773700948188901 -0.05665245838672179
P 0.3386132924572275 5.821200340740708 8.007791784972417 -1.031743075194081 -1.1329411814016617 -0.33718038210830314
P 8.486279875970034 1.7463591987257903 8.136100925817392 0.4022012670643783 0.1893578911739642 -0.2382569308675123
P 1.8645455656609604 3.065500114405215 10.504338518658399 0.45775149352585676 0.3165614203063709 -0.03619727585616346
P 3.850042197307787 6.349465663600768 3.5076875261679015 0.44298924761501773 0.40511355561516676 1.426325906481253
P 6.951456294479405 3.759060107632903 9.959711779096029 -0.6694360732214795 0.13804947070797516 1.4489865813035625
P 6.200641733002486 7.815433782786305 10.241546645918314 2.2088758635112926 -1.1456799691245687 0.029914785281561385
P 2.5452397698422695 8.564847924809438 5.897599094671378 -0.7907715736088833 -0.23070071578680912 -0.3821916567116708
P 6.750383165808644 3.980335416295027 1.7516356178290806 0.5919587076696063 1.185781722241461 -1.4299005112063892
Ni 5.3153688340338485 2.7860757760362826 0.3077841875526952 0.12382921334353512 -0.5359868202896769 -0.006503862556788799
Ni 1.372736323420379 1.0160811109163022 7.112132291138808 0.2940578398872162 0.6505999143515828 -0.5478262361267662
Ni 7.010228736717251 0.6239383659569111 9.262445643546133 -1.236304156471045 0.2342336686407321 -0.4228942766373555
Ni 2.799655327255881 1.633376971180167 9.12499944338753 -0.36351182091398043 -1.0355472794315197 1.3239299233108295
Ni 6.383879842306987 2.11746131901439 2.4633820905311055 -0.8935023144109062 -1.7793491691590837 1.2724057872896086
Ni 4.358403493995676 6.616954814237771 10.517655152419254 -0.5976511300686933 -0.09558461667554505 -0.10193318460139218
Ni 8.074628836271218 7.109224839653469 -0.08378393368243342 -0.27730016081290304 -0.37096776297139333 0.9392221850455245
Ni 7.725255804926819 3.9427138252914307 7.904661282410061 0.8798471855213169 0.15427673120011495 0.5309315172539566
Ni 3.205243905964444 8.104191239192392 12.322541945852585 -0.27464241147508184 -0.1959658834087851 0.5543506675088452
Ni 0.2365181967942491 4.930605847847689 10.10493346946061 -0.6656930612392793 0.11971570539579382 0.17705361988531443
Ni 8.605893767251642 2.458350518958122 5.917513962800611 0.5383149542022213 0.058380753931738166 0.003976725259560893
Ni 3.6853709394711993 2.4631932597789503 11.605321188330896 -0.46509970636081194 -0.3518582958354521 -0.5483466274066103
Ni 1.0815665315680956 3.006519867990354 12.66425242404373 -0.27039417772168917 0.9942741317143458 -0.3682040841833272
Ni 3.233405889431834 8.476350450294493 8.112853962884573 -0.2724451467134469 -0.76177672903843 -0.5510709683163091
Ni 5.674237612771326 7.807202930383741 3.6551309142336783 -0.9969151688816187 0.8960086257725279 -0.7162653748701923
Ni 3.03860302592834 8.591482999323992 3.4235196065062046 0.9666216601043999 -0.886489373428183 0.9870215639169904
Ni 3.274948654906026 4.368251604993255 9.167910102444324 0.08330888463198556 -0.7190791901699035 0.5321648754404255
Ni 7.068829514634958 5.81515594967889 11.378470403249866 0.46891496634184404 0.5306111578000604 -0.409602701734772
Ni 0.3504382536256971 8.928776283508974 0.48569076447217674 0.15391754808848332 0.5664621060603986 0.4267434751801166
Ni 4.576516565181514 0.15429550492867963 1.7104045586204077 0.6312577623795451 0.3797876752558685 -0.8186361612296353
Ni 5.936034735951013 5.572034097537732 0.544867069610567 0.3939410839381151 0.33308178655889736 -0.42317761220572925
Ni 7.886394391754183 8.863851030638694 11.506541021039489 0.07699194127502225 0.05474161451725411 -0.2983058165302927
Ni 9.006079437357863 4.964197844810075 5.753885339834776 0.7217143137999055 -0.08301552176128284 -0.014751447277561692
Ni 8.006387751532946 0.05822763389550415 2.555734784277855 -0.2578986163578397 0.3140311976853495 0.23888633692139502
P 8.718460386443239 1.8025386062330824 3.800550470314631 -0.24973922047549887 -0.6345868267527781 -0.673060557347944
P 1.8157748288123978 3.246452377762572 1.5066950273908468 -0.6015108701344157 -0.36723246429867723 0.595646955154471
P 4.816476179846385 0.9717375065345412 8.090082239069622 0.3137810293477564 0.02598048322416171 0.6283876399206016
P 8.36930419424007 1.695591734785058 12.674434828717374 -0.3323701052038534 -0.6846071245349629 -0.9143567892624124
P 6.603330088197083 7.765307801305047 1.4369938924349517 -0.7723745591589343 -1.023304971729057 0.8059652506301863
P 1.7908383275708206 3.283161437380154 6.039700108395073 0.2825971475457843 -0.023224517745579355 -0.4148459524115823
P 6.865235630947386 3.9588773762773655 5.908270290909214 0.13151501202356705 1.1826817431598986 -0.5748523870066229
P 2.557310482037468 8.459446032242685 10.222028412718249 -2.039669507584539 -0.3940961214587406 0.2395964756145422
