# total energy = -340859.56242263934 ev
CRYSTAL
PRIMVEC
9.42496213842055 0.00000000000000 0.00000000000000

0.00000000000000 9.42496213842055 0.00000000000000

0.00000000000000 0.00000000000000 13.79438477935178

PRIMCOORD
 96 1
Ni 5.762516016157068 6.623033896641805 3.357952793596584 1.4985348245453354 0.27525999045442273 1.2865239718585455
Ni 4.835005505779389 8.453568866122282 8.277209919682528 0.4563628407084463 0.7448928087988977 -1.5629162761451985
Ni 2.8260654306090522 6.953180890524741 1.242943253586887 -0.36567437578293793 -0.22894439521733476 0.05422148034772597
Ni 1.5429982287975963 2.0042841439425487 12.502623020772731 0.4536104747742898 1.042240118070663 -0.26846970700546663
Ni 3.572729770138984 8.931659488512468 2.672772193670847 -0.141164362187873 -0.12191039905426745 -0.3041010830558311
Ni 2.925536479552514 0.18383388380161206 12.313971096396939 -2.2455153691111973 -2.5580679253684915 -2.7529025233863105
Ni 6.950485351392864 8.80294278248434 6.684579840995196 0.08342946937024986 -0.6834660689519843 0.5506930161516
Ni 7.539093078190008 6.080919507388541 13.484990579972708 0.5796168982748018 0.18361944602829022 -0.6548643460548915
Ni 7.673295112101884 4.0535724814330445 0.9833835701035304 -0.8990826367121612 0.9758439500336162 -0.32121460280766617
Ni 0.7088966318052545 6.744078683602282 12.827632467869703 0.019111009797838054 1.6566538123096761 0.14551929672245906
Ni 1.174020391476432 9.377356516510131 9.252279730806238 0.8959893424988182 -1.0720248055322634 -0.5704735412126368
Ni 0.2725208912251655 5.795625907661558 10.571988357383422 -1.6853596648848004 1.457739387795528 0.27984992381795026
Ni 4.716477183672797 1.3150743727619958 6.559326808501912 0.7333256727865888 0.17659262108849585 1.9815011267739229
Ni 6.390114810746433 4.279140096968752 5.869538344654585 -1.230955233454306 0.4097569679244492 2.9375167292277022
Ni 7.6626920298523675 2.0846696448368807 11.906209540447545 -0.6492490567506431 0.6166243287370864 -0.4189918562591558
Ni 7.54012039904796 2.1257059293830083 9.250610570036114 -0.1759429033196389 0.08090644583808002 0.970349245467632
Ni 8.557648721483533 5.692554523234262 6.173745958122305 -0.05019410435588775 0.2621054553503357 -0.43284727408500934
Ni 9.309920913403207 0.7998211252075059 10.988551885344215 1.0064760730971762 0.5484206751776555 0.034907353400146335
Ni 3.277285486338464 4.8740625483056075 8.17549007480597 -0.6178669428949359 0.06728679817211639 0.11104594553593779
Ni 8.641568583127704 7.297710376419021 7.813180398099501 0.22958022902912073 -0.04691903314904177 0.6305442812522882
Ni 3.3198863145765207 2.618471217606525 1.693550686786327 2.5633777676171787 0.5394428971590775 -0.8806995062192833
Ni 5.801968907087269 3.597687069513845 11.589490289925395 1.2778418707035153 -0.08685520722234719 -0.0013968803475266267
Ni 4.880085099023332 1.3535470676442405 11.9093546502668 0.9170029686360078 0.20551264655695578 0.3859644934905417
Ni 5.052307429641473 3.3953991101170753 7.749947385548187 1.9891545295541224 -0.21240628835299546 -0.5828222925859768
P 1.119449861498922 8.457857223832086 1.8568485208870757 -0.14612864817168383 -0.018449207844123065 0.7076205547110007
P 0.5681065494556785 8.957304810113298 12.670238429965485 0.10314880217604816 0.6201793930781964 -0.8934586056571644
P 7.3842409525370725 6.580536742985744 1.8885757704662283 1.1541741226385092 -1.232410992064226 -0.7735181858450743
P 2.9991642826931546 2.961455009732875 3.781151494805074 0.6235151423196488 0.5161816126382917 0.4943871424710195
P 4.385840091765884 8.623265306924537 6.223888640952417 0.22915548278687634 -0.7151916821900393 -1.3186182812899292
P 6.037206533634535 7.633587747197696 12.285844182301622 0.8708889478867647 2.2461702290863768 2.148337182696287
P 8.571380891116906 3.2865784988700404 7.728855263089349 1.1494000982886334 0.2774842517992512 -0.14785180151037763
P 7.807204972191774 4.663235573337227 11.560259712779931 -0.7429071458274367 0.9405779277424705 1.284693603518026
Ni 8.293259687471595 1.0797236466707345 4.753654888776301 -0.2734759019708064 -0.9578295157340665 -1.123888070060458
Ni 3.540750874074443 0.7619403179388343 9.013651002931526 -0.8324843799666374 1.12446039762416 0.10348664513144112
Ni 6.810732014863241 4.404633465993026 3.851915994490245 0.0029711668131819796 0.6569217428045525 -2.944933590517064
Ni 8.246945424205709 2.871653971800973 2.938852065865506 0.6330061125292196 -0.7602471797677811 0.23527110876631094
Ni 0.3436237470461212 6.2715770636778405 4.0342371718909265 1.348977867418393 3.084514924488533 -0.5470798448790449
Ni 3.813782598239985 6.002739447602107 6.076040204561362 -0.6534381551313262 1.3792474649362119 -0.7565787297772584
Ni 4.6018036710240295 6.616408148356108 9.549562824692874 -1.0779272870596275 -1.2552701560505866 2.034622432078935
Ni 8.259282699463146 9.286886306276259 9.083988551838116 -1.0625402630805958 -0.13130572422623837 -0.08412006767937126
Ni 0.5986396563494853 4.485509064911335 12.608233489962714 -0.2605098287284417 -1.4541915225432698 0.19880283863694792
Ni 3.925609772364883 3.6981288895432622 5.693136043389634 -0.2746313557314883 -1.2100215686254323 -0.8546514029819796
Ni 4.5319364277212175 4.545640322468592 2.6914223084755964 -0.8615386170201162 0.23576116102885203 0.8521972850145323
Ni 1.8365575201982018 4.388582755707758 2.0116346718060134 -0.5264909649840998 0.3096027296003506 0.7433460331370682
Ni 5.045851330671769 6.161408682864868 0.9102694273918663 0.9325398879293424 1.7981429048268194 0.49315738382897645
Ni 1.4162607647893792 3.360159177200683 6.405353089307337 0.15611327018822146 0.7378351306211679 1.0985431635377663
Ni -0.05318506056357328 7.933829336655997 5.439111640088624 -0.27567033851896394 1.6494428963835333 1.353410963489082
Ni 8.568685351985028 3.5304022657989154 5.443374550401031 -0.548851849177803 -2.7089906524947085 0.8521042110800937
Ni 4.490089596443127 8.728683506889729 0.24459472882043967 0.7624958665926417 -0.18625328410671146 -0.08092444356020902
Ni 8.678599258824015 0.7098410129976114 2.2296142504358674 -0.12134501346910072 -0.5864426629473836 -0.09830330115828875
Ni 3.286474824288045 0.7487887259646344 5.003830137596686 -0.5608100499809439 0.06260456220509864 -1.976146290219913
Ni 7.294062916125187 5.279562113375105 9.007346645850014 4.352592516716433 0.049450541321643865 0.0969275038566847
Ni 3.4201302104039466 3.8156393157539004 12.25435161427626 -0.46793589025802634 -1.235684263498859 -1.7431524075235527
Ni 9.047935244701161 0.8737552396131324 6.82937930217939 1.3147701111884325 0.027370935813785118 1.784991712156842
Ni 1.1403450022519686 2.3575317196864307 9.054151007139879 0.5541274957544456 -0.28344689714058924 -1.562233134035245
Ni 8.635989005623959 8.24189364457394 0.457856171473309 1.7648843998840056 -0.5292782979212498 0.9040011570597011
P 0.22881451494455968 3.4301206701234905 0.8135269049472804 1.152188459667048 -0.31995861891337796 0.2940272437595968
P 2.983735619899859 4.840311759385147 0.18650963051328998 -0.498173091876013 1.6199849961337325 1.4822761965946278
P 1.5443742732495336 5.691583752148305 6.369542946189972 0.3857415788464582 0.16541937808049575 0.31267468365745504
P 5.636758748196807 1.1580545058491605 9.463816405413187 -0.00924337297513892 0.6205249493430732 0.3795012543637013
P 6.45350710515554 6.5534494021989795 5.656800929888893 0.7662687033715126 0.32269530111825073 -1.7099589514907194
P 5.487919748299598 4.64277398083616 9.388127363083239 -2.9352292187451066 -0.36977142867044704 1.603969851652399
P 3.0719815391018317 8.203232450451704 9.862087967125214 -0.7315549540394111 -0.35921216509736204 0.6223774291707797
P 1.7812141433367268 3.4467180282047334 10.76840739294306 0.394922731125094 0.638163745470759 0.8732366221833349
Ni 0.45878830021506645 6.261586603958297 1.3695242632259115 -1.2958192811175426 0.2799383697666985 0.7223388347577818
Ni 6.712194037157737 8.587695500338162 1.8571934744962602 -2.4963447373270813 1.430649987777904 -0.8802642184540777
Ni 6.955169557506651 0.022131695767390176 13.460891894636006 -1.7692871569373916 1.435211381896341 -0.3338736863325734
Ni 6.076254151198754 1.8867737177319106 4.6130768680717145 -0.0715427452349929 2.2830395913089 -0.31402579836871075
Ni 5.802336480605252 8.587441026364173 10.397048810220804 -0.09760164710557385 1.016330854404069 0.6107580997642965
Ni 2.3656277620440616 5.86812271536225 11.35442042770172 1.0413528303697033 -0.5845791273760835 -0.5389435889251556
Ni 1.4604732615293619 7.7379126515709356 7.295311723590131 0.8613380709735359 -0.4700434235193324 0.6251066551764847
Ni 5.0017802083617795 4.12533414209777 0.08133553706388884 1.4065538660606487 -2.493996805920195 0.8532645499367821
Ni 0.7287079019283507 5.06313671097898 8.491822901886136 -0.20954465053448426 -0.5194320012547893 -1.772176819780361
Ni 1.103116402353667 2.1786553658965926 4.323312066372137 -0.554178146486723 3.8213591519513415 0.5489631779446867
Ni 5.670085413827286 6.2001452766831004 7.580262254700329 -0.31324186901483475 -0.5364143947453988 -0.8053445863270516
Ni 1.5133567233089487 1.3928020343724494 1.940897504510641 -0.9095421414825884 -0.6311158374850421 -1.157373089191781
Ni 9.03155466074591 3.6020696768436453 10.310005516169976 0.4952294358666568 -0.9769073583011241 -0.40096585199538043
Ni 7.911445051907018 8.39946958424475 11.671704233447644 1.4878464915935536 -0.5646667047228727 -0.6685546990577905
Ni 5.943965384572789 2.7121647648442497 1.9549538928367995 -0.17702405219895964 -0.8541500378655289 0.9278522526456859
Ni 6.915415067792464 1.9162832737525641 7.002139798127708 0.3747935644753868 0.5768015403131938 -0.8255519145128621
Ni 2.442695676314545 7.701419198708601 4.544049388883065 -0.2775374736346898 -0.3461550748030877 1.4577882387555925
Ni 5.483028193021822 5.750593439227613 12.258269570979481 -1.1441612184871972 -1.9337637114886437 -0.6427169120590802
Ni 8.114157134593768 8.23157331118441 3.494048302374174 1.377688605089524 -1.1399772623128368 0.8648859362257945
Ni 3.939351366960256 7.522552269880761 11.874910184143173 -0.5723697297940853 0.6646196256694424 -0.21666274963650425
Ni 1.1254347123686488 0.17420817011145123 3.9047485614750346 -1.0610531370121081 -4.13777993291479 -1.26351902632294
Ni 6.098148337923754 9.035597969443725 4.503838731008099 -0.4816416698798931 -2.313226656415242 1.0376663826570518
Ni 4.317867265824985 3.0181744310462872 10.002115570049025 -1.9216309327808518 -1.3759765074944237 -0.20821898974452527
Ni 9.157066879694183 1.4965520160637156 13.776134253612824 -1.090990548001489 -0.9891545510995932 0.46066969561391635
P 6.868337382604612 7.456747185199765 8.975537399101466 0.541445529411403 0.6798297577509776 -0.3650336568751455
P 3.119502197503664 2.542892447331973 7.653372627427193 -1.072883553988133 0.0820690986876135 -0.012267504513443387
P 5.4198526727387035 0.6748329341464088 2.89033707397272 -0.6129815897781766 1.1292472774898423 -1.561270770121976
P 3.721823244010181 6.5850889996315365 3.362533325128375 -0.9083969721345516 -0.43887548255696035 -1.0298877671528974
P 1.5651940143065834 9.549559997204273 6.098083305685957 -1.2800100819994278 -0.3963872314857625 -0.26522240371276257
P 0.02401291818250434 4.42537780735408 3.8243687155579025 0.005681109545177313 -3.5008156070687706 -1.5038482663384487
P 3.4675189193377847 1.234660596981665 0.057108672243994255 0.5518279010869915 1.3770681978967056 1.7460351283879867
P 6.718367387267455 2.1327369510346874 0.02375655921611604 -0.2593795717787404 0.4261688336235693 -0.04509046458073525
