# total energy = -340886.8512797638 ev
CRYSTAL
PRIMVEC
9.15941778651371 0.00000000000000 0.00000000000000
0.00000000000000 9.15941778651371 0.00000000000000
0.00000000000000 0.00000000000000 13.40573377870714
PRIMCOORD
 96 1
Ni 6.611918015494764 2.359273652097294 11.687279595663332 -0.6578460543910348 0.12377522017714812 -0.2635632708427848
Ni 4.960136105485525 0.45262270107192387 5.73158164978975 -0.042094100956572664 -0.2262334240440749 0.6541660344362863
Ni 2.989624778304538 1.5403667530899576 4.764611847698242 -0.5009030892126665 -0.33202454893897654 0.16157814995753464
Ni 3.904907070365531 4.765654189432657 4.536674242549404 -1.320299525647094 -0.396774182511536 1.0090109237038882
Ni 3.789012958190287 2.747770353900262 2.7487247652247433 0.47260809892271505 0.9484393327684182 -0.1802101632364251
Ni 5.2595757889782195 4.860774742261227 2.5116314061416314 -0.2786918989541072 -0.7223568324799108 -1.179551167950717
Ni 5.468053295278758 3.071738957997185 0.5430371450855385 -0.40817599659057446 0.23980062120554826 -0.4764855796002504
Ni 6.067079212947368 8.383266964177489 12.333020375492394 -0.7312171110840181 -0.25925410194446963 0.2476694824306638
Ni 1.8247391944639233 6.948718963791285 0.28153668565362616 0.9437252151222004 -0.29143274355954324 -0.19856835402863868
Ni 0.5211443048957599 0.25053388861808007 0.34880253331060634 0.024650708669144643 -0.3536249008175716 0.4851437694958806
Ni 8.479834705002874 -0.04778010243911784 6.7206961760578245 -0.3563515557201153 -0.6948275167113904 -0.3550384933356466
Ni 9.022172986517798 2.7401588777904364 1.4715740305021616 0.08278386536645098 -0.08453221551612539 -0.13965178219808852
Ni 7.128179434813931 0.9725927686183702 4.543887283989221 0.24232287340676978 0.6714973266258821 0.9622245594779686
Ni 0.9894369377711617 7.561548123935837 2.6387174108061604 -1.1771443582814372 1.1508278318740954 -1.316074946042785
Ni 7.920789645600678 4.018364777432214 3.9493155911487796 1.4915411668363217 -0.41121349786531763 -0.6054670265686863
Ni 8.203357681687477 3.999990985523296 12.31202699012089 0.9610439089063061 0.2957915347488712 0.3498014133064234
Ni 8.077113427509701 7.210989730251881 8.552496365627722 1.1344918137182334 -1.5555685775308756 0.3233280496062432
Ni 7.315654396325264 1.0439995890181328 0.4578875343666627 -0.823836474483652 0.2324210409120255 -1.4504608518562438
Ni 1.8365365244632683 6.864846175899977 9.483269980847016 -0.8372864293409709 0.05394560097852 -1.1854791033993777
Ni 0.08959101236226269 5.090795198995353 1.1252747660493356 0.5988582630029171 0.36516478313637113 0.1583285326719854
Ni 6.649013657185251 2.532249255387381 7.35917170576617 0.23924346315049766 -0.1365651728529648 -1.046146909324237
Ni 3.7762538893323 4.960923815407841 0.2785333125893518 0.18727118384826458 -0.25170534306293424 0.7392240405488947
Ni 6.317662562421036 5.686560363962281 4.551554632547026 -0.5265866100216995 0.9406848856339799 1.0850034771801185
Ni 5.496997055215039 2.8872499666564946 9.534721177900837 -0.3701979746849044 0.5618909417499485 -0.11571866842125876
P 0.4243329235595192 5.831306641896792 12.466997010093651 0.012606118799784741 -0.13084215432625854 -1.4397375519014688
P 4.247771553180349 6.731329344067327 12.5354599936442 0.2174327950333094 0.3030716133500522 -0.2643528566236157
P 2.3819798485789527 8.837198546038938 1.149802770711794 1.5139133638839346 0.29531948020845916 1.0988660940948236
P 6.718387086855313 8.292927627389025 5.832351731456518 -0.31372369374725967 -0.9576536522778346 -0.31324495433862826
P 4.884882329651193 1.2978986476996908 12.569430442014985 -0.24463943735508833 0.03427254802962485 0.1683877166802003
P 4.405102871036522 6.60750317616271 8.070238368583064 -0.46033159554820724 0.526189631693597 0.6564424891752888
P 4.956765439771426 1.2019995443665048 3.6005387042077377 0.003622684354251826 1.344893155826058 1.0745709689928846
P 0.11130158013978421 5.928863599833924 3.8108077926106616 0.436479471520958 -0.7289409134553317 0.5258947261609975
Ni 0.6754484352016353 0.022493697990987365 4.503616072181674 1.3578090925567776 1.1096852961975148 0.4821723455723825
Ni 2.0315496867428156 6.62852403978732 4.626332118660888 -0.03494849105072691 0.08661326641487019 0.998417464458758
Ni 5.9849100767485135 5.966087473372229 9.532723508900173 -0.5247349015249414 0.6507009587058212 -1.0167301467250167
Ni 0.5022319392260023 2.1147721559773265 9.707923018808149 -0.2602807434367711 0.09497423678505579 0.4899568746138078
Ni 2.7425128481396848 5.54012875317072 6.920267980527336 -0.5009830505209824 -0.7655385100737073 0.11980980777149688
Ni 0.31296997532113585 8.935973706530348 9.019082598985362 0.5319586729668903 0.6865899592929466 0.5032512777298688
Ni 1.6149793696851948 1.1057523831606677 11.568062446746037 -0.14394475314648758 1.498242490115897 0.7148960053264914
Ni 4.237760309632768 7.136679374440789 1.5034533838117274 0.3807322985573249 0.7153814296033422 -0.8976911556812733
Ni 6.128053456585288 8.268838358834463 8.167603894690238 -1.919713404043165 -0.0569321944106697 -1.809340830425168
Ni 5.68324465475439 3.2104308608311007 4.481027116246593 -0.09099699730486265 -0.9334040357018505 0.7120459374722059
Ni 1.160837121216616 7.5059596179063135 6.935282098023397 -0.6427693625635704 -0.5083181507298149 0.5572909810840918
Ni 5.234140086021556 4.9495844562935645 7.057475141751863 1.5391009188931557 0.25968887548904307 -0.7145036549840791
Ni 0.7048089486433284 8.025335239243942 11.524869380691758 0.18422236971961176 -1.0341771385568708 -0.13184694144168907
Ni 4.995903631609316 0.4274645284716124 10.141571986111716 -0.7406440608248728 0.12336590055387141 0.8954098158462644
Ni 8.136603845480002 7.792731826718035 4.2099770479192475 -1.2342691283188871 -1.596835554600463 1.4121123339850326
Ni 7.898404028738566 6.323826850534048 6.252286302635845 -0.544672778099449 1.230241752327049 0.3614559668262162
Ni 2.4074155515356153 5.752086838197774 2.4674188968971915 0.8378973234520924 -1.212248658183738 -0.41460889670011175
Ni 2.756636670235174 5.389254824794002 11.479986402071578 -1.027475815277295 0.3679940250550501 -0.25140478110337994
Ni 1.4014825024843134 3.6693451659220853 3.7923744644866844 -0.05175193576131088 0.3329995112577362 -0.8392492094942966
Ni 1.689491232685717 1.4228605833992758 2.4890021487686638 0.0614190265374297 -0.5265940662208674 0.19741341448858904
Ni 1.5154164992714672 3.4137424555480758 8.028251597840054 -0.4100217915500616 1.3046893299136626 -1.3764272218785971
Ni 4.127700746533288 3.004096658272679 6.777415870173465 -0.011387415901335227 -0.9851575141250581 -0.036958322391904094
Ni 4.217060025627706 7.149676588159011 5.766476283406602 0.5585143119682316 0.27908862017189356 0.02143040195963406
Ni 8.501121191740822 7.34997473445224 0.3180671912719399 -0.9330844475789026 0.060040658132664335 0.11468174251631216
P 0.568960129063913 5.620191223298263 8.089971418078864 0.3108821105334066 0.34254627440590685 -0.131628911893612
P 8.667465376615128 1.7633894147002482 7.774011808820005 0.8008536404352337 0.32152416362828495 1.4112003636937245
P 2.5200397515914754 3.4756051627030264 10.231402975217753 -1.6436221759366985 -0.1047444287979422 0.9544747403292207
P 4.566015521213925 6.587160109448002 3.599895713085102 -1.0752775081416064 0.6615224748013575 -0.056739618783889376
P 7.191122953257642 4.168698300164552 10.3787459480706 0.004743428222256347 -0.05899730446981453 -0.38299024135356624
P 6.789583240647945 8.02188213877053 10.205825301286719 0.27527413152180974 0.6521389767039284 0.8604160733798988
P 2.503635234488349 8.610777740461444 5.649256803489973 1.0467380059410165 0.33108506784384273 -0.3540064525267064
P 7.214122251105745 4.172297951321184 1.7323829538976214 0.13820065157385877 -0.9631244455844188 -0.3872014512214364
Ni 2.918996508409391 1.7057400396879205 0.4162066881748771 0.5173494076941477 0.3355880979205188 -0.5893498092918495
Ni 1.575859496682708 0.8862066365098115 7.014067745323372 0.2986256617635567 0.8670058107822746 0.07275836280964888
Ni 7.110236135536977 0.9605939314295951 9.322306953872255 1.3579859844542743 0.8073698442871967 -0.8116065080763636
Ni 3.1429717494606217 1.9772618180268853 8.813774251209491 0.5713191770423838 -1.5801570655035173 0.6781976214641933
Ni 6.659629422301121 2.163234635035195 2.34525241548006 0.158569702148514 0.2723551581028019 1.7598445234672533
Ni 3.7754478605745803 7.485946290228854 10.4379725748111 1.041900218232741 -0.3832974881813399 -0.236740751333302
Ni 7.740056015517542 6.268265822757629 11.12575325000584 0.7595830638212209 0.1434109921302046 0.9592842459027221
Ni 7.553496995776346 4.689750094941528 8.148782207255724 1.111781259494595 0.10304467249801608 1.0678349358206318
Ni 3.2543227904559937 8.819255246761982 12.382970343984962 1.0333338167199686 -0.6249161364322334 0.6373145100965864
Ni 0.5801932389328547 4.807943220959812 10.159387969482621 -0.48923876550086065 -0.5068513363763012 0.3502367010716291
Ni -0.04122837095733868 2.4557589581633663 5.698401659166592 -0.1433783391200563 -0.6862875975611794 0.2053442392998915
Ni 4.010542634715257 3.2754810453461234 11.877614127381028 -0.5887502280346377 -1.4700346602231134 -0.32156350150665264
Ni 1.5465310412029696 3.5439893752613423 12.793467051164816 -0.11234846639744522 0.27599044086254404 -0.06469229797206279
Ni 3.638441290597714 8.677568214339724 7.905723319423719 -0.8833546844539432 -0.3149220849307351 0.16138146056569627
Ni 5.750548056023946 8.50448269803722 3.2477939575184678 1.4580245231361149 -3.0437117744292417 1.447237716933256
Ni 3.1874132441475957 8.726983272838533 3.2725005708261024 0.2646161375873313 -0.7251356807766285 0.35754249070442295
Ni 3.8625172852436602 4.743534195683884 9.198974478581743 -0.002869608238311187 0.28839755627764524 -0.3298450247891545
Ni 5.457483327251394 5.0285752745500485 11.633562358670197 -0.21628659724400814 0.09893990630102314 0.051970222419704046
Ni 8.176245805291465 0.1354549646182571 2.564985930193794 0.6775705294031557 0.1704091179856033 -1.7448089692903692
Ni 4.96247175699937 0.4912342263919855 1.4779150953768094 -1.343683708898989 1.2570514163207254 -2.27489279383205
Ni 6.685120081763992 5.4263504664844895 13.573171642410353 -0.3992748374462026 1.1754834256392466 0.16704740060222198
Ni 8.009755069733938 0.5266912482557005 11.480455364257889 1.0182424696044852 -1.286254777357559 -0.42932511986436384
Ni 0.4015781821640432 4.7229255058558355 6.086766465354661 1.1747455190319576 0.5409305374481974 -0.6554965803222518
Ni 7.49957550376847 6.179657615914722 2.5025425159565766 -0.06545437294906792 1.0152085678741678 -0.47269680198177944
P 9.049715355545773 1.9220671669585205 3.558136095901085 -0.9006438105516941 -0.09204986404940922 0.30982667268569863
P 2.3637068102647496 3.768798123323397 1.5438977086138301 -1.3479995626655235 -0.3994028783836347 -0.8947806669026978
P 5.05068610888112 1.2041611669440246 7.929357364918524 0.12946301459054477 0.39825488082212057 0.8208876762679734
P 9.014350843800841 1.9405691907152574 12.751641486173348 -0.12281311337419494 1.7092572974380047 -1.1872523932497165
P 6.624228272885385 8.275158357048397 1.1917858776877241 0.7345909126522574 -1.5013748650972918 0.10647169590169404
P 2.3499493648773147 3.364922759199854 5.716392587415593 -1.0346157687561859 1.106502784704475 0.9570347877469131
P 7.269481771692733 4.151689261493136 6.075411535230291 -0.8101574343346628 0.2685501825344149 -1.1621332295845856
P 2.307962594134304 9.242951590791257 9.83699295334679 0.402130818837759 -1.1368315175950032 -0.11002753157375245
