# total energy = -381165.92433330015 ev
CRYSTAL
PRIMVEC
9.29623725718740 0.00000000000000 0.00000000000000
0.00000000000000 9.29623725718740 0.00000000000000
0.00000000000000 0.00000000000000 13.60598290395270
PRIMCOORD
 96 1
Ni 2.3584832150406547 0.7110347718811524 5.273039438575836 0.6149747089488053 0.6333704378471737 0.07279410114359076
Ni 2.605595786914896 7.429459646233354 5.836830183025896 1.5393829689099487 2.977664762201498 1.8106009280845141
Ni 2.9983710963069123 7.261076905493074 2.054067708688571 0.8140236021582883 -0.11261431846432218 0.8050813053633361
Ni 1.7273895739742704 6.763068193286506 10.150852150063347 0.23178006489391695 0.04558540193928278 -0.07071356446547822
Ni 3.5423775891783564 4.188057026094214 4.706118651128633 -0.6680705603325204 0.838390461038427 2.2096559362104267
Ni 6.761264723308942 6.895939308695374 11.410480178150635 -1.9289308088763744 1.4725119181190125 0.14045628037725488
Ni 2.7304349535577064 9.25636543726856 9.623633731586144 1.4034513158759248 -0.9603867349382815 -0.17371478532006857
Ni 4.00761706596785 0.3941344192410876 11.63665297618744 -0.6596774511728187 -0.4446681779793374 1.7161756218243926
Ni 7.579110469423165 7.479231699119318 7.055395802670413 -1.2055799879143108 1.3644839334737922 0.7337558183454719
Ni 6.669892009858039 5.911207515997509 4.98061979644565 0.4089511841937022 -0.3148187265836514 -0.20859257103386014
Ni 2.1024741443595647 6.189713480213159 4.166886705579233 -0.36545994577928675 -1.6158696884137786 -1.4978874207693236
Ni 7.78171265855217 4.807335149936455 3.0328554874500733 0.5314344250323041 1.2355909324541043 -0.0017640338789582522
Ni 1.514217563378821 4.205338730673034 13.539054437505088 -0.2902420656855517 -0.29947901090278745 1.2661958018241548
Ni 0.6789627542389083 5.639748099426156 2.096640755643475 0.34127023590696065 0.11804063168621606 -1.1398206821303143
Ni 2.1071315590954383 0.3524231334558745 2.6366080335393964 0.3022277772925182 0.11165735386769159 0.12427709951423113
Ni 0.10094411906378896 4.114207719384073 7.838814794310862 -0.22463008411269703 0.8483385733900746 -0.4334070032432213
Ni 6.365068398701753 1.0449063347843133 2.7814303912325746 -0.7045776541196189 0.48872763019239707 0.3781892204204971
Ni 9.122220737390998 2.816081185017995 0.5720495213988629 -1.0046243646004183 -0.30167190478904815 -0.337617983866354
Ni -0.001351672859473129 6.603312360480139 6.189252386858071 2.2654385903976855 -1.3137365277175956 -1.0175048201075123
Ni 6.033741215864877 8.422260572645268 5.4336579621755945 1.7363240717478097 0.8036602566460933 0.2582629416757939
Ni 5.1123260933587 8.35191594728328 10.090740822388485 -1.2028178517881414 -1.4717904665719557 -1.841236136471868
Ni 5.559066058522667 4.588966542859263 11.339239395542064 0.8789074473158671 0.5944202818362214 -1.7316634330473466
Ni 0.33816084665392354 4.414243768486515 9.96723938424965 0.0635296451225293 1.0876545416497205 0.7193591833041675
Ni 8.609523970727983 7.668131234913638 2.1876379011196696 -0.2693464531834651 1.3940318223342378 -0.129829396791028
P 1.0808548832546199 0.6598850166721218 0.5004564114080761 -1.20729414239194 0.26915619154953 0.9692159031941373
Ni 9.020901050352501 1.4958017178862744 2.4177690368701175 0.5275574585754012 -0.5128821159514135 0.0819639405683169
P 5.724083561469761 8.260543233832376 7.806282612937229 -0.9579115339249116 0.28719633688069246 0.8380762722321178
Ni 3.2080477217912065 9.10256849237775 0.33507635521806944 1.3702352341352724 -0.14615590186519345 0.8821511510641453
P 3.6636748895250237 7.107744772452154 12.038750552040803 0.29122756952727263 1.6752102351556244 0.29952837608348415
P 2.871049834385702 2.4933158364560484 3.669968441972502 0.49039113393774897 -1.832550949993044 2.234277848524165
P 8.494046114741908 4.932378833793217 0.10527430625734181 0.09010431028726416 -0.14730929874334628 0.9314823931991055
Ni 2.45232872753296 4.259572977317919 11.460142535440026 0.30134203225345524 0.7599371047265299 -0.13854363673557432
Ni 0.45836676877705446 1.9084802706904775 4.910834804550927 -1.380491621755958 -0.6391927009559056 -0.9285531353674525
Ni 5.510725626134357 8.10930275411595 13.371646872025874 -0.2068421640016567 0.6078622662737402 0.29583138684787114
Ni 4.111753512816666 6.0068936834153694 10.33187963236797 -0.1292436994908871 -0.5311675445241627 -0.018656438758922707
Ni 5.32429888938144 3.802244598213514 9.118675152600057 -0.3661816544366597 0.6241859431344282 0.4666292556314609
Ni 4.708739260338299 3.246543439198897 12.707321042939926 -1.416392192307309 -1.6742378439400263 -0.08036754261547449
Ni 0.509512805491286 9.162705849516207 8.93484485484061 -1.2714837896959716 -0.9792164660502749 -0.6230232902848948
Ni 6.80936345353531 3.247528840320659 1.464016953967261 -0.11015454406991997 -0.3124983059805908 -0.43901046547292777
Ni 7.0640617547997175 1.1153439225162796 5.941964116104572 0.14255969987350284 0.75465862993641 -0.7033764347226661
Ni 1.0621415581781453 7.848905859571921 0.8108949497110035 -0.2502914934345431 -0.39259922519824 0.19731674100972468
Ni 3.0561843941959315 4.6410626549946645 2.4825879789606424 0.0540571868557198 1.417306219481146 -1.3313218448995268
Ni 7.022581945315749 6.46631371584427 1.0757205715607616 1.0026253318925185 -0.2182663466781983 -1.363840129242206
Ni 8.85197912786635 6.430030502842044 8.78255297071974 0.8642027941158407 -0.018161758510691305 0.24034055286941836
Ni 7.952558902096855 8.17170839308186 12.837094652181142 1.7229263102846648 -1.117111927678889 0.20773870767399708
Ni 7.923285051790934 1.9624077415144365 10.06897089458715 1.1166211040853995 -0.22082999364031644 -1.4086169192372642
Ni 1.566415934121198 2.0442518120426443 8.815438409099286 -0.1935120225516538 0.22691502349213177 -1.9141413092720256
Ni 4.132400455188673 0.055918724788877334 6.61282055168144 1.1952405536615158 -2.069253391889243 0.49723515344277597
Ni 8.100211034332148 9.320779063425983 4.033098981202387 -0.05260091402516747 -0.11770253162050698 0.1062994319898879
Ni 2.4693315450018485 4.152852176583727 9.067285554476484 0.891282166831136 1.1301047403941311 -1.110979589528906
Ni 1.1666312620328767 1.148150342881346 10.856920872140302 0.19533519180332165 0.5023511345131026 -0.1918896564568824
Ni 4.641601836740534 1.716457199264914 5.0578743147680685 0.16149741731827025 1.1034907373510285 -0.2842683646006201
Ni 5.417298444306949 1.5433054889447868 10.233209372873832 -0.8003147372126281 2.136021598553728 -1.7046182560040966
Ni 5.479462381110917 5.407100472320416 2.3988028541473043 -0.15873553830241696 1.8346080896323886 -0.06457145612348233
Ni 6.569743648681257 6.445694662183256 9.177085268904332 -1.1428193597473222 -0.41575638004099363 -0.6808900806946919
Ni 1.0270668559856273 8.317008577356722 4.473660667257647 -0.993292998747999 0.6520582440646641 -0.7340692358208325
P 5.919648499191468 3.4265929573713563 5.860886055504978 0.2431019176646394 -0.3123234709656234 0.08751006719752671
Ni 8.992845007093285 1.8748278927586155 7.328671703951128 -0.15656038502796907 -0.932996772961103 -0.2605530232615513
P 9.040246519544823 -0.005561008972055197 6.054213388981327 -0.5734416227020254 -0.04942277340750198 0.42022238623214725
Ni 7.223845476317077 2.6814158958685606 12.020558745859901 -2.232078012659369 0.8912276594441167 1.0895820976897364
P 8.668945517617614 8.797847139828441 10.812647543438509 0.40392750572686564 -0.29068995185624774 0.298316358053254
P 4.870456599151191 9.100058508388358 1.9560500450316738 -0.9726652951953185 -0.8695013235106188 -0.7566754032561227
P 7.545597535046269 3.9662952925128416 9.22613500417557 -0.14344184536814006 0.37755415793965946 -0.21473390804490758
Ni 6.488977941644789 7.655683573573647 3.292838699447702 -0.9830669501446166 -0.09313744068663314 -1.2459218820664673
Ni 2.437696450498499 6.154480741991679 13.461527539438636 1.0589060087621183 1.3442285256588657 0.5325238014417409
Ni 0.4444214836567268 5.799345896203561 12.071431473206399 1.524031169044227 1.3955667709215256 0.3074347754147544
Ni 7.752541066853225 5.045188669760936 11.611209175524593 -0.5143607573794691 -1.9026289377570522 -0.4476776542296226
Ni 5.933444114896132 1.3119872237297259 13.326406734676313 -1.2223816328526818 -0.25661383610814514 0.3654319207548287
Ni 7.694132809796349 2.6809417877816752 3.939829835403942 -0.6778592642881681 0.16691833122352542 0.6259036971564833
Ni 0.7135484743653445 4.070868662500553 3.828546441551253 0.7132363582358813 -0.7262996191777427 0.3022342050504214
Ni 1.6223327996626757 3.1776397305715602 6.361967174039303 1.4632580036209122 0.9636422657611017 0.1885899026596881
Ni 4.249309931672402 8.673454192561524 4.185417824410552 -1.3540218576002034 -0.6389057658431061 -1.9272284814732872
Ni 4.056422310206047 1.79500110565892 7.978657157844344 -0.5094296386264388 1.6601109176203408 1.3589105531510726
Ni 1.9256504204253253 2.7794075300618637 1.9480497034714086 -2.712810797571747 -0.38729118272176527 -1.5883357446595678
Ni 3.088014709676234 2.2667944295318274 10.481641080778052 1.7701304787742933 0.5999201286085281 0.35040690810090624
Ni 2.4557218540371393 2.0304933812859716 13.337903390971432 0.06212299458298978 0.5573709423924079 -2.152125703204442
Ni 7.548414294856588 0.326758082352481 0.8760578525704453 0.6358872907317564 0.16733382149438925 0.9154371668107847
Ni 4.096944607279247 2.1342207937068873 1.4237298516901034 0.5017821493835101 -3.8084774108926673 1.114976883613757
Ni 6.547544234730625 0.1421515488037239 11.333293522358302 2.214743378035663 -0.3603388225026375 2.8084296099193375
Ni 6.940998169423478 4.9445476080232735 7.224354910104554 -0.4497221954634771 -0.39240999200556936 0.44362148188237793
Ni 4.07030159204369 4.236378866008528 7.114867549239831 -0.010782435327484656 0.3642690107949791 -0.32901301580616243
Ni 8.613521352637017 4.227305738698722 5.722608248658219 -0.32841446299021504 -0.44461649880579557 -1.2149408603039207
Ni 3.68105885271082 6.877625721809802 8.295268397513778 -1.5385866982608984 0.5931157040921851 0.5442668009102821
Ni 0.05385403055167663 3.3410582807550413 11.818755103489005 1.6808391513066279 -0.7033016156206726 0.9104728808269739
Ni 7.274733077642772 9.14053432427657 9.09276932895842 0.06748451600521926 -0.3274528704078941 -1.1361249784462821
Ni 4.878321215651289 6.802939753769864 6.466692072690078 0.21519799216551969 -2.269964503292497 -1.4539274702486056
Ni 5.144054150232027 5.770806448620462 13.353401147670384 -0.745766983873735 -0.5198256371487822 0.0578639621963197
Ni 1.58327930803512 8.611280959520558 12.306734105598697 0.0015748006862876104 -0.9259290674810441 -1.5519376656465078
P 8.97231891580225 6.711752965058916 3.963640287226284 -0.48484783552201655 -2.1516235667570425 0.5247349015249414
Ni 5.232991249589521 3.4440977716381234 3.3456022813995423 1.0365512952160019 -2.081652279774228 0.6101834582077491
P 2.1961151396379197 9.27004949812925 7.514978519246774 0.16560372617715996 0.2768450755533555 -0.17988928956189665
Ni 8.920036878926894 1.1005536094528563 12.359253196517496 -1.2257855163279083 -0.8658639838683474 2.185933910003139
P 4.624691981641623 3.954795847346623 1.0223397194722705 1.0730218793382102 3.4956093802774832 0.1855439167445127
P 4.490361357024109 6.195821107920683 4.214684237726875 -0.09390260098743182 0.9315021906934473 -0.16023629121765953
P 2.132621840943274 5.737860584700429 6.787698573212049 0.014398691923833268 -2.851274730109322 1.6111182897717218
Ni 6.573062405289455 2.157080240484359 7.896953460494802 -0.3032528761229229 0.5620639769927029 0.601269443547571
