# total energy = -340891.3642717232 ev
CRYSTAL
PRIMVEC
9.09079450154038 0.00000000000000 0.00000000000000
0.00000000000000 9.09079450154038 0.00000000000000
0.00000000000000 0.00000000000000 13.30529666459580
PRIMCOORD
 96 1
Ni 6.702570080725434 2.275534960431613 11.390345551574192 0.6468664154510795 -0.9447523708351343 0.39502274703806806
Ni 4.967910122454324 0.3323058123346593 5.767712770740451 0.21994707681473089 1.3492069527100636 0.17636713534125106
Ni 3.139396801453915 1.8463585506630984 4.624508995395613 -0.9199731070079253 -0.3233133943182238 0.15041339158996678
Ni 3.654435765559723 4.306109371453728 5.0110404880231805 -0.041125052175084005 1.2628752220913542 -1.5007524010219444
Ni 3.9294504816859064 2.676538997951184 2.456543588480392 -0.42070549651615285 -0.4352854512128568 -0.5827191913492094
Ni 5.088017699786703 4.642850582439649 2.649802971238005 0.5637822452353903 0.20811820250060284 0.023266426727108318
Ni 5.113217382224287 4.781603379353371 11.421626066472996 0.3819792835905486 -0.8471309262352186 -0.07359654244022808
Ni 5.7371186108286745 7.815165150887248 12.679082947472795 -0.45560359394491856 1.6208925955496665 -0.9428001322047699
Ni 2.0548650140066833 6.643870820444238 0.05415477209557337 -0.4613273838025732 -0.5264801663508223 0.6923697991995172
Ni 2.693893324709246 1.4477272105158971 0.10452868274605619 1.7872614820276251 0.8002661433628798 1.2141952403871477
Ni 8.344640296706938 9.020049967119173 6.936264408473714 0.2158078578353767 0.3083809413781076 0.38436089644884774
Ni 8.841770395588346 2.155427383099234 1.1342157067928758 0.6724342366178548 1.1398551349126755 0.6300465156802633
Ni 7.1806186018880505 0.9483335037964821 4.6822800855552815 -0.381384330319027 -0.18538502256914524 -0.5134071352169481
Ni 0.8623409510974075 7.333080316953243 2.0994826335606738 0.3640514954675343 0.07252182131881059 0.7140300577817702
Ni 7.480614821383094 3.8609331633121444 3.559672414297957 0.34546036272890823 0.05554534136547208 0.3220309280613744
Ni 7.706302886388668 4.1513022313997565 12.693878215570617 0.40632351676286793 -0.7393351122054621 -1.0207971177055386
Ni 8.097816134418759 7.344452900910464 8.873581812887709 -0.15247515921500193 0.4588727516144936 1.1679878885931498
Ni 6.977202983481352 0.740424305653528 0.2578967500259054 0.02318209454341814 0.2459941516107699 -1.832629111529147
Ni 2.0382561324000945 6.755969407795552 9.08373916451797 0.045321349644618716 0.2808601102500195 -0.2006758872899447
Ni 0.09569788493946575 4.833366363408062 1.176330630612715 0.2976794958002035 0.21111919411045577 0.737253032865453
Ni 6.564599092141305 2.0978281089561857 6.82106676926707 1.293872956024449 -0.3908665587778494 2.2360539665879817
Ni 3.42997495781572 4.269118928510537 0.2428587577141266 0.21615058588677613 0.6947807226338549 -0.1288086688359975
Ni 6.133077257384011 5.898489304533418 4.68452914812204 -0.019941990339565653 -1.053150851445896 0.8306085031001631
Ni 5.5575663280636265 3.1191970560079154 9.524676335170144 -0.9791650439870492 -0.35760368295966155 -1.0365708356000278
P 0.16413247708300316 5.651401509203864 12.338866325737996 1.5725797673768918 0.7988540935067017 0.6174699645668335
P 4.147211373861188 6.278302700003202 12.489801696401576 -0.726392178891549 0.40992743206404236 0.7370190624777759
P 2.747738100711341 8.397512357694307 0.9361336575370169 -0.236325003952122 1.6173110488459954 2.360468363011025
P 6.867777089721902 8.126306684476258 5.780858968710505 -1.625096349218369 -1.3245662713432478 -0.13822147750946517
P 4.941719543412953 1.290729188980158 12.414852640897731 -0.13160731462705721 -1.2581623899967171 0.06426112397191514
P 4.08189401516204 6.2893207429737465 7.867235403797057 1.1556069984302937 1.076468957346546 -0.04353546138878954
P 5.017791312041273 1.0397505335916988 3.5164838676441073 -0.2807762922869616 0.7619417938613845 1.1076253283446924
P 0.17609596268468428 5.509966927903745 3.359853114207386 0.5302069803831063 0.726748019569071 0.09310787300027835
Ni 0.5572011600572039 0.04540215512194224 4.715051490757029 0.7206208236254106 0.711156078668085 -0.144361528968932
Ni 1.804159082454129 6.842850131120223 4.59809751004716 0.5635379904350681 -0.06726031580955513 -0.5329269504174305
Ni 5.998797131379123 5.848389935877745 9.476750575486632 1.1855546938323194 -0.7258771869283435 -2.049871387818205
Ni 9.011295531986635 2.4969230796244246 10.160430141682946 -0.3637177662771994 0.5408935135626749 -0.15557693806877723
Ni 2.491214060659489 5.40250464576281 6.826668516856551 -0.26666016460055364 -0.1897245304847636 -0.06329053252852972
Ni 0.5974224713764121 9.166793572424899 9.061159449063977 0.3421438967611656 -0.05008560380248148 0.6836478459454871
Ni 1.652406449362288 1.182639642016641 11.34883243835225 0.33445347009544335 0.09641713987916943 -1.745240143290517
Ni 4.292736812699873 6.7552603258222 1.5843145801725373 0.0873059216065206 0.9132676699632916 -0.12300337500813008
Ni 5.768609123081124 7.941227198636877 7.80972976483767 0.616613530103809 -0.5253195703838179 -0.11866078176871822
Ni 5.318396614769835 2.7247747537281755 5.159447708727925 0.20312126350664372 0.7698098837555517 -2.0193716765674514
Ni 1.3943642466239001 7.518796158409735 6.927149977877782 -0.858356876858025 1.2489992354402102 -0.7170732154834683
Ni 5.318242071262823 4.4738254397405175 7.2265189325502455 0.14201873976836832 0.6989158278481512 -0.3639162554412506
Ni 0.9032213450200517 7.435288119855751 11.130159739485594 -0.1390285467917928 0.6590084501302521 0.21586467921524113
Ni 4.621087220334463 0.5167225792527924 10.30133291150305 1.609774374149318 1.2254458736003024 -0.6892646779116323
Ni 8.326731431482537 7.233681569560552 4.406315381400697 0.2142543973053278 0.06924906410480977 0.3872808983091201
Ni 7.349725561737953 6.048860136856675 6.982672914550143 -0.2030294751237858 1.6890247724412137 -0.3981054997284499
Ni 2.456923583691752 5.270979030500558 2.3844817693193234 -0.40938235819384977 -0.31207381684866253 0.666858028081658
Ni 2.347634051850255 5.387777558623962 11.488751584204191 0.3064518426761948 -1.1307649996859495 -1.5118120012702156
Ni 0.9764513312782448 3.377084715239291 3.5278728150314826 0.5383131544300083 0.6731600590402858 -0.04428725195314953
Ni 1.5942526367529004 1.090922616001929 2.533168986495597 0.14578463456870375 0.07069916628777502 -0.5561668947819777
Ni 0.9950147337088168 3.752434530594771 7.9433553536363855 0.129345515176074 -1.111447787414576 0.2688394316400596
Ni 3.4954286784328206 3.105288140376782 7.079908052844658 -0.7137534070816159 -0.7985712721589602 0.1083059208969554
Ni 4.322227350155689 7.241008749951856 5.656175085411647 -0.9300770282111467 -0.9317857833721372 1.1768299123648118
Ni 0.8881560803246825 9.048340519697009 -0.07400815826997413 -0.9177370185885548 -1.3192428022478053 0.8555852276501589
P 0.3137460462218993 5.866362436663857 7.913977542032743 -0.23110052232838912 0.287967153608446 -0.6742831169011355
P 8.61891865847618 1.8871853088980148 7.970218651472988 -0.4662821567046873 -0.23601364335929031 0.2685684373668601
P 1.9553844494632213 3.4944377818290335 10.266832437181666 -0.868440229235956 -0.1598208009467957 -0.24295330790191708
P 4.029712854558962 6.207449047435191 3.8332962388610268 -0.35372723072339085 -0.0795609875537791 -1.2007398862131902
P 7.204200122899267 4.281564226222316 10.471241679430511 0.19465950589253572 -0.24649963049227872 -0.183327111598852
P 6.2052308935698335 7.952808870868292 10.32065266803853 1.1964615705528103 0.44149929333305254 -0.904244640529075
P 2.6884479387856848 9.026786245866017 5.559525394284874 -0.6531573906661139 -1.300395073413683 0.049637717631785476
P 6.871413407533963 3.9610682650617783 1.363127367538842 1.2274613613684346 0.757541865021476 1.949285718383643
Ni 5.42039532939815 3.0134983880058286 0.2559476836786406 -0.7576362245074952 -0.2105895468592309 -0.31149223331357967
Ni 1.4393545887536265 1.1232040273785018 6.977204801640258 0.00030133329050270683 1.1290220488529137 -1.038894598637198
Ni 6.846722809590068 0.7482069348507918 9.046776903037822 0.3505830286674543 0.24566350774422854 0.4194793374185356
Ni 2.6088489418796663 1.6882969061673312 8.968555161503122 0.38206515843613553 0.44537805956216847 0.8838611917767165
Ni 6.658079732294866 1.8641128723804867 2.2890302449116247 -0.35552751715692316 0.9348374257142673 0.7142812545606279
Ni 4.214765068014753 7.101565052653842 9.96848801505275 -0.7696659019785196 0.8539700606442389 1.1426643222266966
Ni 8.25371416981635 7.3818342480184524 13.605331275037722 -0.2560062844311333 -0.6662887858417493 -0.4529175624723232
Ni 7.455533319274402 4.0039586336550395 8.199694850559277 1.4301578786328337 -0.7362940113862932 0.8670739450160486
Ni 3.3965753787119386 8.522947140621357 12.056062616858378 -0.08998835353469019 -0.5678317327144157 1.1025556271312689
Ni 9.43515382695501 5.2401521462488105 9.980356047311865 -0.7604916916784193 -0.9769274129057819 0.701278928763689
Ni 8.658136346079258 2.7322928408046114 5.5486946216816495 1.1079739699333628 -0.9154939881906492 0.4348113397899157
Ni 3.732643870902628 2.819828101335453 11.260259009086065 0.05465393989945425 -0.22038776389657527 0.34071873427886484
Ni 1.242729793860951 3.301058400583623 12.691670061579243 -0.34406245394011714 0.7905484018544837 -0.6009858508688811
Ni 3.4893196645085576 8.657681806352752 7.738759750099673 -0.6085340955297842 0.2939449684584357 0.4877943197448503
Ni 5.88673490720593 8.07538005351834 3.652024886850327 -0.5308973215819115 0.14012615073134577 -0.22686051610511251
Ni 3.1765326971095895 8.510820020718132 3.2790241328014385 0.6313186975244675 -0.3428362948424999 0.1456949030683749
Ni 3.531128228552731 4.700540764527999 9.250480699631128 0.18519938892090043 -0.6930362291389226 0.2115719653771582
Ni 7.41259749670849 6.393346704782286 11.417315211706796 0.1555352861975644 -0.8795265689571046 -0.30371156092689633
Ni 8.097579773760975 8.923160279016804 2.1933378144488773 1.628393274802086 0.07119538919790319 1.4303828501594464
Ni 4.818575640707503 0.472201322120822 1.348318463249223 -1.2157762117210222 -0.8315847509705032 -0.17896137843098858
Ni 6.126386432609818 5.767409138203143 0.25200500609091336 -0.21161901656500978 -1.1000958527368667 0.7799533999474567
Ni 7.908227614492422 -0.3071688563793337 11.432389567196697 0.4767951404208692 0.978762666342308 -0.27367413402454155
Ni 0.2932608498276529 5.190289138250922 5.759676508375796 -0.19209225938599175 -0.4929668650847252 -0.6001366154947084
Ni 7.211954570633487 6.149949772031974 2.5537650905831115 0.3831661048097982 -0.2326634959401348 -1.2145567374916244
P 8.694799520419364 1.7052785103496568 3.2900803571090105 -0.37119581982179944 -0.6601898720328631 1.3981594713493661
P 2.010265576041754 3.182968979636938 1.5106836898755645 -0.3948425127064619 -0.19580750345404987 -0.2820312477399853
P 4.712040619608643 1.5853800212914713 8.081051800225705 0.7920105882223071 -0.9346376509986355 -0.18602111349124736
P 8.883215327851312 1.6309067202984766 12.415718084537001 -1.9069728165480448 -0.225093911122993 -1.9051866711818994
P 6.395328497989859 7.96816322282972 1.4827285876158915 -0.45995312916286585 -1.1396928983031984 -0.813433019762141
P 1.7581323897479655 3.4065752526951067 5.708118976277487 0.14628497124388998 -0.1771099270445466 0.370443257926491
P 7.199418364976407 4.2528736786851535 5.884334028370517 -1.639549034308589 -0.48192551966889907 -0.7524724209183685
P 2.7241383981110645 8.77125310241795 10.027070913163962 -3.149669249698679 -0.585589570918469 -1.1210593423624113
