# total energy = -340864.7663109548 ev
CRYSTAL
PRIMVEC
9.27354791696284 0.00000000000000 0.00000000000000

0.00000000000000 9.27354791696284 0.00000000000000

0.00000000000000 0.00000000000000 13.57277476106229

PRIMCOORD
 96 1
Ni 7.365311477581677 2.338538418736438 4.381101352285192 -1.0750805616394519 -0.6988320098850933 -0.32271664127448935
Ni 6.891154968558133 0.1963599599719601 12.646596133815928 -0.705847521970978 -0.1874565603861933 -0.9157505842861454
Ni 2.0369255437221274 4.649673503145387 11.614046842549294 0.010487015574252906 0.18945379332188017 0.004781223438727249
Ni 0.8975728001882508 0.5415585105663742 7.433469273286161 0.3244408230544477 -0.9664769069964193 -2.04597796630107
Ni 1.4634122414719406 7.563570660183169 8.307868404387792 1.1304554388653305 -1.1862162386757182 -1.0649144197397273
Ni 0.39082997086238297 1.4291835758195661 10.71343881010203 0.005612718201087108 0.5824093734182744 0.48226696216871784
Ni 1.8792659542460999 2.9860175398008586 3.239441350009969 -1.734376718213452 0.4422050611508255 1.2548166134529355
Ni 2.203014788326306 0.8829762356429142 12.078643250944001 0.21392015389436062 0.22526771769669593 -1.0195989836323796
Ni 5.038884312527709 5.961917638738337 4.550584715455821 -0.34284272260040305 1.1471850929151857 1.5723997901556017
Ni 4.417343305207447 9.232382716213344 11.812725189520195 -0.27425957421436636 -1.9734743998147044 0.8390018693701808
Ni 3.829771304195679 8.74249826978898 8.724199704883732 -0.5501312301108591 -1.7828235008609294 -0.12286324988584
Ni 2.0147153962722664 9.049387793612881 0.526374003078106 -1.1483112360998287 -1.305818044201467 -0.19608569681610102
Ni 3.721938488100905 4.46813452758026 7.065932600279545 1.427039130498194 -1.5260494850258361 -0.31845272379181283
Ni 3.609060861896435 3.0917545340485892 12.012041556593205 1.157905050435851 -0.98730849902979 0.46333618670248594
Ni 2.5322442892720103 0.8102892390972966 2.569611123566152 0.8171999430037411 -0.15557128164182238 0.711182046810014
Ni 8.850952413599469 3.559744133654948 2.477303154171091 -1.0307406020714958 -1.8125071439682916 1.942767714759467
Ni 3.7454005645301947 6.195611048231654 9.032627710320133 -1.2207399834842008 0.22242793425505566 -1.4579605026673987
Ni 3.304721563771368 3.621515236854749 9.206073660549354 -0.5774867393056764 -0.8351184751553746 0.6614317148597642
Ni 1.8849784598114923 8.905981647406348 4.449183104896112 -1.403771675329821 1.995093777856693 0.931399346566996
Ni 0.8330975303928843 1.7874114613480323 1.365638442888175 -0.7385722658975087 0.5756334881470216 -0.5324713509372507
Ni 4.563856089992563 7.182789505928999 1.9781507238797582 0.2822901578283267 -1.5347855793472536 -0.9485915420755663
Ni 2.1670797898427105 1.9846041859300123 5.617092812128152 -0.3499263689200619 1.3693841989888869 -1.0293239242296273
Ni 5.7763168491510655 0.3669784054172714 2.6860525742653953 0.6362729562059494 0.1378396686900142 1.6513228870150658
Ni 5.439130644024993 1.91477436952189 0.4562826726165033 -0.28618795022083615 0.6179327631358649 -0.8889427200646819
P 5.523260271442588 5.9918433781206755 6.842755394213428 0.4448041893365694 -1.648450193452961 0.7477153658493574
P 3.5958089618104845 3.732547427008062 4.268569629420964 1.3482278766262459 -0.4728268998017405 1.2894735414051728
P 0.10271752702030862 7.837845115705961 6.715008561152545 -0.7048293651191088 -0.9559024739146827 -1.1274261651207036
P 3.9888497465150583 2.0386226030053525 7.621873456432554 0.13952399837097262 0.006836306195543066 -0.1164159515985995
P 4.315176626938087 4.798857069753283 10.667169369731951 0.12921644579737748 -1.2759482532252284 0.5129636199216262
P 0.6716849360429704 7.624896633079173 12.92152622918202 -2.099480309094585 1.185995380914164 -1.0159220490014245
P 3.1819676089514064 4.778112142886753 0.5528054695756398 -1.3870368790736436 0.4222784974302276 -1.2228644860263713
P 1.0527795362193977 3.3729285092802312 9.985029435678554 3.160238797684409 -1.1501089514301999 -2.0197915377136892
Ni 7.260724403285422 4.622158886241947 5.139440175510204 1.3354232686624097 0.6614967637697445 1.4523182167799569
Ni 5.344123144808365 3.0069293905313126 5.7480297456995775 -1.1082652759215366 0.28982966073848154 -0.21684144130621366
Ni 0.13732826285010855 8.57732710643638 10.016096748819171 -0.6897531875122767 -0.0752145376596253 -0.06412665527657987
Ni 0.9273399618998619 6.207221530322354 10.29215358026675 0.14193183648151686 0.26737133173496536 0.2580865639989297
Ni 4.3885674857765835 1.2880679959679866 4.3431929427880975 -0.812886917450684 0.3285255346467826 0.37255696183538417
Ni 1.7349139061439978 4.529989092712023 5.520007110805673 1.4724797793294961 0.10881911308794807 -0.6315968908865187
Ni 6.569131014405139 8.33422104572736 1.0566976102476089 0.1710261827443119 -0.8246381444493411 -0.7694782114477458
Ni 4.638081568150678 6.776626650810415 11.118423924625151 1.077226661448177 1.713165117132843 0.8616635726337548
Ni 7.615446887671487 2.2136886420694335 11.581540274759734 -0.3190026827580119 -0.27222480317252473 1.5274360809607177
Ni 5.118024771123581 4.75472425484143 1.0271743428482867 1.498434037301413 -0.5966144612740628 0.945102040865069
Ni 6.600874369194647 6.160955799371474 13.57253022583963 0.15696147712112968 0.42388620823697964 0.2669460712720887
Ni 9.045919486662465 2.9547842301511174 5.720884216006371 1.9044585347666232 1.378621915537071 0.09791917834599265
Ni 4.287216879730851 8.140598637123752 3.937529931906486 0.2912555945517306 1.8257992330915074 1.339910615009802
Ni 0.12043185840182188 6.96842217045886 4.4828164087671585 0.26634726134582515 1.4137619537733135 0.5904129604490412
Ni 7.1249132928874195 0.6525545338825035 9.964384663130378 -0.09941813148902233 -1.0912317174780173 0.4786195952241177
Ni 2.5596290765035086 6.9512475595706995 12.39844526299721 1.5558493419960884 0.5617680430188389 -1.0260339406244456
Ni 7.087633629944438 3.383296335939498 7.2293213877073565 0.3629580052930394 -0.7376746937839038 -0.06177743831811296
Ni 8.892729747320397 1.8358564760779168 8.594892133695163 -1.8881214881694965 1.7744561027328407 0.2511895797687803
Ni 1.5173842908073019 6.657396644228845 0.9573667829553544 0.541003556777978 -1.2850206478401416 1.487508905748477
Ni 6.0153054545499645 0.9675741772342946 7.771513281601841 -1.24159291567381 1.2207006456058331 -0.992445048925407
Ni 7.383487631653378 7.61548398186347 3.1511367712846807 0.24218557649795713 2.0030346299703248 1.4929542451337643
Ni 2.8817921338764383 5.501272689144625 3.169514161347891 0.2675091428644103 -1.376954555136977 -2.461652842371851
Ni 8.10967135455787 6.5896626496677655 9.096433429950205 0.5219660805305526 -0.5142442864062627 -0.039615043288460806
Ni 0.048934658064060936 8.660223351970538 2.1532668401030164 0.7653063394582432 -0.5373099099764748 0.6445313395599996
P 3.126836366116574 1.8288827679851003 0.27117338107300715 -0.861130325838104 0.08938928649811058 0.5401450654324246
P 6.133051693452212 8.548310174757628 5.23854843765056 -1.3451317541994252 0.0402436780113952 -0.848777717810022
P 4.7161926629190205 7.376105887448748 13.376050637098524 -0.15766621649763815 0.7402977332290476 -0.731524872132424
P 8.058991414761005 4.792662339692111 12.790453901809855 -0.03998322526115695 -0.42822031683595924 2.0918932407759456
P 8.01876276355537 0.7094625885133247 1.1187738131764706 -0.9134368485513044 0.6081335176572559 0.09575893746988025
P 2.274838417553518 8.010453664551164 10.281390700462861 0.9741974155691288 0.36357301316921903 0.6780094167127871
P 0.545276275957877 1.359594871659334 4.161453658586263 0.31238723432402327 0.6165086290948285 -0.9029907135173159
P 6.396596653943902 2.3399387244837992 2.500010363793525 -0.5714639301503642 0.9749810878126886 -0.35405838881056445
Ni 2.282331444334097 1.2520680826484207 9.1549318980623 -0.1628009666210422 0.5396573271627287 0.29138774925422073
Ni 5.9211696688449384 4.312644948335243 3.4882571342199826 -1.0268332965972897 -3.1540347257562265 -2.0797977430639922
Ni 7.25805362146264 3.2736088102455714 0.7813668976080997 1.430060690933337 0.8628334245721399 -1.1680891900577044
Ni 1.2999195903065761 3.346786377480165 7.5178919448204224 0.7433624881973004 -0.454090756844818 1.8904874172985118
Ni 0.7341033328928759 2.891241879284125 12.661797333690588 0.2071499250500626 0.05203321444715555 0.9668939399291798
Ni 6.106010027496557 4.111900454870884 11.986497568638868 -0.7169258912723265 -0.0037671803519160924 -0.11563587889946536
Ni 2.5660000039766 6.901624804245352 4.776815700876946 0.0391293619012939 -1.3871651771213918 2.797511934565569
Ni 6.351749775836375 2.8780827146781323 9.61903959047763 -0.004063371436096227 0.7065036674977381 -0.11504683916521477
Ni 4.661534371031972 1.1729276240525492 9.786907501587397 0.07973350857590139 1.6415424105895342 0.15046378521192796
Ni 9.079146609131296 5.186890138540143 6.9305165430261635 -0.3541481203108933 0.3792300029801856 0.5022830002793285
Ni 1.3260988162986251 4.279575476182339 1.275401256760569 -0.026304185112167602 -0.3575000675022617 -0.5720689107242147
Ni 7.773755625507218 8.887230533358908 7.89499799200387 2.0417963241195545 -1.1571182928684975 -0.4376146135666657
Ni 3.172007818403953 0.25638114466496 6.507412770428914 0.009158783681132614 0.716978598887133 0.9427559092303957
Ni 8.778943313412341 4.0479037001521 11.044913437017508 -1.4506634547853534 2.238772136850093 -1.8381945214320665
Ni 9.20362544387847 0.6120346932698012 12.987530707041888 0.8106330884195007 -1.099972696895441 -1.2523313851372366
Ni 4.328725280559902 7.727480621008342 6.442874440507176 1.011659931290961 -1.1666154337256551 -0.08138312836418242
Ni 8.042456678684553 0.008428727773352218 4.510870746163952 0.768723078449276 0.3795989562838301 0.41553269406596177
Ni 6.010232823796281 7.51174080043483 8.507754167307741 -1.309732291654209 1.4543815270668887 -0.855849794165455
Ni 7.411243360804708 6.8338444419442945 5.991077383056226 -0.08489859771660863 1.1077515695099114 0.5203660830332845
Ni 4.2294983170052 0.1060949532003668 1.0140856572070618 0.3760230660071137 -1.7512513824816032 -0.604494892463404
Ni 6.006514131049977 5.316942375632773 9.129320213207592 -0.262675983141825 -1.2850191051782451 -0.07675077179849361
Ni 3.968512855760342 2.796262200711484 2.2330879771217775 1.139189990524851 0.12102208291204318 -0.5743700480535656
Ni 8.223059025902108 6.6774924227356705 11.694139694524331 0.4206088230372885 0.8184129894752356 -0.29021301221982926
Ni 8.879023443382655 5.7442303730857125 2.29882074002537 -0.24293453884883967 1.759592812467763 -0.6100497608433623
P 6.666642371580624 5.980993326965629 2.4675983861935213 -1.8781036989221782 -2.6232284212262242 -2.3645461326248247
P 6.590154147711542 7.862253094030818 10.568482126670602 0.8365238401433335 -0.06300411163636246 0.29092700756771833
P 2.5745965829686757 6.120597318493898 6.850450584340314 -1.1285499943125017 2.065615280916023 0.6494462603631137
P 8.139754744256138 1.2231531599976206 6.34394237577874 -1.4321761946144433 -0.4865187954665363 1.894778074254066
P 5.432416595276059 1.7799926229514191 11.742717320990556 1.5338746374972099 1.210475368333399 -0.3058879997529248
P 0.11847977654871303 4.907524505167675 4.297913917343968 -1.5353555929181106 -1.1762624698971162 -0.6284866273923111
P 8.055931143922402 4.20892958755059 8.913010069432339 0.14176831432045908 1.3918304438075448 -0.030501768133282953
P 2.2653144837618657 7.749542391690271 2.6537490971769424 0.6177018780719813 0.39003403557422506 -0.38235209354893507
