# total energy = -340870.33827868005 ev
CRYSTAL
PRIMVEC
9.22244964176203 0.00000000000000 0.00000000000000
0.00000000000000 9.22244964176203 0.00000000000000
0.00000000000000 0.00000000000000 13.49798727021781
PRIMCOORD
 96 1
Ni 0.5216014592048845 5.248643618684727 3.034887742264595 1.040630093271066 1.5422590049061633 -0.5871695138110792
Ni 1.0718884256026033 3.0982911609245796 3.290066466599306 -0.16268783808194562 -1.9966037867433162 1.2813943639414642
Ni 8.802818907553036 5.931141777859913 12.01993026445596 0.9048889589812933 0.501886021951226 -0.511985315168757
Ni 7.24440015403185 9.861011995520172 7.711831711102426 1.3982144929570177 0.25498941313084467 -0.1455159542883494
Ni 1.6369294668482826 0.11735198200422356 10.914688849924959 0.18798055121046334 0.11052761113862254 -0.7211882660931064
Ni 7.376880642337232 4.459035930015723 13.291751252392258 -0.12338724071011008 -0.7885334283069839 -0.0421339530555726
Ni 1.070228384677092 6.359764344826913 7.748087927160551 -0.5321527912555674 1.1133884560807148 0.6341283990591208
Ni 7.393278157701448 2.1772358983038442 2.686909041213972 0.0502360133374167 -0.26227514815898056 -0.20362751371910096
Ni 7.355152551112207 1.6691250383536143 5.332703479927823 0.9086337707357061 0.045823486092017855 -0.05178741698493661
Ni 0.2346071282877923 1.2051343772236385 1.7546844698994217 1.406874739735177 0.6572241045363196 1.4923862884454362
Ni 0.27184737971676093 7.764103633111899 9.730887843084057 1.6536875305925003 0.05930635106980108 -1.27380832406409
Ni 3.3945254640820592 2.873761403299599 11.75662563979087 0.29976568890527083 0.5521541740781587 -0.8594673363133843
Ni 2.5430351386898304 8.649311234191178 8.470540504677915 0.7789100462846069 -0.8013118110185748 -0.06801159215328287
Ni 4.05596877085201 7.4673252054288355 4.230930628686184 1.779550743646929 0.47146061558183316 -0.3665842891917171
Ni 5.199386515444975 0.21171055270019928 1.6476994434750158 0.32204301224623244 0.5176381425791601 1.3165518856792036
Ni 5.484212648464358 4.634926488523225 1.1655562348245747 1.9004928652506559 -0.9766199089676922 1.3017618718542225
Ni 3.057574046001623 8.890192394932445 2.6204723588850953 -0.01644863247432651 1.48505607333261 -0.5240432747745556
Ni 4.4920615219838105 9.070020939413242 6.32102636758515 -0.4353929233249985 -0.013507804678447706 -1.2894447450497666
Ni 4.515772439869862 4.645569195345669 6.9459828970573225 -0.5963632644952052 -0.07214104094062414 0.22456400676145197
Ni 7.945619885866966 8.92293209096336 1.2512576920940093 -1.9073960201283926 -0.6712481867295537 -1.297627795081191
Ni -0.20159075876929106 8.851780892406031 5.700078836948087 1.1681444687756721 1.455063897845894 0.4187756264832917
Ni 2.7335801695897612 1.3004945059446724 4.639541402296146 0.012731845744371618 -2.1431029308805414 -1.52419700519813
Ni 9.1216758795454 3.287738720323756 1.2400450378871395 -0.07856699907162598 2.0204458834682364 -1.8405455381627465
Ni 6.744340492570348 8.256600885912738 5.75814706852247 -0.4725235096287088 -0.30676217482776197 1.2019357062935043
P 4.5681282861705705 1.105467364545861 10.409715467323945 -0.9151733716264367 0.04712832094637044 1.5454664560998674
P 4.87238612046802 6.403985990592615 9.847955773641027 1.0480587816349691 0.26748934537006835 -0.2297751186487462
P 2.040153407654961 -0.2263124571299878 6.289994669217593 -0.2014986403015562 -0.30374627081957367 0.36224992348242124
P 5.406753294390087 0.10191360139696909 4.287892166310225 -0.6370908241215545 -0.01880916228670309 -0.2693287125716523
P 6.4623640964730935 3.47111790789523 4.2573870698140395 1.8092397860709293 1.7301032876490785 0.2720831353883379
P 8.070584077759618 7.037144044481772 2.803154329267855 1.6641385507224953 0.26240164643451586 -0.5091730425309425
P 7.056520411062323 7.211835684543071 12.387399690462 1.7693774026583526 1.0944692505787088 -0.4455788627190649
P 3.8608862947556815 8.123806834321424 0.09179472971101948 -0.22603853442444946 1.2443843623760182 0.998581500840448
Ni 0.7092866084881432 8.374620573267 3.3733765426910463 -0.26373244943079743 0.3564106910928249 0.21136576290362308
Ni 6.449572558897071 4.989760236351251 11.013169855585954 -1.5805491587356135 1.2453428696345457 0.1096945737143659
Ni 5.077189058428177 0.843422526494244 8.33904312949842 -1.0571746278933085 0.8461551925855105 0.35575814511049053
Ni 5.90825165798703 7.693367444785949 8.305014135015355 0.37967891759214606 0.5074375478970744 0.02692536363593427
Ni 0.9660977063996069 8.45029999457114 0.988157805809734 1.0768782769698229 -1.1104946794726873 -0.035260622974507015
Ni 1.4093655233094509 4.263861229423533 12.524350300081801 -0.19550077084690845 0.9412091335685662 -0.03823590355274705
Ni 8.50421443485191 4.145472644085824 4.966827693210272 -0.3546620838328344 -0.8731317211743542 -0.5224628176613131
Ni 1.4662680372561414 4.563858292012172 6.356323448886312 -0.2570151853116219 -0.40428746016944567 0.20417772979561613
Ni 4.386095576238677 2.126890546012923 0.35413191941451827 2.778236888386041 0.8547696737273989 0.5524629635678292
Ni 2.0133345242583682 4.037367090036698 9.959165604220859 -2.7123587976359937 1.4208355727906432 0.8019291328875995
Ni 7.462935319425817 7.040962138610448 9.96519985298509 -2.1080590519025306 0.17444780683135117 1.0152571617239161
Ni 3.346854622171128 0.6594051454114065 12.392893503680483 -1.119443661135859 -0.05816375282492564 0.24744399668341902
Ni 5.317498427295099 2.553779292457723 6.306340538864128 0.8844021518818511 -0.7460017255923603 -0.2624502402842641
Ni 3.438950003738657 6.275019255579565 8.17411068558921 -0.19029557249688517 0.22360189995849877 0.9109986714234568
Ni 2.3752880031669203 6.757482483230646 2.5423323880313644 0.2745511373128562 -1.3979393849187602 -0.18188395139442226
Ni 6.453888665303401 6.670994351011511 3.9939330414656555 -0.9194630001407262 -0.02123936899475052 -1.2718648271844741
Ni 6.5785116265613635 9.471640173991927 10.199119908778714 0.40764454956713664 -0.681930091923432 0.22457866204947127
Ni 3.567289612179848 5.449942025802137 11.315538009963198 -0.0795905552401339 0.08749438346824286 -0.19763761468425317
Ni 9.169051603069574 2.9810553817851417 8.930254715934781 0.24527372850497756 -0.5912907350683042 -0.19463662307440027
Ni 8.992727589431523 5.225781166160603 9.745331121380962 0.4908181941728385 0.3489130971641991 -1.3743759957765234
Ni 8.351776565642048 5.112677044435772 7.090398157372173 1.7512269570015708 0.1508247680957725 1.3695256096627575
Ni 0.6828735128733423 0.7304401411039495 8.077667841286758 -0.7184487556747562 -0.005709905900583714 -0.3151755957024378
Ni 4.765175144028753 4.835385652728293 4.403731666582317 0.9455535265801909 1.453944182419154 -0.987882626365705
Ni 3.509400296127436 5.059297506230999 0.40512560991134755 -1.1851152923020558 0.38491239807694355 -0.85367644066322
P 3.0463964371031813 1.8964491982032052 2.460885246756031 0.4093769588772111 -2.4543359969954635 0.2300044610507329
P 2.380222013695523 4.945289584446722 4.442174525437323 -1.8021656528329673 2.0348823706085404 -1.181618334892391
P 8.294560488409427 3.9653397587686827 11.314376903560298 1.2417795777633196 -2.6043922623563276 -0.03490761051046246
P 1.5783576895264944 6.277324867976108 10.79018301377674 -0.5700850475249666 -0.025460606164949696 0.1369436392383061
P 9.426542395515538 1.2582003521424807 4.086057012626901 -0.9144578336166509 -0.5582134928983612 -0.4316087736922179
P 4.960386734419289 4.210601583063381 12.519248440970731 1.0331101307449368 -0.9572800709884997 0.20985652534794827
P 1.0490259730784792 0.9618646020395533 13.125334916344634 0.07288923196055834 0.18121135080742984 -0.36721292391465143
P 8.742227413771877 0.6564871623623412 9.95433396288266 -0.16469252721680022 0.38110665117760817 0.3432222174270089
Ni 2.5858365272192616 1.716731323117442 9.380439370034257 0.5630201702583851 -0.7000607400858717 1.1957429472192311
Ni 3.1674964226192257 1.6361178912846992 6.930932781577646 -0.41032132506835145 -0.22867905737109 0.8664643364565077
Ni 2.035994082891597 7.119482074387129 12.955192710664194 0.48576571935059565 -1.3607532627867662 -0.9582226374074271
Ni 5.630268582560588 0.1009793672538897 12.760444087242885 0.8612223713312781 -0.8600054682050415 -0.7042945756615612
Ni 2.518798541177367 6.740319504550777 5.6629999783868765 -1.0778624952599631 0.380040671806939 1.505108621108111
Ni 9.183908969352899 6.627722617553185 4.9504135774368 -0.8038026957612285 -0.8826710281233572 0.48635964418085265
Ni 3.3536146777177933 3.3575987759390205 5.201543646403182 -0.690507549179798 -1.4533525715817424 1.43444107938922
Ni 4.000597183536624 3.6578909569144162 9.24208510358744 1.6629170196105683 0.8149638545843706 -0.22773032030457555
Ni 6.44603113825598 5.192137670070243 8.429425902177796 -0.7305853910372901 0.0055057603095776154 1.190455987788679
Ni 4.964509169384308 2.162461534066794 3.666835810768046 -0.93428669541712 -0.9969617058488379 -0.3701416675256722
Ni 0.7756854787737167 2.29382610597225 11.345381856824055 -1.1326647878118234 0.11238986115834192 -0.20254585061914793
Ni 7.369216786731122 9.113486344312877 3.5257553882235566 0.6752812191483467 -0.6982640531967651 0.12413388906814748
Ni 0.9662729329417442 2.0941969622299377 5.959361551348645 -1.3355770206314548 0.40610343033226187 0.46078873769028383
Ni 3.096566562851965 3.9418501796726986 2.612846315322288 1.338193118098063 2.5190992574147777 -0.4455585510040907
Ni 3.6299930469162414 8.009393124755356 11.021066116921636 0.5431203460106647 -0.9465973944636729 -0.6109858995043865
Ni 6.407287627544465 2.6481065068251053 10.61904201680612 -0.3678040205314311 -0.23876240974902105 -0.08276355365147682
Ni 8.488610050152106 6.459449802403864 0.7531974577027912 0.43376310103105936 0.09896664577390053 0.5517453686755143
Ni 2.2707515371076434 2.65462677868253 0.6940963117747568 -2.3437654484340475 0.34570461752923043 -0.9852834981799611
Ni 5.16874031547012 6.609628171465112 12.983646734372416 -0.9737868103942714 -1.4758594944350067 -2.1786564025051187
Ni 9.261183874435446 8.265814113049325 12.138712648390996 -1.176436276470819 -0.28564827566728224 0.983697384639764
Ni 7.853635173694472 0.9437424886027223 12.259155073251549 0.4633480137770278 1.014015833117647 0.164236156405672
Ni 7.688138315870588 4.519701203393573 2.475989774688266 -2.0478535860572284 1.021129561344293 0.5034471957907588
Ni 6.071719576901956 7.326461510449621 1.331839767598159 0.8468465622255803 -0.9745463142681151 1.9932472115662572
Ni 6.446944160765012 5.563820833292208 5.937048756819856 -0.2480950000038566 0.13779775970848526 0.3492599389806566
P 4.790361653848593 7.025791209041192 6.637823966584921 -0.2851469105508315 -2.1672630730665126 -1.4891243298647128
P 7.831362957943863 3.026457501097874 7.1302040942760145 0.1353644676766443 -0.9559212429677602 -0.3498754610774684
P 4.562696263364314 6.057507782089663 2.5053614321303117 0.14729695744817214 0.5084119959952018 0.2532050675369123
P 6.717530831623342 1.594552310999815 0.641105960942521 -0.17399375001306808 0.03312943556411714 -0.3744328387018584
P 8.338311789246236 7.326941077828102 7.133821139003712 -0.03217375651906717 0.08198399517297493 0.6125758696993258
P 5.794870862774613 3.058717629750309 8.419855766242224 1.106423080506475 -0.4375526499804787 -0.7495017683258189
P 2.1792648372128025 3.1959292346933985 7.906972288631148 -1.0358951496892417 1.303899744132832 -0.29262727808827665
P 1.5985364092210421 5.404678243233198 0.9791576172585872 -3.0594926914125824 -0.30241006850665336 0.35869614469289196
