# total energy = -340888.91668679356 ev
CRYSTAL
PRIMVEC
9.13655085612277 0.00000000000000 0.00000000000000

0.00000000000000 9.13655085612277 0.00000000000000

0.00000000000000 0.00000000000000 13.37226571465313

PRIMCOORD
 96 1
Ni 6.400245268036141 2.206906459234452 11.297639379629585 2.4183775766229836 1.3913802436440037 0.29477106390415686
Ni 4.6616966808236 0.8414471005428487 6.220991621390543 0.6422286595687521 -0.6618868001193117 -0.618643158939328
Ni 2.9460625632577946 1.9030430495410198 4.942416293442811 -0.2736401954628126 -0.856885434518821 -0.7816403007315763
Ni 3.441172256302688 4.941138089972485 4.87941977501608 1.2666416311123219 -0.3790325422573988 -0.7038168646941942
Ni 3.890032728712903 3.0205437261605805 2.901514568399919 -1.864648601858537 -1.326728054881257 -0.1990607202840249
Ni 5.260634138248678 4.558179559173874 2.4459076668082247 1.1190968193194017 2.385455371973666 0.43692812902260236
Ni 5.567987710384316 3.0602146301502637 0.27255793170396847 -0.33489492850823616 -0.32903872683777524 0.2850818616408509
Ni 5.710125032670705 8.127354893527105 12.44361503077108 0.4033752327678214 -0.5854515026787078 0.10671929313612588
Ni 2.156417878984109 6.798745071908554 0.14398016460207727 -0.4756949653781549 -0.5858034867014879 -0.6566947143954109
Ni 0.49009189929290525 0.06489874832324209 0.14507563705448698 0.25320378198533167 0.5846878850398058 0.17543691021749785
Ni 8.221004540209337 0.138506456960387 6.841545244580059 0.07495717023318058 -0.44514203229196236 -0.23375518634241677
Ni 9.130484226032697 2.601294815203743 1.5469304462396192 -0.9991175758495761 0.214000886533625 -0.9023314826667621
Ni 7.280853453028685 1.1921919801929506 4.663243498890264 -2.851210966750922 -1.8708727283913777 0.4031291781952863
Ni 1.0543031540731216 7.874637895748516 2.5741610863533144 -0.835493084885974 0.9203207201553312 -1.0244100318677776
Ni 7.852545715682406 4.073759630677099 3.6644156545464277 1.4735524435683849 -0.7725424521953662 -0.09985059104075061
Ni 7.782779013041867 3.842979491599391 12.704454422296061 1.3155638107343213 -0.6608159356526361 -0.1922655517390624
Ni 8.392735150847313 7.4031005040148585 9.05528401657441 -0.8838917879043358 -0.7806110881361137 -0.14009529749341032
Ni 7.117080778220977 0.9375471701753417 0.12175824551324554 0.16799870877189776 0.20788346078197745 1.0235685098030887
Ni 1.6063609688517084 6.923970638486766 8.980225423655009 1.9197013198583066 -0.7223504047220075 0.9977934577215138
Ni 0.5341282473006148 4.951133476652521 1.0080868250216677 -0.8739521601931207 0.17297122228582468 0.29851073345224716
Ni 6.681587079771359 2.177386263290033 7.116840486932417 0.31081063386552277 -0.15329636956471662 -0.17925088464694935
Ni 3.883034130726699 4.7216964105565 0.4395439314617394 -0.9621358564189041 -1.0038406923568581 0.3369404981833552
Ni 6.431464862447184 5.663519486551088 4.634171907594831 -0.44833765641112466 0.9541978325187502 0.28347389372378273
Ni 5.5610713413561745 3.158578737094743 9.234725876168463 0.29170656604622014 -0.15709620292678106 -0.5118816997113571
P 0.5525347427353489 5.733450647107753 12.309410975627538 0.12992478471831173 -0.3560839038810254 -0.32638740525785725
P 4.153275033123486 6.309427952131616 12.4963420659909 1.2053231347084983 1.416096001223129 -1.0118576491240638
P 2.4847946547310458 8.716671562858878 0.9760230133078506 0.42048181054112094 1.4318092981933277 2.2383450766150035
P 6.621413755571438 8.172928009395493 5.488245721475712 -0.06331212979508452 0.51383470967267 0.13847421695021958
P 5.154750649916933 1.1512693687305393 12.7297014533865 -1.9866037381078108 -0.44209758903868374 0.7062684115584804
P 4.507142785869782 6.6046847308811785 7.8724533464293245 -0.6897881545152701 -0.9412690402722241 0.40751496596780784
P 5.002325571321842 1.545146077849664 4.093196729052883 0.27805015160505014 -0.9710835525304953 -1.1965137639469843
P 0.2632441317207619 5.8985115755917725 3.2459168544181374 0.6103940315566585 -0.18834513363873367 0.6237853652618999
Ni 0.8611564681353278 0.28820610242325223 4.768295561090489 0.6473986338054657 -0.20965855040452927 -0.1239755091134123
Ni 1.8582374039478817 6.931919437766137 4.631832036910409 0.781337681889493 0.5033093846613138 0.44372201201598416
Ni 6.278710868019844 6.040383937902183 9.146001744074171 -0.08339424525694025 -0.6483859374193994 -0.05481180563355721
Ni 9.083778177853228 2.3864762305410463 10.183862761155162 0.20692006842744362 1.6245939556606537 -0.23156332089742054
Ni 2.6098831730458207 5.715250637723264 6.937651709798179 -0.23924397737112993 0.27764031776114123 0.4127170789940376
Ni 0.5391835009112761 0.08573099802081845 9.184968219989786 1.3609368395524821 1.1213779020440946 -0.015664446010134312
Ni 1.6923907320868206 1.2247820572383676 11.47702824722844 -0.41126234882538204 0.23624787085728344 -0.3664040548601109
Ni 4.476517067266967 7.1945587298175955 1.1699444787616107 0.018812247610496633 -0.018912263523470654 0.29258202667263805
Ni 6.120822131989049 8.189976813367108 7.763282527085261 -1.0048753042689598 1.0446883225008394 0.22620411346803626
Ni 5.490043794692011 3.3591534389108446 5.19741194701482 -0.28958334905563027 -0.33916321686628687 -0.6733045550379501
Ni 1.1192183481879763 7.870937592635706 6.909061614734956 -0.6817444582751871 0.11275881446198643 -1.0151877419385613
Ni 5.725236887852404 4.882801212502627 7.081028862041132 -0.7916637464058495 -0.10858334292805816 -0.18854902211942368
Ni 0.9220698529578099 7.711879378090245 11.165761490344119 -0.44139747764786563 -0.5672519489515456 1.1837888601811486
Ni 4.834231307940407 0.7791330824680361 10.610932559678828 -0.13592368261422397 -2.4192738631850075 -0.8689230824096456
Ni 8.390487559326939 7.680604964373828 4.473664636077291 0.39601802107180184 -0.6998997890279753 -0.6610784452854034
Ni 7.57623814349079 6.601989448366909 6.777144438280639 0.21297270237942678 -0.7797788220428055 -0.4104336822764996
Ni 2.3630866602477276 5.845218074216411 2.362264370667103 0.4738100896506163 -1.0354812020802748 0.2550243801338382
Ni 2.6644101087921195 5.593003586737091 11.171030539245743 -0.8998963908627082 0.04142972789969639 0.2977229474436292
Ni 1.4336070645134014 3.6358538827909817 3.588193065042897 -0.3418201948731597 0.029784944571916452 0.035623148520248324
Ni 1.8725543792016435 1.358404114089845 2.380035875814577 0.26211728242487764 -0.6859386988621929 0.5965712667409532
Ni 1.5163933521804949 3.9092286221450365 8.328594736248423 -0.8232636326993176 -0.6479915301944583 -0.760537200204374
Ni 3.8019015587717506 3.225869434442513 7.207637702424972 0.005712477003745 -0.5451977973649836 -0.4721951797550126
Ni 4.693345693126746 7.181557417892832 5.636383016735391 -0.868068447718834 0.20352492670296563 -0.0005026506680313923
Ni 8.506119747464533 7.059264684152181 0.13508755961516833 -0.08101777460496369 0.6262351123539731 0.5619752739336386
P 0.25130265969991533 5.90836991400837 7.683958078552596 0.8959983413598827 -0.7922425017274549 0.3392424068436544
P 9.030822728861011 1.9060307016839555 8.039045560843485 -1.2499073490767765 0.15173725260771287 -0.40782246990589766
P 2.2131284503945103 3.546068997137684 10.428588931520261 0.333584951447561 -0.6625311185715299 -0.8255087199797524
P 4.187308685210444 6.294032863872146 3.42360723720546 1.2550405565382836 1.295836507508723 0.018357933681897417
P 7.45523366342645 4.050315241078406 10.291322304516436 -1.5189869217521001 0.8452398798600926 1.2362625045998321
P 6.580354095845589 7.9597357307922545 10.089481276746174 -0.5115471991900739 0.6213600436498589 1.0161452207558241
P 2.7965703175002647 8.850759583806042 5.770346780590374 -0.767913180953471 -0.3817003188975491 -1.1107276214191
P 7.061832054953908 4.020411309996362 1.5005953420265192 1.8269356606887956 0.3580261152090608 -1.0318585177260229
Ni 3.0143400081023137 1.757945484764383 0.2237879366771307 0.3419909161230691 -0.29333613122984314 0.887381289114833
Ni 1.7151133341647435 1.2693136063046309 7.209750986647177 0.746024865520812 0.6444179539105869 -0.790519091278445
Ni 7.384672080857974 0.8967314563584114 9.207245872039083 -1.7177169981695837 -0.37214584243989457 0.14502178826075024
Ni 3.181237383316395 1.728854706712068 9.364437489236526 -1.4706036453527058 0.6551152857234331 -0.7204886689229204
Ni 6.566567040543785 2.2093550548745338 2.6233440534806434 -0.2442756262577664 -0.034144507092192806 -0.6721632423446554
Ni 4.39373991615077 7.296714505383843 10.386412785274942 -0.4194718812193679 0.025335650551311206 -0.5703267312221274
Ni 7.5662701664634415 6.119104460420632 11.417989682649782 0.42667045585033614 0.22610075512095254 -1.2503698905354919
Ni 7.826342087713173 4.096774602383689 8.175535581021162 1.407902666779059 0.17545387949836233 -0.3176996476758722
Ni 3.244279584497605 8.7606366457696 12.339431854561047 1.0466009661425202 -0.7752765632970776 -0.6461927864228225
Ni 0.4020192032774862 4.99727305867645 10.269084853291082 -0.4570593525548386 -0.2003061626553518 -0.2346959529891313
Ni 8.891134002214704 2.2686695432902457 5.686983976561753 2.2059041824774783 1.9557713261079865 1.0038705171535292
Ni 3.925838871673651 2.8373558806992385 11.720282519244222 -0.3446810613607225 0.5557665740197655 -0.7392433238226043
Ni 1.4568595865432827 3.4374536800880864 12.473742807350071 -0.7771755800920034 0.7148396981672592 0.5306091009175312
Ni 3.289724788653451 8.539669162354011 7.8908004542832355 1.1117041263997565 -0.22255957473691346 1.0069558409470722
Ni 5.851631932945282 8.051028147343363 3.2659222462596413 0.6606565272566364 -0.8551586816357014 0.9710583557195147
Ni 3.4521818001321605 8.41468114609909 3.167609304000179 -1.3481489437591945 -0.3628261077008655 1.0403539567915436
Ni 3.729101521233797 4.68852159425375 9.12160989414758 -0.06271409119976941 0.9783579747047215 -0.441738148816736
Ni 5.227651189514741 4.736890494696261 10.981812570193155 0.5868830929189117 0.4766002508012437 1.075007285199355
Ni 7.911860204098118 0.019026867240560828 2.212989574820894 0.6241365779537316 0.16520289119431547 0.5669004791493978
Ni 4.847022479194566 0.5666287861472524 1.8498527911907807 0.30511409770137776 1.2233571093920736 -1.140877919750235
Ni 6.190780702198399 5.576027875172644 13.187367733550113 -0.5517551388675271 0.726640033236297 1.7020294122309978
Ni 7.939580499516058 8.900672561349948 11.5647903005134 -0.024256558554519515 -1.3696821898452798 -1.0220420458562334
Ni 0.35734512401724794 5.216020360224352 5.513973335143273 -0.4604694066776522 -0.7096280720593328 0.10074507783056198
Ni 7.457874126635344 6.097231557576021 2.2954158823826916 0.005625573716893538 -0.6448388434980894 0.293545676137488
P 8.916506204052418 1.6666530682132743 3.449081768413206 1.0369292473807108 0.34990374321224255 -0.6048481620377648
P 2.2165637935313414 3.5694585674310026 1.3675680746383603 -0.3167838207298222 -0.9095048604867497 0.2585393352656321
P 5.008976980374005 1.237682867103276 8.291567036432905 0.7764847246725659 0.11664760799343137 0.3913607248054486
P 8.681130379874109 1.6249447133738217 12.14362186403712 0.857865024823271 1.2412931250452042 1.4077412015005304
P 6.69833437756341 7.700632283937481 1.1304014864844691 -1.3260626533831161 0.9389733022595119 -0.7831423391983996
P 2.092516842018691 3.61971873390895 5.810222343320122 -1.2990537288944402 0.10612356853365593 1.4266102704908914
P 7.490911894674656 3.9681319657704366 5.912627546725827 -0.9684283742958353 0.9980523678098555 -0.3970991699511226
P 2.477019449918697 8.78557942971521 10.119167757916896 1.3534112205993982 -0.07870969529707735 -0.151461630348823
