# total energy = -381165.66613291425 ev
CRYSTAL
PRIMVEC
9.25470833065540 0.00000000000000 0.00000000000000
0.00000000000000 9.25470833065540 0.00000000000000
0.00000000000000 0.00000000000000 13.54520112216366
PRIMCOORD
 96 1
Ni 1.7151565666260729 0.30501852474626306 8.510503823167738 -0.04000842207213755 0.44645020958042464 0.38843429518727296
Ni 8.126189107375515 6.138879335865276 0.6571833096224752 -0.48074718309008174 -1.2075401969644752 -0.012665768393126576
Ni 3.6506399720550626 3.9249680333729966 8.705108125919542 0.6683873202419908 0.81379503108725 -1.9997320479596528
Ni 4.66984247987577 4.85620453947901 6.665078908983973 2.4689156945818516 0.461179031150167 0.2541556043756397
Ni 5.950407202785871 6.78154478468924 7.167659541231964 0.35961120030799354 -1.660128658232154 0.7581938967831781
Ni 3.3448088839263113 3.0127221885524693 6.466289627171108 -2.3771273117239446 -0.5120668191389698 1.050525498007907
Ni 9.121273845551984 4.53208614789016 9.342503943878032 0.20588571362565833 1.2807148213759363 -0.5945796902322211
Ni 3.829746340406927 6.676485336875963 10.556601352288927 -1.4561584164616534 -1.235313767533318 -1.3002001837940576
Ni 5.334996869695706 3.062873452444308 1.3372035372703244 -0.8985259928777428 2.119160304022015 -0.7162718026280954
Ni 7.047386278561369 3.5262104199189173 8.041094841624217 0.3466307288879256 0.37501467934725735 -0.6579347574500991
Ni 5.5520382870774005 6.700547578270829 4.955484422003406 -0.5753799773753188 -0.07165844487725077 -0.9198250114658352
Ni 4.481166743215332 3.7999369252019792 4.50037951749831 1.86234720741887 1.57374807665338 1.4416406824614527
Ni 3.3934053568357125 7.641640348640509 2.6024665255949357 1.1861491328832088 0.5252352382001276 0.6540395361607511
Ni 7.198201003857809 1.7502596749378916 1.3683770964681965 1.0636401810129938 0.6345474888744104 -0.9613992353631958
Ni 2.9314380861789653 7.532295970917299 7.944138816336071 -0.6938970344773211 -0.6507508381071503 -0.36950069150756365
Ni 5.269658629600416 1.8013549190690674 7.033562520880019 -0.18485794642108164 0.08432267060848059 -0.1653604998181023
Ni 6.99540258244023 3.3702315674308103 13.027463150457933 -0.8183952488634227 -0.5732372200007031 0.40230873917652
Ni 8.645276437220385 5.721094042292795 3.006100444814767 1.4177355937090808 -0.5838188521712913 -0.7907607749756058
Ni 5.900172646519973 1.9731037943790402 3.3515564916959257 -0.2539913108836336 1.8264849463046222 1.9162696684689384
Ni 0.41203997070404547 7.446662155676262 8.937814062449295 1.6515869393097298 -0.49306970921117665 0.5373813866443584
Ni 8.299261405962207 7.090726077196816 5.050057359922636 -1.1221376630282545 0.9059605947789171 -1.2312226281830798
Ni 6.158027327190653 0.1334630728382719 10.501283184792955 0.6982799940363651 0.578093776762056 -0.9838773618610539
Ni 6.2898143723686895 5.765164962878315 2.842081101817483 -0.5463609644351494 -0.5866254683821509 -0.5462779178030399
Ni 1.5439629738098277 8.531887752001191 1.5468078711193591 0.01954552623209537 0.5976133348522225 0.6217284827328712
P 3.826211041863528 8.490639517425453 0.5817065366625396 0.26790123609650635 -0.37843193255892243 -0.03338911698340701
Ni 6.325139593677999 9.021082374267053 5.975465250786155 -0.5306147573444862 -0.22924032919119874 0.43340314658847934
P 5.7010298348527675 1.875540660231086 11.686988999299555 0.9091981278796084 0.5905127192516991 0.3964707923385043
Ni 4.072312243083637 1.2515419579046 2.169439653040452 0.18574857655615107 -1.871106184558423 0.9841987497562146
P 4.170495442682921 8.234061986490348 6.12882409537469 1.8733746688776254 0.07491448992070324 0.049862946268714126
P 3.262627074854614 5.451365570964572 3.633987975538992 -0.5448694674912874 -0.06508901918984919 -0.596582836705179
P 3.4510251702681884 1.6848288877603126 8.69574791401694 -0.27010030063035423 0.4527717809230783 -0.5131052877058131
Ni 3.60911409623246 1.3227939565580908 11.34291375488613 0.8808200909575475 0.5626951828187986 -1.8071625918269267
Ni 4.604670824528598 8.240743885831536 11.738961589770819 -0.06304910594168496 1.6871851481293136 1.7847122332432102
Ni 3.5516331034234163 9.013225126980807 9.749497322184917 -0.8212090641631342 -0.5822129411367521 0.7976775567000971
Ni 2.819048909448482 6.7970186568477855 5.225169396202953 2.8468730014972 0.01684098281673874 0.6054420868680219
Ni 7.052939103498646 0.9200003648454341 8.13783523221063 -0.3105494097843361 0.61719922740395 -0.47684244871903686
Ni 9.14412372016888 3.5393243414791193 11.931615000027994 -0.5965334715244823 -0.8390334939390647 0.5743991015192882
Ni 8.670134583522927 0.24380973546266035 9.442467749340537 0.5148181566318618 0.41406716526402887 0.12862534918059784
Ni 5.347388924014063 6.843218160325929 13.41603410656458 -1.0303065998578707 0.04539308342281859 1.680989560841563
Ni 7.3641101582754125 4.605364927645757 4.458782380422346 -0.72694599451249 -0.06735493240589045 2.0573008475130568
Ni 1.6317809001928612 2.4214666439394597 4.4623991203981594 1.591651182186046 -0.1756945347542587 2.0974352536400973
Ni 7.7050906282571265 1.5849428218469308 5.239405913871308 -0.19531616563992815 -0.2924071916576706 0.053678977580694655
Ni 0.6604604018062915 3.661504999515668 7.161158108701235 0.24137387922993916 -0.44800958364774457 -0.2919518492878069
Ni 3.9218954702410365 1.5232601915020139 4.949524389904062 1.2455205328629904 0.3724577172533586 -0.6484142195541736
Ni 2.071805257639136 2.672259982231568 12.160556121250272 -0.362979088338962 0.4045348002935613 1.4778510709437387
Ni 2.3920181623554346 0.1970003467122394 6.079438195853373 -0.5445632491047783 0.09461016857741769 0.5860752523056358
Ni 1.2752987939279163 4.057865643538489 2.4193898874129176 -2.0885662332852415 -1.1567136012309112 0.5639802201788093
Ni 6.5114831438647816 7.0129587639502535 10.278206772175261 0.4483178589167828 1.3328282542417238 -0.0044441518142826686
Ni 0.31772986649851265 1.2813606278177767 7.044276696596495 -1.1269559103525044 0.031110091141243194 -0.5665302402941726
Ni 8.458479406330392 5.512206022860668 6.701583180121632 -0.4677119471726784 -0.5001369004706032 1.0048627058634694
Ni 0.9965932556177625 5.51203943811255 4.710018093767792 -0.22636455030530048 -2.0603841144240707 0.2451127774470811
Ni 1.1649919265489115 0.8080674452306303 11.005394545781986 -0.13473146207833572 -0.17419198206680322 -0.7178512313000733
Ni 6.531260455349716 5.504200700242761 12.022652639403825 0.0664424478939501 -0.6314274551881899 0.14349301032104966
Ni 8.397944359805845 7.859681274510914 2.3933147469782883 0.27658410858248494 1.176530121736206 -0.10080447031358769
Ni 2.867691655899027 6.266983007168252 13.40813706403295 1.463703318688447 0.41995987659937994 -1.61027496793482
Ni 5.3524697588316705 2.551402747471738 9.426172984562095 0.2975578826206746 -0.9676279898817272 1.4719925552804327
P 7.362740461457551 4.055755570062324 2.1605005303622593 0.3871086343973139 -1.2645353834025963 -0.7251979014731317
Ni 4.263412713300021 5.630083241570827 1.6901299846337663 0.6207910585202664 -0.521190892927425 0.5534551522777693
P 6.206068517606326 3.3688988894458642 5.707731169081238 0.16746649041751158 -0.906806230608664 1.366445170965221
Ni 1.6769438763493794 6.137741006753134 1.9090602879649576 -0.6576766186927061 0.9741452221749546 0.4131539094211401
P 2.1599193346854912 5.8907513535430605 9.206388471661388 -0.03419027272846369 -0.8907273227689304 0.5296619065129136
P 0.31962430527294694 9.042923485687009 5.397396739928356 -1.0183435139587236 0.8826548301734412 -0.4833303704362256
P 8.629080697819994 2.4267603370463298 9.341285098804299 -0.07857522660174208 -0.3574928684134101 -0.3440750523456074
Ni 4.992591174646758 8.997964113111523 4.04874142669572 -0.5558917867437201 -0.007969134248405632 0.28909458234466984
Ni 8.924324399735003 9.207564745077267 0.217083063568724 -1.1978630788860272 0.16035456196307868 -1.0039371087254065
Ni 8.735574625408734 5.88238509730423 11.278384376290036 -0.5342960628508153 0.17959772646340683 -0.07459233069459413
Ni 5.938237261465006 7.853702732995112 2.3927057871768342 -0.19151941760165725 0.5929632376747207 -0.6446470392022575
Ni 0.9375944906591959 7.292404678918711 6.428375863970204 -0.3711315422427673 -0.22544152427039885 1.5917229159642456
Ni 3.7586886906262413 4.199166528775727 11.016081882844599 0.5578501960216715 -0.7650150334700695 1.1812498958093787
Ni 0.831313421359717 7.170973652248695 13.320038719990583 -1.5244703134641746 -0.2923786524125804 -0.015064350532290187
Ni 6.039187618824699 9.154229861554724 0.44601122819948236 0.26144442472756907 0.27415750141886336 -0.7337272791003815
Ni 1.8647033968951674 3.308752540666927 9.745378977023103 -1.6910541441664169 -1.7637122339527753 0.399559458566157
Ni 2.1336544727321716 0.19678656295215421 13.020568392827482 0.018301883632981384 -1.1048140841481424 -0.8637065712057125
Ni 9.367893310432907 2.7082237784086645 0.7130521322580634 -1.5723879630810598 1.031858774836339 -1.0001539875338903
Ni 1.6511232403910423 7.510232746499852 11.279806824944803 1.5168585625551876 -0.033184457171768655 -1.426833442245291
Ni 8.762598373436814 8.135156919649217 11.277368209326516 -1.7758054176718836 1.3605966826042437 1.2492244640771388
Ni -0.030205516717140297 0.9539845789323914 2.3149153371596998 0.7349884052009923 0.3421598376007655 1.505890236469142
Ni 8.114731778588268 1.3797659404145513 11.7398426379942 -0.5181248524075915 0.04364858992788612 -0.06556518749531935
Ni 2.8867285907256575 3.9853920233987976 0.7492417433159423 0.8146378387035197 -0.2707950127045336 -1.8960710820338766
Ni 5.029498951063192 8.458368349831646 8.26444149172219 1.6553430639180524 1.1468943011476442 -0.4475454995271324
Ni 9.010846666966007 3.1335516591876136 4.0031351500150425 -1.9427692574213635 0.5580538273920453 -1.4607627480028842
Ni 2.40971316448889 0.5033469220893345 3.6379563944274995 -0.8770850493951475 -1.071006391570078 -1.4214996887372036
Ni 5.301735448321418 5.274276729006584 9.608708222312728 1.2899245128996624 -1.3112065622068902 -1.2786219434026496
Ni 7.22883408809512 3.711239801537211 10.668416737109228 -1.037933006054877 -0.6944179399777975 -1.1280645700356509
Ni 1.528850035272206 4.9006363936854545 11.532641751872184 2.234135923629662 2.2528558686366686 -0.43929765769604345
Ni 1.2855992841865649 7.673661639112139 3.8711639361432524 -1.9486329152909925 0.9681990318938488 -0.9180067273101737
Ni 2.0924340022811196 1.8297113450820943 1.0674426744633005 -0.27020802985281206 -0.5633623840891523 1.4182032773741189
Ni 4.1243977409952945 1.4098622515745918 -0.031030111220325906 1.3360161650514022 0.5877269289764459 -0.8819040680503457
P 7.170955142832237 0.42219238563103334 3.0141733268027444 0.9483791689544441 -2.1089519960304455 0.7844782844010038
Ni 7.827086192129098 8.011088301133997 7.397874110306525 1.6812705824170915 1.0452141130973225 0.06936424952643538
P 4.733181702993641 4.597563208608883 12.921702195760913 0.1755999181579234 0.4679184067565297 1.453182107442149
Ni 3.189524134555364 3.2312073404178556 2.9762327249479776 0.259698645681056 -1.3011859447460945 -1.492673737778868
P 7.248768729619943 7.634181053808101 12.897929626733609 1.1880226957568378 0.44834434127934397 -0.8960849875364181
P 0.9261834354130919 4.796844840899522 13.677944200381114 -0.47245203296082505 0.1653468729713475 -0.10158891388809602
P 7.867529267088931 6.369987909754739 8.764286432217748 -0.9249340505576265 -1.5590593642929536 -0.2320250910251875
Ni 2.5226020954637285 5.1665796893481 6.996502967248634 -2.2221386420584697 1.027903903953649 0.6250117814698333
