# total energy = -340860.6486590417 ev
CRYSTAL
PRIMVEC
9.30305311394202 0.00000000000000 0.00000000000000

0.00000000000000 9.30305311394202 0.00000000000000

0.00000000000000 0.00000000000000 13.61595859927677

PRIMCOORD
 96 1
Ni 4.912263340348689 8.714030507823486 9.076561193015811 1.1879563612952766 0.2093888416829104 -0.3787535775643993
Ni 3.609873086449826 4.989943835648951 11.461750569416358 1.3792641771067602 -0.2713323732652424 2.2148462221621146
Ni 4.785946482242466 3.1238257622034187 1.8267438305342953 0.2986781122680469 0.011129534254258252 -0.4658851783765847
Ni 8.798548747320837 0.6398984292915744 13.359761370285646 -0.5273535700947111 0.22323294665485424 0.3698717016937372
Ni 6.742052990543021 1.1841298399758773 12.00444232477465 -0.2926573599952637 1.009224839486907 0.9002553168640238
Ni 3.62093441685845 7.547148528720265 12.837003267296202 -2.753513674607748 0.1218371226141708 1.864684597302795
Ni 0.1833008506646295 4.588070537926709 11.838599583987921 0.32468867739919566 0.008964408282139399 0.7604181581280065
Ni 8.402806161742651 2.7227246179075135 10.794610009060381 -0.28459335204020664 -0.10737749554541508 -0.008230358329592277
Ni 3.1970035796922645 6.7716367001304265 1.5673328399714017 -0.572405211017711 2.119386818210524 0.03183668489462259
Ni 5.9020616993273 3.784054153935671 9.781160497602507 -0.4874171389110896 -0.2882988259162519 0.7338116112840717
Ni 6.369409886381668 1.327248012394947 9.560350666219179 2.4195535992089554 -0.13666441743499042 1.028290083648474
Ni 7.342611598220677 5.786489867816502 0.099677564897564 2.026612674400581 0.06499183149035258 1.9891103065797489
Ni 8.354830315723076 3.9955404652723012 4.344661729395669 0.6632240308734965 0.0742927971763043 0.7735261562648742
Ni 5.3032241565155775 7.133367322736426 5.507437340759304 1.000493116040864 -2.379823370498869 -0.7119744608043223
Ni 3.5865038164864416 3.0312975937894775 6.712205074241061 -0.449907829111722 0.9803269255056342 -0.17479182043433125
Ni 1.3591853944746837 4.600183113361552 4.560760494573002 0.27004759301554787 1.8693020414701482 -0.1540666720718379
Ni 1.1110450530203253 8.726143083258329 4.893521409111335 -0.9205775733611435 1.0153484358861415 -1.2797115769224026
Ni 2.6307825418533235 0.1433023728749915 0.7018186219465462 0.13173844088828282 -0.16542297762492156 1.0152396782224193
Ni 2.7583553121590114 9.143710631947224 3.1476015755972964 0.9795381110557518 1.4118382543880394 -0.2179408450179795
Ni 6.013409944626562 4.173647421263142 5.142080387965515 -0.6504716163038347 2.4094969863039015 0.6422350873266552
Ni 1.7972103574348688 8.168564581962375 6.910752699007199 2.855240142514973 1.0084812764526632 0.4798156724147479
Ni 8.033186549913344 5.084007007862239 6.446625229015461 -0.46733836588334354 0.2679259186868547 1.8341774298528735
Ni 1.9209502697688554 4.776466670899836 10.118522702317549 -2.8095313276239486 2.222910744337804 -1.3233743079176759
Ni 6.032406779525141 7.269703569278383 2.0493519421261905 0.20961664142300027 -0.30469063701071397 -0.18658855595894316
P 7.708221594065025 6.964451783435005 11.832186989327983 -0.0010844913134303903 -0.4218084997723445 1.0951248818848365
P 6.372024044367221 1.6157170900321365 6.565261486292953 0.038928815854713604 0.30929008345593834 3.1515762369134044
P 1.803527130645513 6.411943446203559 8.408875473734733 0.3896026044637613 -1.8722732082833302 -0.01809105317375594
P 3.4852958993161955 8.383623265777484 5.341009437918157 0.30526270746410006 1.432052267442069 0.6990173864230218
P 3.5985326644413203 4.415508201720174 4.463733369568977 -0.8425427926439037 -0.5024071845620186 0.648461013631709
P 6.676410646250967 6.098560791750311 4.059829215304931 1.3280519158990032 -0.24780060869188933 -0.7570091324464575
P 3.7900639263864457 3.800585679701966 8.856704924598745 0.3939747653895279 -0.9489095875366174 -1.8551077522476374
P 8.237574631559662 0.605719011359459 10.536287475737025 0.37493317537704457 -0.10265232215560385 0.08750852453562993
Ni 8.572959007136879 2.0509139247801924 7.590203059528603 -1.9595799012207995 0.5837715438731236 -1.1245287889682505
Ni 8.185012380248706 6.151178861381243 2.4155387272769597 0.8282549152663219 -0.143831624607391 0.3128901421023708
Ni 2.8311889166746704 4.445129123520897 1.8584421241434672 -0.5610447916995692 0.06427449370835382 0.304892725719191
Ni 6.550949669051047 6.130088839483554 10.133255017569942 -1.53239496762789 0.5399154659201217 -1.0417166414670254
Ni 5.5917862646860605 9.045126175815861 6.570885182030559 -0.1279054402954378 -0.32038156538340956 1.1357966485725857
Ni 7.34863997677811 3.8441332723367605 2.4351867759085946 -1.541284556808036 -0.7302681169071874 -2.0662724548840483
Ni 7.016297699639599 4.488620897835714 11.842384996387644 1.1861830714449377 0.4521739994380794 -2.8491648828551708
Ni 9.003374072473635 0.053949336562365335 6.667149456661576 -0.2152473573462164 0.2862224030031974 -0.9750214541323209
Ni 9.313379718568322 7.22436048735102 7.666519727210779 -2.6371118640765356 -1.5274556213447437 0.7366531944979249
Ni 6.335667711956033 3.5586690809249584 7.341493371210486 -0.44333917475526874 -0.020080058579326706 1.2868322471275837
Ni 4.645535498342244 0.2990075764487027 13.071429047532398 1.1780501579251583 0.9580292904496985 -0.8234646929665304
Ni 4.232982295397881 0.788419815084344 10.76782744883045 -0.46636957421217107 0.8362448754503339 1.0016555117800812
Ni 2.8053264284190145 2.798702654448501 10.329951334723535 -0.0008687757581985038 -2.7433822426007013 1.216407417547118
Ni 5.278961793432573 8.935340843475934 3.9952623039777526 0.03449829088718574 -0.17678159717085037 -1.7785860657408146
Ni 6.166919627614541 8.439115978887193 11.089899155093335 0.6175591818465299 -0.6949244473005709 0.22056928377976204
Ni 4.124890118763899 7.31098121690081 7.575906127172023 -0.22530474158221842 0.94355655075482 -1.2783355225104822
Ni 0.815810795002016 1.596162071933795 1.9523517959768202 -0.8184530986845517 -0.42754720202833457 0.9213594458324906
Ni 4.609160559824397 1.7671801012876536 8.483709234716208 -1.9595973847222965 0.2941905088103385 -1.716679815154321
Ni 3.5540082512069424 2.6937735159465057 13.020247369335523 -0.3361581114913759 0.2038098049332361 0.2802759556117754
Ni 8.55142243867938 7.892412746933275 9.971933560701288 0.541121827523397 2.1424275020800714 0.740824295156479
Ni 0.5569496148908883 3.133398604079343 8.973066585337206 1.0682306285971537 0.7028871537910734 0.7332089447030663
Ni 4.658838864603246 1.4571837582462959 5.2430696833825206 -1.1320554363625985 0.948833225772727 -0.7584597488500551
Ni 8.988163580280112 7.488474171371911 0.27786452714703735 0.0005288759202765085 0.5943704024348925 0.381216180172279
Ni 1.4044912641887288 6.308242310741042 13.094263391929344 1.1265651026719887 -0.471922128599284 1.3913267646982492
P 2.4681744727092174 1.0211775578585847 8.359422302846454 2.203726458099869 0.21259115067029194 1.2072782015523402
P 5.677067354556421 2.841375760070333 3.6901156426369974 -0.3641329994377471 -1.6154619114523985 -1.7572243122355864
P 4.65611306997774 8.817666521912699 1.4069509914890148 0.10655345698222295 -0.2184121282274432 1.323308487676747
P 5.256820526508666 2.899343085365655 11.903412095922995 0.8773843258031213 -0.562349883664238 -2.1590170310076364
P 1.1173432201243105 6.448002080908208 2.3433340091663664 -0.2792230888672288 -1.005597270036649 -0.18733391876539995
P 4.707800834275735 5.377797432003829 0.979009608032537 1.2737908405625933 -0.13323919380352536 -0.09488784771883657
P 0.33227901637587126 3.0200315962076076 5.843111971600396 -0.09268184120645327 0.1389419006152575 -0.31794955890314924
P 7.691522613338801 0.4408772791109708 2.5038116790980456 0.2817003467631277 1.1947358461109554 -0.8987409371020264
Ni 5.507193600762074 6.416157729361766 12.69923714145752 -0.44232101790339956 -0.5053004469494137 -1.1232321816440138
Ni 0.05717098393032711 1.5158116003280029 3.9978085496740023 -0.7214050100896028 -0.5962498788457925 1.6653251148314285
Ni -0.05579413203757995 6.327657783039443 4.97306530599347 -0.48401119855333413 1.8738819475313468 -0.5751200388457127
Ni 1.4249579815133488 2.0040730512668006 13.562788415229878 0.28106039918628367 1.8025209792898569 -1.2163066303031957
Ni 7.724064693884947 8.133259494577405 3.8455557091908212 -0.381392300738827 -0.1163321336355416 1.7391034342651597
Ni 4.688515604723945 5.892944707064514 3.320224381650472 -1.130854216965646 -1.161733937263638 0.2951163630587175
Ni 8.828727852321322 5.8298607024380384 10.101775345714012 1.0820803899960527 -2.8658022343015355 -1.2968531216986956
Ni 6.07986165455827 3.8513059264537066 -0.01301962313445712 -1.1336639185002992 -0.9274210786455384 2.9921984370412984
Ni 7.263935676214172 8.686930713475023 8.282383718225919 -0.305068589175423 0.3124180875619587 -0.20993031600867718
Ni 2.5886583163779235 8.138143597575326 9.275272551520546 0.5379496004430026 1.9354578113616152 -0.39743906978904453
Ni 2.1653879959981235 2.62059569845766 4.232943222573898 1.7210254937175262 -2.026535541305742 -0.8519717992672876
Ni 3.629642074774743 5.452873072371868 6.3864428467224155 -0.23111466339577616 -0.7396225615388939 -0.6933966978021349
Ni 0.4758883900107321 4.1268995782830435 2.0868637137608874 -0.416808732564908 0.2947659216978343 -0.003872852691844943
Ni 0.6035262816897258 0.47069728625294216 8.987050004796586 -1.2665922659316249 -0.4980247392236068 0.6796348681313521
Ni 3.867763027793367 5.7844338930307115 9.238632475982813 0.9674809227809016 1.8039512839784801 0.545162573251674
Ni 6.281970488138894 1.3933834185134577 0.8616125174585167 0.981581880958658 -0.44099895665786637 0.8683710665609173
Ni 1.3782008354799216 4.741310432368135 6.955398982240193 -0.6717395245436754 0.062116052604454325 0.41544476233784583
Ni 1.1757291828194536 0.9441203671313905 11.584049438789624 -0.3146698597106129 0.0230630524670506 -2.342537232453901
Ni 2.4191194725034353 7.061891964006856 4.116200136648932 0.21600480433753122 -3.018098958957144 -0.7482239300546598
Ni 1.6992492058765742 1.4245207380068685 6.48854943884428 -0.3255913917191231 0.15545506777893225 -1.2506331714992074
Ni 0.4111177418156404 8.598300524406088 2.5230503933831887 -0.060624555660592355 -0.36175472901355765 -0.40212464819017196
Ni 6.868388454755903 8.308017351369672 13.738502625904404 -0.8918007583387674 0.9710233887165214 -0.8300528877070092
Ni 7.123143267127445 1.709631413392154 4.715792157085667 1.2816054515110056 -0.7095393690002683 -2.0309028171355026
Ni 1.623345593762222 7.336853008209795 11.113345640399354 -0.40961709991247514 -0.369739289880931 -0.44446608927086034
P 1.4015980146032938 8.581406179559949 12.859701787114538 -0.9497914759209385 -0.45123246146041646 0.21826274713377247
P 7.906023113954148 4.248248605911382 8.72179762704818 0.8124428879347299 -0.029077376981930567 0.5027712527696566
P 7.681428800476431 7.787297547364693 6.222657011026811 -0.689479879246232 -0.8454036591314666 -0.44586399805965143
P 5.671569250038761 5.734113677572133 7.3394243721500345 -0.2526674498658874 -0.058825811888956754 -0.04642615267302327
P 4.090515336711867 7.7238972389250184 10.9084114695226 0.4203995352399599 -0.3805500073431898 -1.918755925225902
P 1.9287555315121991 4.32198460659999 13.037376151125562 1.5901933666935968 -1.6896564924879418 0.3261346658171029
P 8.825732269149263 2.9986252704967202 13.140557245906969 -1.2673599973355851 -0.5395447128442643 0.1968032917084159
P 2.826239692303444 2.1628389593858754 1.8715957112458672 0.3053421545517838 -0.22851142144497422 0.22838775138291634
