# total energy = -381165.10067695606 ev
CRYSTAL
PRIMVEC
9.29605663086796 0.00000000000000 0.00000000000000
0.00000000000000 9.29605663086796 0.00000000000000
0.00000000000000 0.00000000000000 13.60571853908823
PRIMCOORD
 96 1
Ni 7.028339329699551 4.031039704993131 7.705843367786635 -0.01125731808137416 0.9973656261554759 0.4827439018051364
Ni 4.349141464020226 5.094991969061895 9.081993465368653 0.20383114508947478 1.0957262629142612 1.6872630525551005
Ni 6.387088052939623 1.9544401129458036 4.7967912078934525 -0.25019533417631107 -0.3497636180899525 0.31591710185415267
Ni 7.549160193875944 6.699389072680564 8.589290383433974 0.853350424782369 -0.21089036592910132 -1.3662304838512533
Ni 6.601799071036259 9.09617274042181 6.445259986002069 -0.13875549563606424 -0.5018325430054712 -0.5711042328181004
Ni 4.554240359645895 9.19183845836061 10.837090800903507 -0.8840717651256258 0.9382222830261003 -0.8368740243939006
Ni 5.573357742982092 4.1174465506098015 5.503431876019946 0.9970347251786184 -0.28017799658133036 0.21094384487485607
Ni 0.2951098223661251 0.6930107900153414 10.938072003976641 -0.9898238092524759 0.6606801814057202 -0.4628394495717255
Ni 8.83678487455393 4.283148758583675 9.6580738080909 1.1399667207898756 1.6978346574233598 -0.8908252817993755
Ni 1.7072486732693237 5.578610014931896 1.1589979350357913 -0.7254436989353507 -0.013821479264124583 -0.006475066201382396
Ni 6.158405061850856 7.9669621593838125 13.219791872579698 0.16544663177400537 -0.5839517782047298 -0.9454295994078169
Ni 1.7654791714880245 8.503753648710227 11.667434093518548 1.5709535446273784 -2.1921114995687603 -1.072534141068514
Ni 2.6966465638205297 3.687885073568304 1.7640494379908922 -0.42234483189178873 -1.4435337857191075 -0.41155776857861376
Ni 6.483172093423098 6.358391126374948 2.623359242810509 -0.39145816961526136 -2.109591686496973 0.10664498825476472
Ni 7.15934865463508 6.115550241163083 11.741966156500387 -1.5605526610090286 2.5805362816743362 0.3829462754895082
Ni 2.78161252067221 1.224132614452932 11.66469919368203 0.191830778194489 0.7479675910694795 1.3173124179943119
Ni 7.322262045644456 3.910869581992949 11.44288505877682 -2.9314980338374483 -0.6970209248182835 -0.6969031682934965
Ni 4.874601060414232 3.078082356111355 0.6634679223047681 -0.6826721122957792 -0.18968313572386689 -0.013083315546519403
Ni 4.261702756126692 3.1977969723406696 3.343755285811558 0.21935598019795124 -1.3881766491050416 1.2727330887220403
Ni 8.3982527029433 2.121350808270959 9.247657559510676 -1.0134882427489516 -0.2800820944334144 1.2391511390015368
Ni 8.474266557338943 5.360924258739796 6.27978739062494 0.6630674506909742 -0.34041637254709756 -0.38863792655764684
Ni 7.5100981642598885 1.7762904852537251 7.167206611235378 -0.850501128259032 0.7412593258113686 0.0827625252102123
Ni 4.915810479092952 0.30619629940565607 8.1540294941227 0.22475529683665163 -0.18950598671605426 0.5915051650719555
Ni 0.556378280473732 0.7478631012843812 8.140845826725865 -0.17951416561066502 0.028148437409757972 -0.3759171365568687
P 3.1735156726364475 1.5596737755646823 7.63129736071997 -1.370808333029923 -0.4384977875025674 -1.67208248815992
Ni 2.1026471424957314 2.2590904781474737 5.590126899389615 0.22298226409662888 0.7649744100401212 -0.19923941195373426
P 0.32870670033742233 1.4669920917778934 3.9455494505521256 1.621461580679259 -1.5604832412236738 -0.6289779652064328
Ni 1.2606196364051034 6.650928729894151 12.919772802750403 0.4400520193635647 0.5045036620797311 -0.6649569544042032
P 3.5119386112781785 3.484552428686816 11.304623880127945 1.040686400430298 -0.9044546996573519 0.7229947231742258
P 8.925116003876102 8.330270641405406 0.9133394150841299 0.6606521563812622 0.3707078244417874 -0.6285259652706788
P 2.2674197448147715 6.0217623266470435 3.116417434105333 0.6409765323292058 1.5671269717924363 -0.2956994892556972
Ni 8.09049745485449 0.9490065248487389 1.6459792941649758 0.4675340268339174 1.1480027037204745 0.29506416966454346
Ni 3.0801367846085346 7.723117300064729 4.168493056327958 -0.4894943331550925 0.08317698703981158 -0.19838014927723255
Ni 8.65990880660897 8.028613606412296 12.245731545727573 0.15911040514333244 0.4448466125387306 0.295571191207949
Ni 9.59511068748345 3.0658115614675676 7.0632181338688635 -0.2533109969871573 0.21107265714323648 1.1499819389340322
Ni 7.48108517177257 4.643938009280673 3.9913195145734535 1.237022008473676 1.831327619108904 1.7685808748989862
Ni 1.2202654549288294 6.729963802668001 5.023979393089249 -0.7507968329881586 -1.9210730033948527 0.4493411579749745
Ni 7.009496223076098 8.299816760153098 2.0231565629510135 -0.6607287752554686 -0.013828678352976184 -1.9230463250711398
Ni 5.350735780762833 2.0204885947216447 11.998039978208793 -0.044880405452458194 -0.02750360473690747 0.0655009099162872
Ni 3.465114374444271 1.1588464093140536 0.35812314167893844 0.6870067351153911 -0.5782809530721975 -0.33897321234266786
Ni 7.324288585971991 3.3777314428900262 0.3183192867503253 -0.4266887106827813 -0.2253685049406183 -1.2668164661272892
Ni 8.13686618491753 6.366274182327926 0.4282860580830677 -0.4248418872820296 -1.5057094879169035 -0.17119510422200837
Ni 9.134574750022935 5.183044216687619 11.88383327548436 1.5534895835146603 0.4107306446916281 0.7902177579879424
Ni 4.3743430733227315 5.355960164542991 2.4811658322416923 -1.2136511949582196 -0.5543653227968647 -3.7479546709172613
Ni 1.444969733814914 4.361858469378333 3.99840775769155 -0.32466708013264084 -1.2029168392598508 0.7651975817945208
Ni 5.451309816559149 8.385294000114936 4.055864824005431 1.1235615399589747 1.2155003323518163 -1.9273387817989065
Ni 2.385368110299905 0.19803203343763373 9.294978205764265 0.2715282913261324 -0.9620646368613367 0.3892727319281683
Ni 2.100778635129518 4.257612491245429 8.813022294805103 -0.25867894616729004 -0.07753058738731165 -0.5629494649214498
Ni 9.09356054853173 6.916777355063117 2.6050051087614983 0.5948018335453563 -0.5639028299736546 0.3330815294485812
Ni 1.7024983883731302 3.5307445336754375 12.95701094607168 1.7920488761139393 1.1111143153345575 0.44449025764057637
Ni 1.3102140980904113 0.190060664947446 -0.009353692098923479 -1.3605617156012504 0.22356384763171175 -0.043898244044846976
Ni 2.731729881233904 7.086997446519475 7.192213932956025 -1.065909436663145 0.7065023819461574 -0.030268569076554327
Ni 2.196444353068319 8.402361559937658 1.8533575828562945 -0.16422535777239458 -2.293688586382314 0.5077417094010546
Ni 8.608957120667608 2.9157267284948785 4.926004534703845 -0.6168446722780085 0.8109282510624163 2.5145748871818627
Ni 1.4857980141751526 2.8186944902434736 10.641862458120848 -0.3422554826383654 -0.07432750706898167 -1.7740570675222094
Ni 2.218699112445006 5.078612317423748 11.162403510995137 -0.12394671275800591 1.8749967778620804 -0.037157325776587626
P 0.9660833807280099 6.079760423452036 8.726190619404175 0.06795091411867651 -0.1310280450848195 -0.7987162823772568
Ni 7.8980040119083466 1.2415162401982978 12.837798316895976 -1.923363342090926 -2.696296601966808 -0.672928402645454
P 3.4225105472833026 4.23813725277669 5.1701868408756315 0.7642807264072063 -1.6872268000005266 -1.926050402004786
Ni 3.806986150065429 6.029952152466117 13.093517958849887 -1.8613467911788137 2.0818739088667306 1.4357294591833403
P 6.727779229379145 5.328471725329597 9.81681141049877 -1.398926431422378 -1.4805286177759016 0.008097175185837668
P 3.8737504281954913 8.340719408965724 12.751674071398373 -0.034330912071386034 -0.1819456578702931 0.6555677998798194
P 4.603258465825207 7.765934936526309 5.798349270015521 -0.9811463360831362 0.5450723275307129 3.1786949475070676
Ni 8.990337136619143 0.6737335575510822 5.95017525437971 0.6703940662593745 -0.7533985322770638 -0.6172118258094402
Ni 1.929535977452844 4.829505890098314 6.421191565992804 -3.7403066674537 -0.07609719737489475 0.4836954670851283
Ni 4.7011924215617995 6.12183437538975 4.389327386872975 1.1760909773162582 -0.9125202502743058 2.4986746710118384
Ni 4.9118596550599145 7.010862743388703 10.983747248221174 0.47957758826201274 -1.764495391975703 -0.02716447622993386
Ni 3.36756155702616 0.5457817056142976 3.729109365937501 -0.2564253742464229 1.6678604796587726 -1.8486324289359388
Ni 6.369434841554356 6.671928521636815 6.380442302113226 0.7089541859207596 -0.8175035902870887 -0.49322706072464734
Ni 6.397583300782681 3.741727833096196 2.401218816320452 -0.6181914161138902 -1.0528145511523996 -0.15583353416427353
Ni 2.1000163584925553 9.30953583031894 6.357448506240948 -0.41464206393089237 -0.7098599855644807 -0.03641042030823407
Ni 2.7092055362173153 7.143638319068413 9.837791680522683 0.7391741611475656 -0.5839846883251942 -0.5538837551747557
Ni 5.141072521371937 2.517716067378392 7.428000970459021 -0.016514452715255427 0.9455555834627198 -0.20622149969852227
Ni 4.299416857543242 0.7276804329123152 5.692401183928619 1.336237537033589 0.27192629809549945 1.6114551042858505
Ni 9.006196209090584 2.870817479309926 11.92745316162606 1.5051705846942982 -1.1414451051076149 -0.8433272362184122
Ni 6.806600492852383 8.822097105207577 10.891513634360015 0.751781565498931 0.1883983554741723 0.4604737775530263
Ni 7.766316074844791 -0.04589741999603945 3.8282955004911523 -0.12358727253605813 0.36518509485134526 2.0869199559310703
Ni -0.21687328084977656 3.059341506109934 2.704708104059236 -0.6273828528051711 0.9532478099006552 -1.24306461512333
Ni 4.850617234519556 7.337795756136705 8.166383953275421 0.5595448101152751 -0.730457092989542 0.3470580462333313
Ni 5.551242424453631 3.385781827860875 9.875982669640162 1.3444568396195877 -0.5543067016447872 0.07700608234240931
Ni 0.23202585302354445 7.608394666201865 6.957679074270088 -0.45008137857510877 0.24458647262996583 1.0741179406158663
Ni 0.710366527591062 8.669502336966842 4.044082072330429 1.024046734991088 0.8777170265521917 -0.374114279020175
Ni 7.863032247173552 8.90732335164261 8.804587053093154 -0.8471005872179153 1.92891383959551 -0.6912847936654546
Ni 0.4556555077726428 7.889265718752922 9.70276831836959 -0.5096931767004705 0.03724191507059393 0.12582927449269943
Ni 4.497404269909443 7.653917455119007 1.3692524236231614 -0.10204219937543071 0.5799979357633043 0.20457676500624766
Ni 5.166636676879826 4.646643161736234 12.245228629068308 1.0731825732857905 -1.7191578443811681 -2.1387935048719102
Ni 5.840768105651177 0.6372028441331338 0.8347542714472193 -0.9662773893911036 1.4498414731046902 -0.5921173447346576
Ni 1.9002069190428823 1.269534554634946 2.0121909346466107 -1.2942298251432356 2.047152960445777 1.484713859501843
P 5.906816587427018 1.4159939255537886 2.793376680234114 -0.3915723265956224 -0.08256249338426426 0.4119097526013938
Ni 3.6239282045158356 2.0770086185354537 9.655842754519304 0.9560909357764049 0.6004202081733981 -0.6469150093008278
P 8.265458535150493 6.885170762798816 4.653277757294774 -0.5384034001509695 0.21403071133029591 0.6145345360875932
Ni 0.18434730859284618 2.2898325371527806 0.40163426395902313 1.4420242910531167 -1.326349845606232 1.399846629243802
P 5.890492712128162 5.092825987886136 0.5937614422771615 0.058600583252028104 1.2931383918512696 1.2218414440784957
P 6.1848802309004824 1.273643411629305 9.647283875255262 0.6029553158904262 -0.06092563184077895 0.28995950144812643
P 9.165261032688953 4.242841057390143 0.9174306095710472 1.1507280730714375 2.7689523777603213 -0.24889795552112617
Ni 3.983992362802064 5.1998886711531815 6.941283619335809 2.8656834493354837 0.30952971027057014 0.41248850792299924
