# total energy = -381167.4683217788 ev
CRYSTAL
PRIMVEC
9.24100842426005 0.00000000000000 0.00000000000000
0.00000000000000 9.24100842426005 0.00000000000000
0.00000000000000 0.00000000000000 13.52514992434698
PRIMCOORD
 96 1
Ni 7.982327575359028 5.106775280937911 4.6454428892851025 1.7231183716908132 -0.5620413512848836 0.45668834236866507
Ni 4.589482114959162 0.9907377472890722 13.362266139319113 -0.9501627432174281 0.3205815972093576 0.13821607819282647
Ni 6.263056451988876 3.8972104556829095 8.560621561623288 1.8093976518050325 -2.3674152266425037 1.6335406233309802
Ni 5.881347360668747 1.1922194525631917 8.084211540730227 0.761858490118959 0.2549873562483157 0.10089754424802624
Ni 0.5041090193514691 2.4609452133392185 3.7732737479612943 -0.5403659231939791 0.34163044745985677 1.1511739023596046
Ni 2.365337740846165 2.5435967921114853 13.443214600250624 0.14325389772705005 0.48999312716838195 0.8864958011860863
Ni 2.6423739304720346 8.39344155528083 8.111776544567412 -1.0866410127835415 -1.8014357166454782 1.6766626513314349
Ni 8.369433415561426 1.7648662586186268 8.494483664790426 -0.8728635551146322 -1.256918747397603 1.0788783381189873
Ni 1.8954786707795406 1.617869538635348 11.2830448029134 1.1784782466015122 -1.304685730369237 -0.5432252470196451
Ni 3.537624338376734 4.403663918855322 5.0743661405183875 -0.556425547760003 -1.4084176587422645 -0.921446349119342
Ni 7.327897845317172 9.361788339313506 13.110171431257012 1.2077499989824363 -1.7898804077077113 0.9383423535437324
Ni 3.3416225510601225 1.330797613930467 8.648995172772096 -1.3107566191536653 -1.1626574775191718 3.0718064757829286
Ni 7.415197651294542 2.61443836219961 4.699178428797944 -0.8437247287671468 -1.6005824232374046 -0.7328837001531637
Ni 2.524837545140588 5.151113639049419 0.26097993760028665 -0.23018469538233907 -2.5552913910646184 -0.20284101326206358
Ni 2.9191144078303823 2.099316833185472 4.2280025150400125 0.6671377641056059 2.0784096044672142 -0.9729620005001307
Ni 8.082962156399947 4.204104343320093 11.891907120731862 0.962741094103071 -1.3424989445622686 0.9770963343834785
Ni 3.864543491130141 8.729213594043163 11.6488196235183 1.212544592157602 0.15749189570330296 -1.2994764182541554
Ni 0.08113605340121866 5.499296352039296 6.749821022749372 -0.4304484348355297 -1.0420082045655152 -3.0061728969435197
Ni 4.249061848991725 3.7496869982231082 2.2336653850263537 0.6458413166206748 -1.4142316943208806 -0.7499843643891922
Ni 5.197595911100459 0.20123312214923436 1.9491365858221577 -0.2876354813006401 -0.6375507944771085 -0.06481365404127547
Ni 7.575787894575451 8.455494926418549 8.601156320693802 0.11845612195707984 0.10590502476494665 0.1495798399450779
Ni 1.6330155513374665 7.566084835797401 6.04355108400932 -1.0876990217344107 0.28424959554754275 0.9926368532212387
Ni 3.1877690028736887 8.16071600074139 1.8528776222397207 0.07116299329807099 -0.43312366767484756 0.3770579350295313
Ni 2.1392749533343185 0.4507569816855699 5.461496007342521 1.1056700043905348 0.2626109342318445 -0.08930186899062685
P 5.642559704645116 8.445440709322817 5.972422118561197 0.728731625658003 -0.7119256098442578 1.6275188426169327
Ni 3.611496959206955 6.61445503588805 5.132402445321994 0.7661046669898225 0.7268812027128255 -1.040812384485201
P 2.179658159867727 4.675839338083807 9.241775363741567 -1.2843007389549816 -0.11943622648216203 -0.16400861377589818
Ni 3.063837839757089 7.088195329465894 13.119490064087282 -0.5346699012504662 1.6178898041676009 0.365532450888435
P 6.174906473242382 2.153663203350913 12.725921986738705 0.1269505325813362 1.5009809720929828 -0.6038179210010375
P 1.1251112498525255 4.274668683157417 12.247659143669454 0.04168066756823789 -0.44771750632862245 -0.5652685999729297
P 7.080386677401655 2.473152585382841 10.097538942923784 1.0960823607020993 0.7821681482105884 -0.15812567263255992
Ni 1.64535229749813 0.4287652299903284 3.0787703851660906 0.4688941404062376 -0.4780668080444412 -0.61209275941532
Ni 5.875386910276517 2.114241061686949 2.8920419497387866 -0.29144277086187226 0.498009055494323 0.9791969256662492
Ni 5.69594500994111 6.978846477541451 3.0816914679087013 -0.5293135220345594 0.4565716142851427 -0.7244096012438814
Ni 8.531446774129781 7.829509020108921 10.896536855951897 -1.7028693916337898 -0.35257306251428955 0.4537400583736185
Ni 2.360948261875142 5.634381412246473 7.117298961195029 0.7580841106781911 -1.1342424167115885 0.7479881598947699
Ni 4.031149630853441 0.2894089757191374 6.966993960218853 1.7780708166672925 -1.6408029613203485 -2.462630890014404
Ni 4.680422878230391 4.380940279297965 7.14069719436267 0.6819447472114514 2.1400834273279274 -2.6097805232514344
Ni 3.919786239106506 3.4447429633498947 8.918484230870316 -0.712579955598805 1.4767748071604243 0.5873836867044142
Ni 7.516146426619703 5.485878407900507 10.18108320310363 0.876204189452091 2.2369039732931024 -2.6043670655453472
Ni 4.800620673969531 5.6274321739597175 0.8704789608947556 -0.19775408565745944 1.171849428431085 0.12932674612299663
Ni -0.051097231626047665 9.146343470407354 4.887907542535197 -0.37214455688831394 0.7004070676816969 -0.8976345914117251
Ni 3.211814106626533 3.5291503337105703 11.110572471083143 -1.386150105593316 0.9145195400925218 -0.17985792210332896
Ni 6.521167056493369 4.266998646218577 0.5392950827831867 0.5190638192820932 -1.8264885458490476 -0.9177796989010323
Ni 6.449290493468919 0.5888841818448747 11.140408914775229 0.33802216128330814 -1.2469498091103492 -0.7811147672454095
Ni 7.553683402578217 0.6700045255318812 6.430829731068051 -0.8177108212018885 -0.45970990280380825 0.4283486148837074
Ni 1.828333504035434 7.860789833407681 10.632472269761028 0.6837684306837515 1.921829679055219 0.390173903586199
Ni 9.417696439891795 4.281996802786935 0.6883516235299199 -0.7651263622369532 0.1909907987916969 0.0012313013039398147
Ni 4.49050167441469 3.6847966375188532 12.918614568961583 0.8575536642304392 -0.2671831269835592 1.1711408323998347
Ni 9.344600063763817 6.898819345143437 13.168018295389238 0.45199093689299574 -0.8832420701354788 -0.27736829504667715
Ni 6.706236730920044 -0.031008203552140002 4.2918144500686495 1.4618097012101599 0.9357249705255434 -1.4401018772194232
Ni 5.135089730553097 8.361661727530626 9.264984156237828 -0.04867792482167746 -0.0729941329695388 0.5220439849563396
Ni 5.925103535253574 4.635308275416638 3.6642742061528595 -2.4400836008415077 -0.15670668079784625 0.1987172209016771
Ni 5.782256028023956 4.427866119750288 10.995798223150514 -1.2673124319271012 -2.4764454272999927 -0.4205841404469402
Ni 7.31210496202985 1.9372849926003963 0.9352399474819698 0.2779791891577987 0.9341470845154622 1.5255704885068886
Ni 7.574660491555525 6.12224196659847 1.3316228359770192 0.4756296593578583 1.0357923055627904 0.7188115383308137
P 8.213824075786583 1.0322575978507664 2.9705147445306395 -0.013503176692757392 0.536652993118766 0.8696226795798314
Ni 1.257969227044931 5.825799659416501 4.602689364107341 -0.12129539117808788 -0.9564881712148237 -1.3063003831545243
P 2.287463763396043 7.8283538940639135 3.988985682009051 -0.07643786854376514 -0.31240034695014585 -1.1263923245395504
Ni 7.647599770541381 3.7679195077174823 2.618455428533723 0.4586691202441197 -1.2001683299804362 -1.551662043387618
P 6.195495439868568 7.633368617666908 11.483136660530167 -1.2708381856921724 2.224606901093304 -1.5912601173952143
P 7.005072459267266 8.286365991412957 1.827734686693703 -1.1756649455224333 -1.6749348700070508 -0.1255053154943774
P 1.1793467279176455 0.310850887416956 9.319057916656645 0.31717411418970537 0.636786148396942 0.13221203809059165
Ni 6.133599165872969 6.311673396971088 5.356364751633603 -0.45863132502764886 0.9492204339088168 1.135053085538342
Ni 3.3841866355665022 5.705306151409839 2.7941602650883257 0.8105410429263268 1.3015482131815197 1.08990528535711
Ni 6.888210667546102 5.987387931600295 12.34586518771335 0.00045842769365727503 0.28848934466050313 2.592990448277289
Ni 4.375164649072936 6.192085507783712 11.48259513744027 0.7308633272890251 0.1722770244322775 0.6619518490292923
Ni 8.241094291457085 7.477177094365382 6.465319022469421 -0.8173554947449987 0.5275438317286463 -0.6620315532272921
Ni 8.97498745238699 0.841688599349027 10.899539259568078 -0.7240234215490562 -1.990921134536242 -0.1500449525069545
Ni 4.872755985228063 1.6076120193556953 5.355810291131999 2.373620584122267 1.9793367721327522 -0.11108554052462159
Ni 0.42836786663084636 1.7082373593882543 1.5209710972743962 0.6128777172104607 1.1803998891042575 -1.0572990692863147
Ni 0.15758783966472917 2.9055763305829125 10.281683592413618 0.24039043227074733 2.449862534605142 0.5384237118659437
Ni 4.405780109769774 6.857918642141867 7.21357086218917 1.2273194364739315 1.1665197886880554 0.8469854017962897
Ni 5.044148967281868 1.8778006217867693 10.119449373745455 -1.6363477537624722 0.9594529102701025 0.9649959515755187
Ni 1.9080834061826455 3.8267108029041057 2.3751646291362394 0.22851990608540645 -0.5948154603921112 -0.09811586773783101
Ni 1.3867241965254755 2.573491454156239 8.191560638445557 -0.14347629815050128 1.1282617736481215 0.20425563422140305
Ni 8.053363206622715 7.309933325065239 3.945624098481199 0.5451980544752998 -0.49636252102983547 -1.0665331862900729
Ni 5.424795342640591 7.815471928410007 13.617932497112372 0.036738235961298014 -0.1563115022419566 -0.07967591586508858
Ni 8.895745805699582 4.477998590103546 8.530528217898793 -0.3175944895565756 -0.7900958876980974 1.7130411899604692
Ni 6.588968334831039 5.895828020768942 7.81742824987983 1.0305161447655156 1.943343384757279 -0.5483808230786555
Ni 3.321135235525897 2.6128858727951223 6.783863049346116 -1.1536719861911098 -0.16311078455197714 -1.6426068472983064
Ni 4.505333492832567 8.96141241110608 4.277464088186332 -3.3146494833592266 -1.269263385005885 -1.2559679534485595
Ni 0.6542301242612798 6.065160257958456 10.421384536296637 0.25349945884887953 -3.539260027087898 0.12518649870237794
Ni 1.4318665223643083 6.3900279068559325 1.8954823671828847 -1.704399198014755 0.761508820089024 0.12701403882941995
Ni -0.16430790094415582 2.2603598858760234 12.75164618171057 0.5187804837137194 -0.38732126462875227 0.3885625932350211
Ni 3.4450479166257764 6.408722466768309 9.443881761180826 -0.4085467496664319 -0.06957996508166726 -0.7860543706388721
Ni 0.6876733335162925 0.36818395148436384 7.186439261644069 -1.313169342360216 -0.415755094489413 0.8302549764154862
Ni 8.540290419130347 2.867531099164596 6.6133923199266444 1.2067968910405475 1.7123763026829606 -0.4811531602792487
P 6.48253964154837 4.089626731755822 5.8810054433594265 -0.6620024997615696 0.4894771067639119 0.9680833322515907
Ni 2.3090599999334747 0.0867287116607195 13.346280118957067 0.2819579712998886 0.440764472049557 0.7119657190535739
P 1.40698972785906 3.0990922866506714 5.6792779272629295 0.4318640842361337 0.4101410907367452 0.7243540654155977
Ni 0.5849096241492181 7.033765790225214 8.181903784709306 -0.055944376576103655 1.325534548793788 2.0052987434141527
P 3.355280761416273 1.727144462492912 2.081371719051096 -0.004301198478515173 -0.5432995519010062 -0.9301973558390948
P 0.3388141787144603 9.002294632090932 12.920453529625233 -1.2802975313328595 0.49340729505625347 -1.3294595948798071
P 0.09639111000198537 4.857979612860347 2.881194854125763 0.9162905159500154 1.5565957332438096 0.4804975289731209
Ni 9.005270236782867 8.663371409477822 1.4833435594339541 0.9811427365387103 -0.6581779838091569 0.35613635438551566
