# total energy = -340885.3499576466 ev
CRYSTAL
PRIMVEC
9.11814153630844 0.00000000000000 0.00000000000000

0.00000000000000 9.11814153630844 0.00000000000000

0.00000000000000 0.00000000000000 13.34532181425884

PRIMCOORD
 96 1
Ni 5.4473873596969105 3.3468776094798307 9.51867029774778 -0.3455264400801533 -0.33118688352902964 0.8389846429790001
Ni 4.191354270603238 0.5280488900427862 6.706451318975298 0.5125131626477689 -0.04567693321182456 -0.12448535887029528
Ni 3.7674792336692224 2.976963733054678 3.084824050711224 -0.19450678236475533 -0.02159006746594991 0.24618569879628568
Ni 5.239885816996641 4.880175140742057 2.9761130104667295 0.3706137220660843 0.07810265784069775 -2.317475404389267
Ni 5.08085631371258 4.572337570627201 12.288919383700689 1.0415261227227741 -1.458700980377849 -1.2417461534222227
Ni 5.830185169849508 6.402922982462417 4.78832810292425 0.4448358139054532 0.7996922731372809 1.0614984520796429
Ni 3.3582935224499377 2.869178184157201 8.102157920895408 -0.4045412280514646 0.6379950811033787 -0.9295715493296378
Ni 5.620732344900356 7.913817240427875 12.932203344123842 -1.82073441697409 1.0173870635827251 0.0017424366124034506
Ni 2.029953572451351 5.383049754331831 12.339564276200583 0.19436974256625883 0.00071270979630845 -2.1685463106543104
Ni 7.941928470209697 7.776343023295039 9.461445754449779 -1.1216450396625521 0.28951701459406914 1.3109527943248713
Ni 7.649728512509964 -0.0761829827927677 7.294606084982663 0.7017265578240689 1.2134205670046523 0.6548802868944914
Ni 8.861657151894045 2.461068413617208 1.8758050102319055 -0.34618515671007477 -0.49031605772543946 0.19383623866029198
Ni 1.459486177034574 1.343849908434811 3.2184777666184408 0.4152413880777881 -0.06525948332944245 -0.2987053659615565
Ni 2.006082278397245 6.587355627547373 1.0188775270951742 -0.33455168623620446 1.2399643789314516 -0.8583951862951281
Ni 7.413769250656577 4.552542085756511 4.180342291294932 1.8649440216117685 -0.8065782016238366 -0.1635285888156861
Ni 7.939375390631718 3.852442074767834 13.180679990422409 -0.5866208403964607 0.34717554564780206 0.18317927316707808
Ni 4.539402844071267 0.27712584642003446 10.740995441899047 0.7029799706151958 0.027190187261546723 0.2550783733002252
Ni 0.602011605416847 -0.04691010180296489 1.1500301368301065 -0.42447319108870124 0.9191673232771782 -0.8009521136863109
Ni 3.3042502986689257 4.6002299650166245 9.926250304275342 -0.26340360533646895 -0.630485660100211 0.8443659618955716
Ni 9.030798673935173 4.885974278640609 1.9263842521140806 0.8645694334266402 0.9695984833445366 0.36226560721170514
Ni 6.30513091648446 2.2528647740329952 6.968233157131677 -1.8093855676201742 0.558315051473232 1.3355309978848677
Ni 3.3922403626957127 4.453400534858764 0.9095035979745404 0.6297870913712896 0.6773447865455947 0.1502987203889734
Ni 0.31043350495717953 0.3790420477305636 5.472075639215969 0.7723241655369731 0.8808206051781798 -0.19723832236330546
Ni 6.706037355358012 0.912871839389203 0.7326198621131886 0.6657285424629051 0.3462311794566618 -0.3427535053207065
P 0.08517620560619982 5.746982130031432 13.283479739629744 0.0933205032317167 1.0056504918720874 -0.8564138941990411
P 3.9783453705276135 6.100729541843166 12.951287613969235 -0.27988257682809864 2.8107564582803013 1.6599440530251734
P 2.4126784374731503 8.603559042843036 2.0846460078964784 1.2021380521122975 -0.2123597513857762 0.7835004938687669
P 6.066244731257746 8.129479519636327 6.17992515853795 -1.042245517387302 0.61509195125296 -0.8479045711764494
P 4.803418626858378 1.2886122081369584 12.892874976853339 -0.36888851184486143 -1.956439041598972 2.112822020508813
P 3.6889264459396087 6.303416705910673 8.754517167404142 1.1283520193690826 0.7164283828106177 -0.9648766523888351
P 4.703757341903685 1.63272174454182 4.520340457765112 1.1367818953039908 0.5538199918163559 0.3214354605692206
P 0.07973905791923888 5.730104450392719 4.102177936386825 0.22202401394841761 -0.32210703271494845 1.0514618937792473
Ni 2.893906583498201 2.134246873211806 5.387666269297299 -1.0543014201105716 -0.6898089804508766 0.13945766390941142
Ni 1.6928102960378333 6.7815902745834995 5.124203045875993 0.8607292337449435 -0.4464959752166956 0.7834416156063733
Ni 6.995638642773014 1.2591879660007468 9.526517370193528 -0.9419221004751906 -0.5591627441855079 -0.17602337884858718
Ni 8.372824475983155 2.4427044769384567 11.061282922213092 2.0816715630479377 0.10035247037783362 -0.2795755871106411
Ni 3.0182415589457934 4.364799555361532 5.75523678339552 1.076914529524397 1.8628359741298306 -0.019606718487333974
Ni 1.3738394753347178 6.668880929357062 10.034173537107204 1.2000883686721202 0.5344230753469829 -0.29616665870010284
Ni 1.3766296265877953 1.2039411475615445 11.969405121773118 0.7995634608689003 -1.1630899370709002 0.13204543060574034
Ni 4.093078943133734 6.803245860289573 2.250915315412381 0.11820106852348031 1.2773675021702582 0.382647770412483
Ni 5.563698370756568 8.222475443264223 8.437686374475854 -0.6812875732434267 0.2831476207326156 0.5988204677864462
Ni 7.149598459466517 1.0818948255927834 5.252718689132527 -1.5968324692766693 -0.9722410631737063 -1.0999171610671572
Ni 8.126306406446552 7.633726174440844 5.249355918602675 0.022486096917658047 -0.777904487838228 -0.5961604044557798
Ni 4.7345310689596865 4.647452819067891 7.594075024966555 1.1868405025232787 1.2456020368332033 -0.5797590802796209
Ni 0.5307350944844745 7.681879078909804 7.872192013351327 0.8363924567717919 0.6170079373287503 -1.7335603929597434
Ni 6.239589716461191 2.36954051074665 11.88266059585473 -0.034167904130960505 -0.1625384569882749 -0.4460144075945867
Ni 0.6622943733236134 7.3142812103875325 2.9476078769785907 -0.037301821774251884 2.165328575047961 -0.9844530318588658
Ni 7.225041960995806 6.644116057450663 7.250125967849452 -0.5664834462166373 -1.2837332964872858 1.3452477109519994
Ni 2.121955618672106 5.337149030776303 2.9650235269569496 1.4583132580211273 0.4378616965804653 0.7679352924406581
Ni 1.591881589435501 1.2756735655614133 7.574591380530034 0.5426063824887235 -1.549928862746595 -0.7832796361072123
Ni 1.287290077641219 3.649034577533682 4.246695005898345 -1.9487208470191086 -0.9085499527726482 0.7909371526524701
Ni 0.5679827018989226 7.761079254675262 12.203389394210111 1.0728527007501976 -0.4653527029118824 -0.6018736527904731
Ni 1.9392918930090361 5.5519542046978625 7.74096737029973 0.8612753360564006 -0.3938852909995152 0.5470585047228063
Ni 6.29770874942562 2.111415047271591 2.9134969101885173 0.41667914896557917 0.1567773861347816 1.1420932802145751
Ni 4.021118571600117 7.093111573803725 6.4434813870010235 -0.701594917342211 -0.09069386424214702 0.36870210686566823
Ni 7.98845834551837 7.6720861950999835 0.36817869412626164 -0.3210081432238149 -0.8401547520277015 2.318406915064601
P 8.786760738845752 5.916661622412208 8.847561417181193 0.5851810226261406 -1.1184463302195964 -0.4913583829470248
P 8.79438350501429 1.5178878723808507 8.376831899106447 -1.9038504688689795 -0.016903717733874113 0.33676874849218136
P 1.8078447673085012 3.214026290011407 10.897201968621172 -2.2149272119116947 1.4514862077969648 -0.3374866004948123
P 3.789727498563042 6.000092615764032 4.50695502626342 -0.7064563591995705 -0.3458447426515205 -1.0338647495227742
P 7.029129575951293 4.228547169169587 10.937772226743531 -0.665142588052448 -0.14109699928504735 -0.5257659138926171
P 6.250841502887 7.7318100209419995 10.901125504844043 -0.9565514203525914 1.4078818408434526 -2.0782008308905175
P 2.0596878313934606 8.57230205429549 6.257941799556187 0.7499751084178116 -0.06429711941617314 2.3289417531576535
P 7.165983759472335 3.9923873082065 2.0410731458275864 -2.9785556494468834 -0.20493697655914384 -1.0273521452152372
Ni 2.92861934761737 2.02766491897252 0.8622615958264381 0.5641290870518477 -1.2794105007422159 -0.27349775634767737
Ni 0.9059894662982788 3.2272293586861 8.901435955347232 0.053478945754746605 1.178627627695183 0.13181351710059236
Ni 0.5166612433108635 0.3070725580555968 10.010645996981989 -1.2356428687379624 -0.8974816107736284 -0.7629974888194085
Ni 2.5959713148893653 1.439480974912836 9.827174403995317 0.43586754896857194 -0.49359807091082086 -0.5292417882563595
Ni 5.262672052230108 3.029520699795652 0.9546520748686995 0.9668875121712767 0.19813666580785877 -0.2380018774339127
Ni 4.027464797979666 6.966743252835099 10.849292518526253 -0.25556971111434695 -0.07829266236431677 0.5179546453783145
Ni 7.242503201680915 6.217569405101119 11.939926170788805 0.9295574082622506 -1.5425215145389304 0.3047078634018946
Ni 7.568285273972425 3.70973404450014 8.489973444232872 0.9137474378131877 0.8201099175616844 0.5175090732004636
Ni 3.0430611397002925 8.95600256044173 13.260805657534883 0.03160142895536493 -1.1832337590086266 -1.0729568304282295
Ni 0.12456931168028562 4.898429659724608 10.829755077055767 -0.7455525538700837 -1.2453981483525132 0.312398547177933
Ni 8.398327917338898 2.975924264940786 6.121899130615289 1.6028545071010332 -0.42622488367248534 0.13381537802196955
Ni 3.4504049863668915 2.441947671206413 11.769279243610805 2.4931385716849577 1.3292870738576847 0.7820812449237369
Ni 1.299636041029019 3.241034224689888 13.146115852007242 -1.1769191296445087 1.275329388694307 -0.15494547513236542
Ni 2.8663150877733243 8.367654489837747 8.633488430010033 0.2523116091883654 -0.3759711297232557 -0.11293339236663777
Ni 5.48685979360074 8.896616105829661 3.932358936443396 1.1950909154575289 -1.4207882644924759 0.26405769398070006
Ni 3.0647167254063667 9.028063231530195 4.492676016909436 0.17114728170320848 -0.789059218903467 -1.6221714622620904
Ni 5.40298201132277 4.004578263191351 4.98842753847665 -1.4299663314473179 -1.9967107446348258 2.649576315092134
Ni 5.9425844982700475 5.8941215769951905 9.667484747277518 0.18757174580781888 -0.2670193477121853 -0.1556162759471449
Ni 7.948156160751696 9.199475170767457 2.951010767330383 0.6372409765461735 0.16583178302756602 0.34627771642388105
Ni 4.41444783501188 0.48917551802564624 1.8356487157268309 0.7238763544482307 -0.6544326578341116 0.6540670469645767
Ni 6.151946141805701 6.09284234957548 0.9103607032614334 -0.31143901147814107 -1.6347269303295975 0.3566156080147794
Ni 7.664955808564342 -0.04995920827038018 11.935508431304767 0.19066401157989746 1.5794222442200216 -1.3478069870387432
Ni 9.145131048321899 5.3844813025237706 6.533202074256027 -0.6586960610961559 -0.7093730186257331 -0.9603527963765526
Ni 7.359744263158265 6.737969086365453 3.04453463134244 0.06247857815019563 -0.2741626436251859 -0.6029686856268648
P 8.625579354203108 2.040247954035418 4.121461893527784 0.5419360958945764 -0.3028294154322591 -0.8818361909268877
P 1.8682706900344614 3.3753262104915995 2.0087648355823933 -1.475700343149323 0.3218604639217812 1.3134164253740155
P 4.822448187855675 1.4322320525396446 8.64180326310703 0.5639336832115901 -1.3681338715215534 0.6205696865380795
P 8.882902421239372 1.6408186540605545 13.172526548427303 -2.2731148759960207 -0.5868910633387119 0.22849213817126454
P 6.30766575977974 8.182282676193749 1.8678248129224502 -0.973580093700104 -0.1283831512628047 -0.16637454290491346
P 1.5030891289699204 3.263446616128006 6.74073553045102 -0.7458852546191541 1.4051955522605413 -0.16443387423877487
P 7.038621561096566 4.613888940758814 6.475710369416473 -1.9405887048302775 -0.49448510150146446 -0.22028337710822707
P 2.306789461976458 8.414567327083118 11.000615368741357 0.5232894273276665 1.1666396020953715 -0.014388921731820381
