# total energy = -340855.27727867203 ev
CRYSTAL
PRIMVEC
9.43402533504003 0.00000000000000 0.00000000000000
0.00000000000000 9.43402533504003 0.00000000000000
0.00000000000000 0.00000000000000 13.80764968372296
PRIMCOORD
 96 1
Ni 0.2724291764167038 5.322724197905841 3.297680496063564 -1.3049456688988428 2.4426274503092835 -1.475870035957968
Ni 2.0052492301306724 9.338147219330782 9.086855919816673 0.3131027723338091 -2.071325186816607 -0.24332663208093577
Ni 3.931479065038581 4.017017371686719 11.36901171473233 -1.8497395459571884 -2.3805970154401 -1.411728982503685
Ni 0.6154616541595347 0.9232920102053478 3.6246185267851394 -0.9431037794881177 -0.9854917575360255 0.04058229229773656
Ni 6.521609556585881 0.6082512286857096 12.695084714591244 0.6392070991336088 -0.5672558056062876 0.7259085543869112
Ni 4.063696928463489 2.662461162890773 3.150560646404907 -0.08006492377339114 0.84806989310972 0.5836260194341949
Ni 7.22226517547311 2.0253154017685446 11.041066130117514 0.8180514923707589 0.8005137405973116 -0.04017117290224694
Ni 7.7620140602486565 0.7440898709891394 4.943815065662934 0.6889705437099812 0.2671733567915463 -1.9398682817244852
Ni 6.401948380725623 7.55728627900114 8.726903517846045 0.28002398750196933 -0.8684199175209818 0.21486452008550094
Ni 4.246028333844381 6.987810780764882 13.044279497606224 0.05375739622711387 1.624550504017228 0.843656851643689
Ni 8.603274390979255 4.2614152289743155 12.851097076420029 -2.1969022360891843 -4.70610608876712 -1.1596544290267898
Ni 1.4802740288459153 4.524898119277153 12.050737018617887 -0.7396829824631842 -1.6310050013933202 0.5137115538312443
Ni 5.200883762220312 6.5800627768342395 6.990302306824854 -0.44687238471950785 0.16826841749351668 -0.3701673785572851
Ni 3.0946055560341743 6.089851958476402 11.292144220661704 -3.8144490550950696 1.3872029723378625 -0.9522412230130117
Ni 0.5949124604305203 6.552628631501408 5.795857543814747 -0.9033282993623927 -0.8942106533318406 0.3512821116170079
Ni 3.068945007442255 0.3591995667582618 3.6999803504310327 -2.0332846871041177 0.4231166770608068 -0.08570206745451048
Ni 2.009126614495113 7.298303418727107 3.9030637810831172 -0.39226343912537603 1.1322295000466178 -2.402513355897217
Ni 3.0939923443950295 5.816755796476813 7.863291151167344 -1.2525830961367268 -0.920938299134672 1.164789179150194
Ni -0.3509353606676289 5.878963758761782 0.16152843637352382 2.599335930879343 3.3467443070112424 1.6776291290097625
Ni 9.06525860588598 1.2199232349153273 0.4756984573655759 -0.37058081194561987 1.0704991129163564 1.9547171738118592
Ni 9.103126783109497 3.865808815498746 10.498507792632159 0.10391781913158878 -1.0556527919321432 -1.2849928799259998
Ni 9.285203469809513 0.6226183056896192 7.976651341584757 0.4485076063300856 -4.328833466623622 -2.3109458308008652
Ni 0.6027408145560993 8.867662947702984 5.901403531144407 -0.24388661834946385 0.8383596078004916 -0.08173305550443344
Ni 6.905329098287253 7.405624889602723 11.756412413073614 -0.18534517047014532 0.23996851424198026 -1.2571180078926025
P 6.3126553320408725 3.1816155706162603 12.82052706110486 1.0381636340084444 -1.9850713606236845 -1.3735563280887053
P 5.689754948997248 7.822646540322284 0.9061475561773715 -3.0015636803062824 3.2887695302686715 1.4627165292951456
P 8.639736898445346 1.8277669137116357 9.240672983977316 -1.4985101419549869 4.783907413317316 3.931649193157862
P 8.662944600480685 7.717862822230207 10.346789799082437 -0.21448811058268868 0.35328782919312707 -0.35916459968887826
P 8.093780425076607 4.624955390735203 1.534775335930613 0.6631196440851482 0.5257150060500235 1.2349769530191892
P 7.622324448851395 5.520027401307091 7.776979254451363 -1.440619697396106 0.3408218355156324 -0.6223861709215281
P 3.9019316980570036 1.274527372874897 1.616434371409266 0.2699118387686319 -0.6231703573857204 -0.25362647134504707
P 2.064193019690346 4.96814636010169 4.3066060965717465 1.6845135148344212 -0.249189518619616 1.3184753279541617
Ni 4.261311454696922 2.425572789676399 13.479234286861953 0.3054195447569385 0.30724579933239987 -0.0707701287350265
Ni 6.970074813355761 2.978793462462703 5.01006456435113 -0.010186453614698585 -0.3038457725119154 -0.5853224333000113
Ni 8.861276112630657 7.531248369400516 8.144649632452523 -1.1986459797986388 -0.10549493381072154 -0.18784351141196684
Ni 0.9856952568123218 6.1222389670484825 9.499014330536552 0.8280422850348836 -0.3381214058653338 -0.2321351342404905
Ni 8.545189097714385 8.394593753165557 14.105618655418445 -2.406540217668423 -0.14607696899814196 -0.9002339767077852
Ni 4.665851890053575 5.8788128143583 1.3413400828685853 0.22620874145372652 -0.6025495958115752 0.5274427873744078
Ni 4.271443597780643 9.450534761748258 13.672237461569013 0.042601122499978245 -0.5425539319842334 -0.18665848996493015
Ni 6.297060888356151 5.338262037439257 5.236827398299435 0.37976016445204275 -0.4755275865623552 2.707790461539021
Ni 5.393139762130137 9.188495277303717 10.988127097608853 -1.6938165374029024 -1.2337479657080945 -0.5664495076549083
Ni 6.8727062390847315 6.652704771009893 0.07608918699017161 2.378681543584942 -3.9614552207757003 -0.9792113238439524
Ni 6.2700890102589835 3.7757138746705 1.0690901529310164 -1.3957691167403188 1.3567634249010827 0.8018723115077351
Ni 2.2946096516054344 2.02192858671542 9.540450456097371 -0.717130551083965 1.7915994472813466 0.6490762786182047
Ni 9.095664469162362 5.996360768569813 11.51163059095966 -0.14313408431973412 1.4524987082218792 0.35032540413069346
Ni 1.181413543977013 8.868219555190823 13.475755018361696 1.5789514752311902 0.3423511276759652 3.3306795402388962
Ni 1.3812922362626732 8.270517453503453 11.474860534271475 -0.04777932426680803 -1.1887706296664557 -3.2302478798836947
Ni 5.619839388109484 1.1230735320312668 6.094696330425649 -0.4052166568519344 0.20153257886328518 0.8332174014779198
Ni 3.905290211034475 7.370728430322756 9.341136861922246 0.5953569347178779 0.6093987575229246 0.6122398265161456
Ni 7.804250191147929 2.704282196680471 2.8051064543887136 0.043444187226563895 -0.2956089864244199 -0.44385699493195174
Ni 1.960899877582653 1.5630387320800732 12.143841413490554 0.6175884924225686 0.3717033555858373 -0.4660381590146812
Ni 2.881604134670808 6.555364498814517 5.779067809134953 2.2057429743092656 -0.11011803440502971 0.5593874586018043
Ni 5.121619082341891 4.914117697680395 8.748596115431434 -0.37853811911948354 2.5604495382267904 -1.3088280346723846
Ni 0.5986851271150455 3.204577987995941 3.4596862941130992 0.807724399413138 -0.970642865448651 0.7744250139300598
Ni 4.594521225383169 -0.05228902817116636 8.196772621779859 1.244795738881824 1.005879320053442 1.277515083491716
Ni 3.8450162239191177 3.2540688842875616 8.01491291765985 -2.8708521380206173 -0.12157152765760999 -0.9720870540943453
P 1.6470109905420858 6.467722404542851 12.973819593463404 0.26560189853936844 1.419461575261252 1.033994076011787
P 3.2317668486731144 0.06229381191444964 11.353105004812903 0.6492912228424883 -0.8400279966418501 -0.7732279082981651
P 1.5166138939841776 7.512936926453121 7.735652563583068 1.6229996145903403 0.33115834428393937 -0.9671564495619474
P 5.6530282888250625 4.062687487765205 3.7782421934288215 0.5509897214564123 -2.5503121926824726 -1.762199911073307
P 7.734127081705379 0.41554333896796014 2.521414938667218 0.39145816961526136 0.727519864738089 -0.18388889763959299
P 4.304887217177097 8.041619699648402 4.326295850603436 -0.12848085318293356 -0.7675390854435039 1.7217970817762285
P 1.4121131966486296 8.776813284857328 2.260104704371998 0.09439316747060517 -0.08645205824665757 -0.6767423770749055
P 8.637123673460067 7.157245873673291 4.165049491583919 0.2781972187058757 -0.3932641124757485 1.5452265721749194
Ni 4.361830993390636 5.601678889565571 3.791691339779057 -2.2957426406978656 2.4322324802282047 -0.605968391685137
Ni 5.200440363035084 4.917881873742224 12.761320062241616 1.8146609570865007 0.9469090121668208 2.4964727782645135
Ni 6.9662823352182786 7.439945873344415 5.447987297940322 0.472543821343683 1.8781777466932232 1.0752399700354514
Ni 6.971263500533181 0.26233099582376607 9.446628131905642 0.9577901778556988 0.32710988524617857 -1.3999890683589373
Ni 4.131593607954682 3.9705264954143 5.597248671323377 -0.838906224332581 -0.18658907017957543 -0.14157265336988523
Ni 8.749898010911465 4.593540086760537 5.326148749059835 -0.40034158814782017 -0.9595192447316637 1.0424386072347145
Ni 2.142863355980058 6.3278252445908025 1.481768378440386 -0.7326003645847899 3.007642796620827 -1.2533564839676417
Ni 3.0228692282794114 9.126787318355282 6.626235726456824 -0.9407249948432959 -0.13142888006766398 -1.0625749729732732
Ni 3.0176710803845044 4.626559175022198 0.009493459576488417 0.1627163773270359 0.11318253226296637 -0.5557460051944751
Ni 2.3638931328036166 4.336642146059597 2.190183483069105 0.6190175115596114 -1.2332584276661858 1.7642177128342842
Ni -0.0921204260424689 4.280905925073913 7.902863113345163 -0.6161173071936809 -0.33189547956028 0.96314295752718
Ni 5.307120320195902 0.4980231346405458 3.748127841531665 1.329685080627052 1.2589306356213092 -0.12998314876007291
Ni 1.7166529646985376 4.130121900020734 6.530162443848174 0.9680244539891973 1.2849360585461356 -2.0531107206911092
Ni 4.034875981423668 8.127214610447844 2.2223138861552663 -0.9408831176877152 -0.1692212683250892 -1.023293144654515
Ni 6.145654217638609 4.276141742339017 10.415565729723912 1.9137584720113106 -1.3308155946870694 2.6848335956325307
Ni 4.326679815429793 1.9066070624552647 10.624254858160306 1.0891308690849306 -0.4668308301193057 -0.15654444418836913
Ni 1.396348940509991 2.001390713816667 7.206129218740897 1.3300962000225416 -0.5589226031502438 -0.3395072304692669
Ni 6.60025159079994 1.5649632732244672 0.9052060404606533 -0.309879380300505 -0.9828651185464556 0.9509577283148978
Ni 6.962857784064283 5.973502125467527 3.205073274319866 1.0964063197004215 -2.5572575136520537 -2.0569794596178963
Ni 9.033748961659137 7.312218605923092 2.154724755886168 0.7755087339125418 0.5165909322615684 0.32539804476139444
Ni 1.7901723232194304 2.1752786666277912 1.5969512225298426 0.29161297789114937 -0.9372064401670763 -0.7398907275986161
Ni 6.550713524382231 8.081016188957172 3.1178085410569043 -0.1294542728397964 1.3709970520019614 -0.837408813851448
Ni 7.763844261140874 2.4336294472122444 7.184410205884898 2.1693824334023604 -1.7712887607484527 0.33886754000273894
Ni 6.1225691579311 3.7850724276863765 6.976605045611397 -1.2084467679391444 1.477975255226429 1.3234745809409658
P 0.7368190677539217 2.7765279617969854 13.30415387326332 -0.11126706040780837 0.9188351367487402 1.1100743041058174
P 3.4359663245084433 1.9160222196224468 6.260181396975441 0.0483087144077168 -0.5427961299020265 -0.15576719970271238
P 9.537988175515572 2.369676190262016 5.49650743303705 -0.7736200015302612 -0.07323170290164162 -0.2736016289153933
P 5.52245194578802 2.36574220174627 8.721574237000613 1.968177155971507 -1.0695213223841193 0.9026556987754003
P 7.470021545738179 9.28877896536699 6.79170664196879 -0.39601262175516316 -0.7185374587338206 1.6994395400166347
P 5.061250754974356 6.193862086500634 10.998290372975791 3.166398903748534 1.0858398570384846 -1.361248971476262
P 2.205769436131131 4.242773595144303 10.068938888373168 -0.5870365877776407 -0.23007850882177797 -1.983411456422758
P 8.756171637681181 0.3930497926415949 12.380836391189886 -0.29171350802475565 -0.4265352158240525 -1.1731684043528248
