# total energy = -340863.31760735455 ev
CRYSTAL
PRIMVEC
9.34155019117453 0.00000000000000 0.00000000000000
0.00000000000000 9.34155019117453 0.00000000000000
0.00000000000000 0.00000000000000 13.67230296314726
PRIMCOORD
 96 1
Ni 7.664498823258066 4.08704018550409 12.600845636350643 1.2933793042174822 -0.6690264964878865 -2.585255798637193
Ni 7.97463828036721 8.968943511549144 9.01320564334657 -0.33153989599307415 -0.44341707918105566 0.18004124175872865
Ni 7.352836693513115 2.3476435917172647 0.6428733209926821 -1.0020710020509453 -0.437699202860672 -0.305868459368899
Ni 6.827972370105454 8.281209265409617 1.7693325246377882 0.16565386268880503 -0.7992929808163332 -0.46636726021932584
Ni 8.414952235512978 5.234901814154702 4.729700519158758 -1.594864546917021 0.0792658249108635 0.5537045492844141
Ni 5.369195935702925 4.393723269145451 4.709247195624406 -0.3655530197137252 -1.7434699387639718 -0.7176748536232093
Ni 7.772487140251491 6.666120676314097 13.23411864649781 1.837408020975029 0.5641532554215639 1.9895355670426251
Ni 7.797092782722138 3.977398414176078 9.464733195007813 2.710346652301971 0.16117474387152889 -0.7756558010133674
Ni 8.06083276141378 7.787461644761911 6.661678769330501 -0.24891903856704872 -0.45378762378210236 -0.9230412044102878
Ni 8.574468541826102 6.246133933778856 10.971790495980308 -2.0510540952723963 -0.5428112994106781 0.8551170297644886
Ni 8.733723284741666 5.938068300750381 8.042403751745558 -1.5833845713018795 1.603282081556755 2.185401434538436
Ni 0.30437852327784254 2.5441150694859247 0.5230614042744668 0.6991356571684411 0.08980837631340016 1.7886843305170808
Ni 8.47619543674212 6.908384431755921 3.014154770609615 -1.6153384985006567 0.44446866037402166 -2.125370289487469
Ni 4.206359802541894 1.5480442853704488 8.762893208499769 -1.0084740773638117 0.5489024999100804 -2.115569758457279
Ni 0.6279959686013561 7.90896718447934 9.722729988812988 -0.02664305650882508 0.9274082231297319 0.9545151066488529
Ni 4.128843621364434 2.2893242956108675 13.20330180749006 0.4992331577094112 -0.8829805889439761 0.9432757862896077
Ni 0.4650316962153704 7.743967388367327 12.35447066479214 1.1035431878555189 0.15844988874119809 0.926450744312469
Ni 3.157462553668822 3.8732121079972135 5.994497801309394 1.0814584401413376 -1.7483298379594343 -0.5065775138896244
Ni 9.3056877028103 0.08341163332750776 0.7842156419502093 0.10881088555783196 -0.34631782563319713 -1.0030336230745307
Ni 5.060037341334639 3.755480554444607 1.6605557808317126 0.6895176744627028 0.3709641634269676 0.6310826702542616
Ni 3.8473453562883217 7.657231097425809 12.718181108186942 0.7854481045134408 0.9522381376892181 -1.0077323141017807
Ni 5.880356205388325 4.402261445765866 10.424925888372714 0.414557474636886 -0.10793285382825282 0.11271176327413492
Ni 7.248575654934948 3.384200653155362 3.2754874318886946 -0.1870277003788908 -0.600059996620502 0.1427270786893026
Ni 2.27206111137178 6.006401738363436 12.45307539489803 -0.9905318910630941 -0.4230999648902584 0.029376396279588112
P 5.670759849992003 7.175814322663167 0.006898734610695868 0.3372006938232773 1.525516752450818 2.990932168734365
P 2.926801003218852 0.889639703492536 10.392822717941954 0.1292300726441323 0.21732275181800637 0.9667358170847609
P 3.571881732455959 1.4210832805038713 6.34018839492216 -2.5089022622771178 -0.562084031597361 0.6691936181933701
P 2.519537451665016 6.952906258640927 10.139831126580125 0.7788200576739619 0.2619409047480134 1.1695362069168762
P 3.1029546099268983 7.015242421209881 3.47794684315154 -0.23964069858891632 0.9233199119929711 -0.11009360892499749
P 6.100816783333379 1.8698793629705763 2.346932699768891 -1.4859711289477118 -1.9580963746967373 -0.39620622582320797
P 0.012461627583843313 0.08284553540278443 6.856796656516778 1.0336989133688714 1.3815761130693882 2.0502110305458108
P 3.144094795743425 0.041861353469804095 0.36364598670040166 0.7535034332860442 1.3266735474942377 -0.1772348826581851
Ni 5.555522490266148 2.109714315435039 6.491486005621893 -0.8538975555350906 2.9913090924578096 1.7170644521872493
Ni 6.919024457106744 0.5838309889230244 5.833219678682691 3.033167937475125 -1.0700921072859246 -1.4485523219796215
Ni 2.7543092840766734 6.078695993139569 5.590303883056945 0.11436061173146757 1.348994065368309 0.3568814600816564
Ni 7.680136577812304 4.8136259377314765 0.9936728082528279 -1.6909919234699136 0.3850522660889175 0.15957937435995098
Ni 7.034084327384254 -0.09100070847676886 12.914515265171882 1.0329280966411178 -0.6306692368659268 -0.7457201897961996
Ni 1.0028247247025215 4.7453952571674645 0.45874016234901466 0.06323139715582013 0.43843556680606427 -0.7315631815695272
Ni 0.9084423751572734 5.547974517936503 9.829551546222287 2.0378123997711417 -1.736682483528493 -0.8502260202207744
Ni 6.155035139028002 6.5452783866404864 5.050247397025893 2.7970283100609312 -0.1606083298450976 -1.5503230128612204
Ni 0.7493884755648386 1.6457942636593068 10.437531375825218 1.332682215582163 1.4466437921029989 -0.7374083274963945
Ni 1.0182663067085882 6.446883841407637 3.9233351282100095 1.7666543473002347 -0.17673557442426338 1.6715469273714243
Ni 5.446749483080038 0.39094106139098017 0.5893415692166595 -2.3932224175135945 0.8273336890036331 1.432370055792804
Ni 5.523938710010546 0.5585499523936728 10.273436775899768 0.6289620243668329 -0.6585626208420852 1.35813767954079
Ni 1.7180324691359636 0.693370003201995 8.604184946254112 0.31890420950693465 -1.1584480674235145 -1.2545782721898844
Ni 6.1133438017666135 6.493983936068609 11.854050375041632 -0.952199828252115 -0.8044498424269243 -3.0324863380270677
Ni 1.3385413454732569 2.1062486004173433 6.730013141098547 0.36368768437021237 -0.7351681253119661 -2.3201341821683523
Ni 6.369227536981483 4.257504788315164 7.41012841912909 2.5221619555005015 1.4141033962731324 -1.9356609285113564
Ni 8.784961686014064 1.7011522884433063 12.205141318659063 -0.7166916637743335 0.1301060474911824 2.907775493409528
Ni 8.976743705726436 2.0559536956861497 4.405352564632053 0.9861957255815854 0.876798114282348 0.7771457552953325
Ni 2.19799196211219 3.46490230285313 12.090526106157407 -0.9668803130824252 1.8061282370251412 0.16133980869448344
Ni 2.447962496232177 8.635169933160295 4.958410619831917 1.9909165065505519 -0.5665322971767018 0.060190039226335056
Ni 7.787975430007122 1.7476358408100263 10.227018614382438 -1.669378458965196 -0.2671769563359721 -1.081279491361312
Ni 3.7064934667012226 8.718263019635774 7.500844210333515 -0.7276905859879984 0.6253205709595037 0.6013411773257709
Ni 5.350101807680906 4.355983407497231 12.842489112878248 -0.4452862711793105 0.1529680396910204 0.37859134095492214
Ni 3.077125224417658 4.036184787778121 9.447834331215331 -1.6880791206984929 0.5275703140912076 -1.8631717602026943
P 8.472038447030869 9.022031539704301 11.379006405629589 0.5327621427047922 0.6204853543543895 -1.7619248030350494
P 6.136641627249451 0.4293142801232977 8.129646354692357 -0.6541665486569185 0.039716858973647726 -0.8038402338673833
P 6.95725942090035 6.967385661005961 9.800033182652433 0.8401231274588176 -0.17306840998532128 -0.8937103166566545
P 6.70437432320753 5.405067487368562 2.9305077302243014 -0.9068103443737221 1.0842835682949585 0.4324505528672229
P 6.061554249049351 2.3529122258681547 11.538370444679131 0.895731203741425 0.6623321151868464 0.9843589294831628
P 0.47174079736283386 6.0990138642001845 6.256664662995697 -0.1079469948956399 -0.4374922290561885 -2.4048430324716583
P 7.361113306735967 3.0828515945142816 5.470958109679385 -0.4275153203491347 -0.06607760835536362 0.7812070698488998
P 3.3399123650181797 4.32992982479008 0.18171743383618477 -0.19206397725121763 0.7166520687856497 0.00964420795798339
Ni 4.045675802489654 2.905091241221212 10.992463345937614 1.4343176664374784 -2.21027865739609 -0.4432291315399657
Ni 2.3993303873854845 7.451829097940392 0.926533220718646 -0.029518064063774968 -0.5789275855172611 -0.42797246249121135
Ni 9.126077722634472 4.480524950936361 2.512121195189145 2.5440808670607797 -0.05294004253214108 1.1272418170240395
Ni 2.3344159570405614 1.7704479056973916 4.226846755655933 -0.21962646025051852 -0.011247547889361274 0.31157090907031504
Ni 8.87817167104524 4.087787509497124 6.8378052855438 -0.6190511930110242 -1.4077293744259884 -1.669055014187506
Ni 1.778229416774859 4.948770140321777 7.6351747639264 0.005483648822390556 -0.09246175477584721 -0.16888625358317366
Ni 1.8455633085472296 1.3982151663170284 12.730800607964314 0.40756998757545937 -2.5099191335774065 0.08393366270017803
Ni 1.4797762386067854 7.48307658239913 7.4862966146541154 0.21625857221955014 1.2903122352563843 -0.027145450066540348
Ni 4.730803756203475 0.8715096234215292 4.704215836841304 0.46288212988420274 -0.7691997609753786 -0.8679776877772405
Ni 3.7464472756788076 6.362940673890083 8.507152398998567 -2.199158379113213 -1.2048598219188347 -1.7842733459335787
Ni 1.2323279229632882 8.485200690858182 2.6384535137465823 0.08649550989008328 0.7813901323939834 0.6037464443331538
Ni 3.995240774509766 5.426964080364461 11.066511943787395 -0.5834213596225566 1.2043062634082098 0.07698782750996418
Ni 4.967191676750067 7.547019491553108 9.925694777926122 -0.9887796842586778 0.9373745903138244 1.5262122358559456
Ni 2.6088520103825026 5.266840573306995 2.217442003185893 -1.091484971139404 -1.245199916298778 0.38633190413228946
Ni 1.0725126870529496 4.1141400218014885 4.531042184555482 1.6378585339800438 -0.8768351381678706 0.41112479480625325
Ni 4.5196567035216075 6.405893120389717 1.766748651931873 1.6587986265668206 -0.39136972366651307 -1.4121339312515875
Ni 5.437034271170594 8.26155464439282 6.161764791585274 -0.6090961386808413 1.233244800819431 0.20224271755643233
Ni 0.299680657826632 9.176905095710703 4.792661631416888 -1.613711761530511 -0.14871646350351808 -0.6413411147574761
Ni 5.863812320492532 6.775117880698118 7.8862251812163215 2.3063875220062213 -0.03792480007023146 -0.15305108632312994
Ni 5.137366691513841 7.842838352645737 3.3850432609575085 0.24497368076605552 1.1313077595632968 1.2838186571122405
Ni 7.813524569018975 1.886834276062537 7.703371814910724 0.8359715671842893 0.29676649706763086 0.365088678482797
Ni 2.8766929294859174 2.6581567108229263 1.624516081267644 -1.2847506820082066 -0.7738827682733446 0.4171730578828622
Ni 8.059552969075707 0.7608113227983644 2.6984066469327503 -0.43070245982786476 -0.21716694296643244 0.07419072438080127
Ni 3.8063266106206632 0.2840391666524287 2.713049526421262 -1.13611649380585 0.13953505411456615 -1.81256833622353
P 3.2467490877365686 3.661588636269787 3.5746234773554026 0.4390914552225083 0.3129171386855643 0.9546943125391945
P 0.9729411065310711 1.477571632827335 2.523647733626704 -0.9488129140577529 -0.40801067465730373 -0.7423057647980119
P 4.964239746977582 3.5739555565366286 8.564617877442922 -1.8372581256607259 -0.8331343548458102 1.8465812028338648
P 4.844116756647267 5.6418290699116715 6.390544019727788 -1.7501676624991214 -0.44577272389742584 0.6349940894935259
P 0.3361145707970261 6.8087474603846525 0.8337099758538652 -0.8671886162170419 0.4977758564375943 0.2985837527820277
P 7.462730686688777 8.398025347070757 4.2561334487879465 -0.8523597787343254 0.45471450647174594 -0.3742659741066909
P 0.28931901066321447 4.118586599560041 11.33144016762796 -1.2106566311062699 -0.6446750642267156 0.7133728838137456
P 0.6895857413322687 3.204151620133626 8.336617734563145 -0.053829130005313745 -0.689919794997128 2.908563279418146
