# total energy = -340864.83349640574 ev
CRYSTAL
PRIMVEC
9.31722757310751 0.00000000000000 0.00000000000000
0.00000000000000 9.31722757310751 0.00000000000000
0.00000000000000 0.00000000000000 13.63670435303967
PRIMCOORD
 96 1
Ni 5.912982670127055 2.523953031603327 6.753059292646356 -0.7057454491754749 -1.1854189395854036 -0.4611242666528317
Ni 3.1864265299958903 7.8051904191081025 9.068435009550862 0.0029518835394723355 0.4572874094052447 2.063349110589666
Ni 7.485059804902171 0.43786589405372583 2.5088125371743675 -0.5374317802663197 0.12561741559220946 -0.30938187183879623
Ni 9.403784382895417 4.181683437323324 0.7322651215122971 -2.3486659710594586 -1.0706189263236723 0.7140711954323509
Ni 0.6381145392325179 1.1838562231619005 10.341026642462012 -0.6087531535191258 -0.7429369706241075 0.1681396052251362
Ni 0.05582882622666363 6.115660316473619 2.6780301566942972 0.325684979874194 -0.5261829468253776 -1.1367587553755392
Ni 9.026930488638095 8.16148119262406 3.986090610646779 -1.7821534713770983 1.5417951778958672 -2.6816266586594595
Ni 8.934447690052338 3.695221680627674 10.705862245172307 -1.4706576385190928 2.5448136314617464 0.44586374094933534
Ni 6.025935417180767 3.3871289241461846 11.216066160578036 -0.8841260154023289 -0.3523696882542318 0.8539985998893292
Ni 6.283920125022904 8.182361099095013 11.625344937704416 0.1887238571343911 -0.2607448275573832 -0.15732297422560648
Ni 5.30317014066525 7.418003719729725 3.756679975613708 -1.3461820498408106 2.088052783983933 1.381477639818311
Ni 2.352301752301955 9.090604420285796 3.632899678667138 0.40574630410315926 -0.09450269646527595 0.8900151271932543
Ni 4.788346743943905 3.903144925967164 1.4990552289362933 -0.28114498848029 1.0660557324330222 0.4376161562285625
Ni 1.3118097062344591 3.3480245209964337 9.342969908318638 2.1385808746404718 0.36470918365619126 -2.237391711562798
Ni 5.264252082062317 5.892177301474828 9.338155696951596 -0.484846807080752 0.7826355747653102 0.09959425205557042
Ni 8.143219427035898 2.6980174727859927 4.077742312553728 -0.026569522958412306 1.5300555208614357 -2.1425874246967034
Ni 3.1937126017764728 1.8097689214687778 2.02310081727966 -1.9502694224531507 -1.003456312434246 0.6724524914503
Ni 6.897487497103092 5.668973803296264 11.439844531683532 -1.4218149059847773 0.14092190715976374 2.23373226043334
Ni 5.204789537172703 1.4290576950923253 1.3169593377857736 1.5232402977118151 0.13797053784092367 -3.829605965341166
Ni 6.928513864148283 3.207660491105798 1.240816160787749 1.5554616196393662 -1.4531412269018844 -0.22159438261016676
Ni 8.623606351505282 2.4832833342603053 12.569645928704476 -0.002406295448647469 0.1359085131055724 -0.1194357122615298
Ni 6.445192013066516 7.715642547134727 7.082454025997342 -1.8058433587948706 -0.11869009234475687 0.5959614010710962
Ni 0.8096931441606315 6.228100616023582 10.865739344282987 -0.27797661805463736 0.8401503811523273 0.203337750392824
Ni 8.227074473103984 8.769952041348775 6.05529679570014 0.28358033739466 0.5040362355250093 -0.6521186649889543
P 1.5448801481670345 2.8954308856849496 11.442939714606178 0.40484050445943826 -0.7773902672059708 0.29595557113056126
P 1.891350564065685 2.0488489750362326 4.0202363854057035 0.3821104098517742 -0.8418241693103243 0.1871205172030132
P 5.9687835446716955 1.482147256480765 8.868902859154586 -0.8843283612211221 0.518311514497101 0.13722568925509915
P 2.772294409147635 5.129021844436516 8.455478847584239 0.015169251541270648 0.6553999068433874 0.14152997305740786
P 8.665487288402622 1.75265431786907 0.8993733207622475 -1.0083696905754633 -0.8778388968420365 1.0117614898658316
P 5.0415796658421845 4.826780306725111 13.088276344517311 3.370166799700241 -1.6400069477816142 -0.6497270248283261
P 1.9677052421243477 8.54518324897694 11.001329226884144 -0.5575912859333301 0.789059476013783 -1.289343700695528
P 7.562476646877697 3.9356900010689224 5.962962141029102 0.48438400851172053 -0.41572552680305824 -0.1686016324632193
Ni 7.668096736014122 0.34671173208677974 8.199327770082789 1.007585247000955 0.2996096229433808 0.3071465547503742
Ni 2.439706661986923 3.9100117225174067 1.2316209891250165 -0.3106226862244328 -0.1770093969109403 -0.012541584110436465
Ni 0.9259451214157557 6.139065191553956 0.28520312407310444 0.6004415483296368 2.57235734540797 -0.24516008574524875
Ni 6.987547816580216 5.485694624273451 0.626136311763059 -0.06741123956512261 0.6378562415326693 -0.2937392802055328
Ni 3.5335491518084035 3.090934266979022 12.975869586985777 1.6249227997549822 0.3247295579394601 0.07375955038065361
Ni 4.144656775870593 6.817545686518183 1.8682419768147884 -0.7611599213900376 -0.5703691544242887 0.6565185938288628
Ni 7.1320859643195735 6.559430537493273 3.481477963368324 3.637363296420239 -2.424726144548831 -0.13264218364947478
Ni 4.761280198518595 -0.02245358616883122 2.910658962050914 -0.4816771511035188 0.5322389232114705 -0.3544908483622927
Ni 2.3748867113762926 2.944206570814553 6.92129580812729 -0.2312941263964339 -2.1651701950932263 0.3630510792274779
Ni 1.136450170451409 8.057780452319859 1.8405455868212337 0.2531276773317576 -0.2658255845144002 -0.45328497311407095
Ni 3.3425180396379623 5.709280128772992 -0.08241926133485378 -0.512013340193215 1.3698076596795505 0.9072042373780311
Ni 7.819296701302223 7.759871425321973 13.606921667893893 -0.13922420774236668 -0.7161041667019796 -0.6210934202520336
Ni 0.9237714122771242 3.766889793333865 3.140669626524738 -0.11379136949155887 0.12180986892066119 -0.02570846050969766
Ni 3.4618065012834855 3.6608783806491223 3.662859223181797 0.03300653683300767 0.4546286316261589 0.29688116826862415
Ni 4.907635205589427 8.109956925428891 13.793799160115762 1.128014947744638 0.9277797475365377 -0.47926365656601977
Ni 8.289686240834822 1.9421201358462405 6.13078963022977 0.31384376426489174 -1.254939255073729 2.3941017347947544
Ni 1.2777366058487936 6.195825740514709 7.052562497242272 0.3447584515658772 2.858855113559741 1.4272592169288
Ni 0.3931292269764018 9.092868506529634 13.431348767604735 0.03840276814791451 0.8310463619685301 -0.7804208265021785
Ni 5.561667296011137 2.3639576037054186 3.339969777960227 0.7943865446536512 0.1847018804591916 1.1007273156732784
Ni 2.630411671200433 7.793161878611002 12.796178472211942 -0.16083227293044558 -0.008742779189636557 0.8509960656175796
Ni 6.987547816580216 0.8308749287974301 13.112222550506154 0.46245558386974556 -0.4249403605331068 0.2683444942815121
Ni 2.5978106927346296 1.0666548204407387 8.976906295044813 0.04645212081495226 -0.867250579803229 -1.2899209133552367
Ni 3.974868942037401 1.4071994797505776 4.923109256757192 -0.4600361757949754 0.06203789106835122 0.7203904527821593
Ni 5.544700625023361 8.612304554740772 9.26732706642882 0.12523354989022947 -0.007057678177729781 0.26471101129398283
P 0.6471531814759236 1.6907599766434815 7.84578185174146 -0.3096562085461054 -0.2502822374631625 0.09907360366541001
P 4.114059001283083 3.667335219196365 5.87409163148341 0.8664836197302174 -0.19657909151275177 -0.2712524119569264
P 8.562858029242625 7.510216318722597 7.821358603712763 0.34001656600551766 0.013220869565648198 0.6078635518253209
P 3.0286486022051156 8.913455976853292 1.0766932011778227 0.3197812127952493 0.7268948295595804 0.8530586045735631
P 1.1206202011992226 7.416429108309114 5.067099551528906 3.1755998535215113 -0.5277587759529299 1.970122452623336
P 6.683312392217859 7.77157386286214 1.7539121435600915 -0.8437144443545017 0.38349366335254603 -0.14895840431099508
P 6.905705291617763 1.012652170772891 4.6203338419191535 -0.05391911861595875 -0.6494228633243462 -0.017986152164775473
P 7.007440096953034 4.596821818724396 9.647872446158603 0.5798799221282014 0.033973014511335047 -0.9474366025355166
Ni 4.675953030530647 0.23445964052910315 7.243040166108663 -0.6527830380458306 1.2727431160243692 1.3959449801965507
Ni 1.3036850839931955 2.200785001284264 0.2462580455108829 0.1389997504363864 0.2698475611895998 1.2260878780596753
Ni 7.886958406251828 3.1421137967625774 8.322344054387406 1.0163365108310238 -1.2553866270237928 0.18591184160689272
Ni 3.5179241615577173 4.662685298797207 10.605646147893603 0.30668504173292344 0.7326047354601641 -0.5521752571240813
Ni 0.45582391803057354 4.175552701733013 6.896353590535704 -2.827934255611168 -2.6917984569861386 0.38691323055705623
Ni 6.199478093632342 4.6570204245739415 7.5683707248935495 -1.8013796665965622 0.4191767185764523 0.12504920179356527
Ni 2.230665349366525 8.534785223264498 6.7885420895287 0.3474704511804016 -0.37892584147620545 0.0059688159889252045
Ni 9.162784980495736 5.319847977605457 8.781860389613177 -0.3855793422369811 -0.04085225812967158 0.4959670853636297
Ni 4.0045815800275255 3.3611618115471 8.491957656069324 1.2688684635603114 -0.19283582242023564 0.1908488738971939
Ni 9.52276537603869 5.425346942786452 4.902559180134107 -2.5614103594781628 0.8355758744077675 -0.8654688053124578
Ni 5.389885575526992 5.829295334151104 5.481409631419372 0.2884559203194065 -0.5880483168716066 2.2165675757285954
Ni 3.9040859659285947 6.879458662198453 7.199170932896777 0.7067852032938988 -1.06881529745603 -0.929128034034316
Ni 0.7556299325150682 8.21529749774509 9.274036401837002 -0.5542511658165035 0.13828035577185863 -0.7164224692733469
Ni 4.037014848401193 9.302655197337304 11.249134863856352 1.0458381198345665 -2.0418199782686384 -0.6526871358979146
Ni 3.7623523036188473 2.2360320723148828 10.672725526134402 0.6126715147369255 0.7034129443875563 -0.5100965827864763
Ni 7.626979811758737 1.7457223007274418 10.493416417681544 -1.34186593896396 -1.5183102074000496 -0.5117163777780864
Ni 7.805553790974398 5.907578678269333 6.592651111577246 1.5119264153608931 0.8785742323461644 -1.150837087845476
Ni 1.900490764087106 4.7774549051823945 12.183822339686072 -1.7481269779200086 -0.44620826877294767 0.5818861539249527
Ni 7.987416751441394 6.913270880218573 9.897929125256372 -0.5149284569574809 2.176573037613529 0.13908459684070884
Ni 0.6185996065670062 0.9585377143769527 2.508894528774967 -0.426906226010226 0.9681481240512553 0.07611673775892053
Ni 3.2064865204608446 6.811834226158211 4.381895745315487 -1.2142273791766636 -0.5103071561353857 0.45209378101944714
Ni 2.3401148189400596 1.184704090849922 12.309907718676781 0.08658112762535411 -2.9810419062038465 -0.7079270302078259
Ni 2.098994292584948 4.768715345936632 5.57943058993656 4.335260453195889 -0.3386304842912684 -2.034352980467632
Ni 1.0505732860503478 0.8193793337042296 5.690283233947634 -0.08362590165177211 0.8932066375473585 -0.6170516460824921
P 7.839151712765677 4.496195763442692 2.739286267847034 0.9025759945774005 0.10396615587102095 -0.26553145031274916
P 5.205469694768588 5.316456506853371 3.521856031495576 -0.8107798984100101 -1.850482080550168 -2.3390171351157845
P 2.2411006439883314 5.6676693914685385 2.2454201105835723 -0.5527959214272157 1.4555652629623448 1.014991309657039
P 8.38360389243108 8.999332861254354 11.37515222708747 -0.3307084012307143 0.06029262624247036 0.19996934814122336
P 5.088398733230199 1.4935888116553881 12.430973907298947 -0.507204605950662 0.43218007281465565 0.13465612875571004
P 8.738310737299084 5.399482319688118 12.523567580890061 0.4856075965061765 -0.16032396583545938 0.2789685496542615
P 4.808835326866541 8.36919945896205 5.6180085697415505 -0.765545709162559 -1.0817358621724402 -0.9713352635299853
P 4.486664239872954 6.892400290974961 11.105704534447826 0.08382284815392661 1.1145793910650224 0.1528294572306271
