# total energy = -340864.5727218229 ev
CRYSTAL
PRIMVEC
9.33154169305259 0.00000000000000 0.00000000000000
0.00000000000000 9.33154169305259 0.00000000000000
0.00000000000000 0.00000000000000 13.65765451447166
PRIMCOORD
 96 1
Ni 2.9038171048535006 2.4799598230075914 0.08583991788059395 0.5061849064368961 -0.26154572619212374 -0.2922148731412064
Ni 3.96300306393064 5.200813392016066 9.9372547480893 -0.968061734985036 -0.2436017401191934 1.641112007920335
Ni 7.615275124642863 2.4699750735122996 9.097349751549453 0.30171895597689974 0.2990311247320915 0.4511761543011843
Ni 1.0424265103915848 6.887713490391577 10.884153334127385 0.14120524272813748 1.0194413750085927 0.8489224709180024
Ni 1.4142884425293045 8.303513642657553 3.360397303573371 0.909885126644304 0.2356058663979104 -1.5533839111747314
Ni 8.277002733016316 6.917733059668542 3.068083030825895 0.1010052734704841 0.8325843958796113 0.8924954704129467
Ni 2.2877207348276873 8.389429146024979 6.450018465530184 -0.5642303885164025 0.7691771352675592 0.33667027524110404
Ni 4.809009955512517 8.753956486477374 9.827296527829708 0.35956234934792913 -1.6348156333886619 1.5920702720013356
Ni 4.1262583839494456 5.961166063394879 1.5126942143074307 -1.4997710109452815 -0.23687033493263077 0.06066800730401809
Ni 3.2152666367739156 0.0065731378920403935 12.635119131250487 -0.904172906750875 0.6742689758337485 -0.6651047928359771
Ni 5.702691693049014 6.592118247623032 8.93897576093344 0.4022084661532299 -0.005560781917229133 0.05236000165895498
Ni 4.162884684668154 4.975307358087831 7.600552751485179 -0.42246490240942086 -0.33948794719555725 -0.7038729147431103
Ni 3.909141405905573 0.816680655844632 6.215243411346181 0.6158092890349588 -1.2416983309034229 0.15420499742191507
Ni 6.264543811844801 3.262736188813679 11.50281774439722 -0.0564025471594448 0.010498071317846436 -1.0527525875662127
Ni 1.0872272415382145 1.6016004767526533 10.071659740991667 0.6637163971288828 1.8426972943984266 -1.0497575094936307
Ni 0.549725780506879 7.22223059310859 8.544898227745774 0.08944302255418145 2.18590922741279 -1.0229380753079416
Ni 9.240978973307982 1.1381587955057848 2.706441936185552 1.6649404777985004 -0.7559958606905948 -1.1506388557917409
Ni 8.250165219419626 7.978402733857599 0.22323566986075347 -1.0236381866987596 0.769540689254565 0.017590973608885833
Ni 5.530627397774549 5.531803172014182 5.629453088923973 0.0034437355742263274 -1.6379228115590758 0.7913454438344824
Ni 7.212955040773712 4.6691114840794254 7.509579552579016 -1.1085586387922393 -0.7049934015007987 -0.02005589020961062
Ni 5.705696449439186 4.4839083782541485 2.325639454055833 1.7264304667831816 0.37049313732781997 0.5487852576059259
Ni 5.370815416600382 1.0086463298561132 12.523768644986502 -2.7005175820266913 0.2606846637434091 2.9405521736199165
Ni 2.0213145541350963 3.903841090285643 6.791788042366581 0.25066790293735536 -0.5312449347293173 0.07739380469913124
Ni 2.0559345734131624 4.394512209875745 1.404280364180052 2.111441081000886 -3.1137637940513216 0.297798537876571
P 8.27034934386665 9.048207987257767 3.992937716179187 -0.22012499715349185 -0.5611008417484852 0.36505859657580997
P 2.3099111407153536 6.998021643460587 1.0940709941362021 -0.41757106465222926 1.7387131408052763 -0.03399615443978661
P 7.870464792351024 4.125679828371214 13.157237545979964 -1.0800085950686884 -1.4106570895957447 -0.5229109609423253
P 4.632895771190429 6.760860514093455 11.173067193121511 0.7361425734100935 1.223772085442305 0.5337286203831195
P 1.4267087243781202 2.6889583598730495 3.1135630981998683 -0.6008529248354427 0.7821789468438658 -0.45109696432381663
P 1.4156041898927028 9.012766792320276 11.1131241694459 2.4455363964259624 -0.02066498454851925 -0.9052000624638087
P 0.04900179116791953 0.6095708229958533 0.630927922220034 -0.7570217308519479 -0.07548090394713451 -0.6033823761255156
P 7.145730615199807 2.5392431066931858 5.724455647486273 -0.6320550614698598 0.5894570242936751 1.2819150123316245
Ni 1.0481840715491502 4.463882890014059 4.546974668898052 -0.5508920195362835 -0.6104847914982519 -0.3683907462728365
Ni 5.482476643199125 2.8887280021115513 4.157922170853579 -0.4450273610909691 0.1364103924426554 0.0697206044245896
Ni 4.338317666454582 7.246763215933937 6.484203634970418 0.2586414080611352 1.2517413169617218 -0.11167689425171735
Ni 2.6113199338909703 2.3124586515678907 4.882543436351625 -0.7688860863897016 -0.06776553758074781 -0.29751443097724894
Ni 2.793350315577558 6.21490934215746 4.7596377021436975 -0.03007367945692885 1.8293830937880233 2.1112965850032217
Ni 8.801733979389422 4.8300619133268885 2.193337790626589 -0.9756819705344552 -1.3959748049932217 0.7948079484617859
Ni 8.481494135296517 6.144129599239903 12.047935609669729 -0.3249982382198145 0.3117560284979276 1.6442163578772715
Ni 0.692943481281536 7.296164397081668 5.240428585504254 -2.5110856430816817 -1.4282748026775078 0.5779742204650562
Ni 9.20324221914073 0.5069509270382193 8.33439264691444 0.9472483977841105 0.4454793610267231 -0.3883466205694731
Ni 6.038207270715556 0.7680913188147424 5.133256763561756 0.19369688486895026 1.1961265558108949 2.8109894002267137
Ni 1.538967169638265 6.003549925271153 2.737417055320757 -0.9082275364362228 1.2631986668690438 2.256455670172785
Ni 3.118218604296317 7.292403785823162 8.539175193292072 0.5426614040963751 -0.8595902350444938 0.9598077225063599
Ni 2.242005512605788 0.3560328381481283 1.1573323139992195 -2.5715495047946937 0.6158200876682361 -1.1169712883359666
Ni 7.467556821362058 8.38002295210792 8.640460678803139 -0.7970949447237499 0.68216997584838 -0.20188764820985877
Ni 6.7193444855845295 7.920015278164105 11.518893191084638 0.15529900181704223 -0.048981314994709195 -0.7702986504665121
Ni 6.221562731307126 7.183019455371007 1.7330744324433625 -1.527916363031246 1.3908958478084175 1.1651640459911095
Ni 5.234910844965407 2.6963302777247127 6.902072866581628 0.8365973736937462 1.6663242455199043 -0.8226828204951832
Ni 3.8235338434104307 8.348510336177453 1.8525106994902154 1.7155472442117745 -1.2421657574581446 0.6077717634424629
Ni 0.5950406795948083 5.825756063463876 0.5140074387843308 -1.2868996100304095 2.1337058059363576 -2.0282602373063328
Ni 0.9763498644325588 0.6281219276656096 4.899315016041239 -0.026223452472903225 0.36150018980059034 0.6570618679268426
Ni 2.362960954622579 0.12003161939993695 8.856169527221928 -0.05796423521960985 -0.1736433086521848 -0.7105711526988924
Ni 1.0489772525838228 1.3856779360315816 12.512719166596433 0.09849690522633359 -0.29644073829709594 0.6993945672567826
Ni 5.5559345385514 5.783353538504433 13.464685712868995 1.7499609458049539 -1.5273090684645505 -1.201119381039796
Ni 8.304624096106094 0.23797017402249646 6.13889740387354 0.1552133840817714 0.5775109076753925 0.04523264658555436
P 8.283581469833306 6.907906946380185 9.9059651560027 -0.4395977054349655 1.4332727701127317 0.7222280202115303
P 3.540461529448129 8.317464297326207 4.412283197669047 -0.24721028340605813 0.39652992771121387 0.41548512865747794
P 4.030694066583765 2.7122218930429196 11.813789501388515 1.104191105852163 0.020248465836390936 0.8958703004224506
P 2.0439062163108908 6.147852884332074 7.0693790088022155 1.036561322518331 0.7298875936393172 -0.7029246918972281
P 3.805029396448596 3.7855078114540635 5.556316198602201 2.3256980494093753 2.290615089663313 0.8457764690898532
P 1.9549019726790324 1.4817461566428196 6.919514450957001 -1.1115418897902793 -0.2402153401454637 0.8654590351204451
P 1.5998181523100359 4.444044032605658 12.887949785246116 -0.343894303793369 -1.1192482572956015 -0.836398627419379
P 7.523714038616882 6.043031677714683 0.6744259701614835 1.9587214098752457 -1.093652153994052 0.1083588856220779
Ni 8.010568557698972 4.928780291748091 10.211650594686441 -1.639064895583319 -2.3477378028182345 -1.2893010203830506
Ni 4.948199229785195 7.828416865971787 13.172561803569842 1.270315223309167 2.6522266082307873 0.828720799159147
Ni 0.13208143904785258 3.018464424759248 0.6898248800840348 -0.32865640379769206 -0.8306313859182985 -0.5191370957221898
Ni 6.793166311058595 7.942700255755744 6.101734539513728 -1.377900206879698 -0.8136317660365084 0.16443901644509745
Ni 7.164897601614133 1.866317648418471 2.093950340673786 -1.513482189883787 0.08809627871829989 -0.5808106614725868
Ni 7.5684027912645 4.65085898874037 4.33544448480075 -0.7166212155477142 1.5644820779704218 0.700095192868233
Ni 0.16448148458299375 5.226073875084995 7.334734457912404 -0.5823080719537198 -0.9898248376937405 0.26404946645058397
Ni 3.7166410345613063 4.639381192591577 12.582278343874751 0.23844153607449256 -0.0144745394670912 -0.13625149826728794
Ni 1.0124815934472953 8.150980263919205 13.015525956017026 -0.020825935606415744 0.34062848855790373 0.9715368380178301
Ni 9.282261713277299 3.216451742555132 11.517964702696993 -0.8662218814283985 1.1232918312373559 0.5928876472417789
Ni 3.6902887611270048 1.2749498635912762 10.41019220605244 -0.7111568499990333 -0.07587248295859836 0.810681939379565
Ni 8.564134267567825 2.6601985487099764 4.226565923902469 1.229917793328727 -0.45225910295271793 -0.5355769864457679
Ni 3.1323465582550756 2.642235331160036 8.664224382601933 -0.010569033765097926 0.20866867568743416 -1.096713052307563
Ni 5.692996221342838 3.412255479620271 0.20823521676385548 -0.006932208343459029 -1.002200585650274 -0.28496050557163827
Ni 1.7413776381451476 5.420832479492682 9.44424047840736 -0.34844952726421924 -1.8106724047523979 -1.9038334995881145
Ni 2.244795643539519 3.5680828925379062 10.78778463787713 -0.026763127026457136 -0.15300840601065263 0.7902730367059099
Ni 5.921908267949373 9.092616793657854 3.3449097440057685 0.2401567189933864 -1.8417313309407315 -2.106024023750373
Ni 3.5792714108975834 4.636992317945975 3.5307772555918544 0.24863261767488148 -1.9420737740162357 -0.8810715448467212
Ni 3.285551807987499 0.7864884530483562 3.1525549447102184 0.421183721704152 1.6062388501922338 1.1127397667531223
Ni 9.146786392555205 2.487760991772136 6.706905540652545 0.37590145282758486 0.5615111898130265 0.4368188571382477
Ni 2.964705413691609 6.874817299921958 12.733564095503267 -0.7728728389515915 -1.054156667002591 -1.3125011126485975
Ni 7.613250180119051 1.6183319308134545 12.85175740121108 1.7260090629750469 0.20757235729946188 1.0818785583978916
Ni 5.472258605164225 1.3227273565033246 8.637797456834956 0.39624967746663375 0.43304036393242196 1.2252080465578836
Ni 8.772554248855052 0.3496183364630224 10.833852592370919 -2.8837950713345304 -0.8631419569514941 0.20656139953644423
P 0.2574432350007899 3.694749238004341 9.322482523814312 0.4586315821379649 -0.5622436971036768 -0.39980345625616304
P 6.073629802569879 6.344729748679416 3.888238752756552 1.194015165894847 0.6303956714895659 -2.6553638683081884
P 6.605910266084752 0.8029119662368729 11.048059062594621 1.9182031380462252 -0.17185484929319436 -3.772917511510186
P 8.086396664613678 6.276870778277773 6.104630116867363 0.02349525490846276 -0.9396937253653043 -0.4539673438930762
P 5.564631535308046 0.18113268738616933 1.2251287630722476 0.7760556075549473 -0.07665898341563572 -0.789711250665169
P 4.1030508400290815 3.016551458734449 1.9278731624798626 0.27066774309805 0.06175249861744849 0.13036187225573032
P 5.332210829065783 8.768271071267819 7.776763983839745 0.21304443615762664 -1.3439037953295951 -1.3008938674269723
P 5.635038016562227 4.30181267577647 9.175007773768858 2.5770380387130913 -1.6496105323096495 -0.8499840794132973
