# total energy = -340877.9709212393 ev
CRYSTAL
PRIMVEC
9.17736973603259 0.00000000000000 0.00000000000000

0.00000000000000 9.17736973603259 0.00000000000000

0.00000000000000 0.00000000000000 13.43200827143399

PRIMCOORD
 96 1
Ni 0.937908809077827 7.164423635612386 3.177395295554626 0.004113250837425174 -0.2173782876462901 0.4506945866790754
Ni 1.4375615146242489 7.016557858083844 9.273216120648879 0.6845341052051824 -0.5289412262968052 -1.1462949770007484
Ni 7.958981932960085 5.7071491312828675 7.145640313438375 -0.703782411911833 -1.3039820194339928 1.057405770067508
Ni 3.0480797350145665 3.3941032749808127 4.682223257731829 0.7413845385353232 -0.05354579443694004 0.6601081109523342
Ni 4.023817661208373 7.8256163992557175 4.5473260210564135 -0.5354209204838779 0.06424749712516033 1.2360167071376131
Ni 1.949493540573674 5.494426883434427 11.105987287122705 -0.4423122761526511 -0.6982293433040877 0.04797395677611738
Ni 4.655395053446254 4.024304061792348 8.933064261694472 0.03585094826033826 0.04456415976362002 0.6459860697286551
Ni 6.3621655252466605 1.6018180740958134 7.324581581861244 -0.10895640999676075 -0.47518460140063973 0.03165259390827452
Ni 2.398009943216109 1.5589138716413735 1.190259856202956 -0.8572821557366074 -0.02952860558673624 0.4783719979896858
Ni 0.19842115294261117 3.582349478348828 11.169319396367163 1.680381494943919 -0.09740907147879352 1.3135321250162733
Ni 3.200781986274337 5.638318859965585 3.570550134371144 1.5830914655414932 0.7692529828108171 -1.0900616084293162
Ni 2.4172457097069127 2.8446449851092046 7.198643293300487 -0.7625704285843189 0.8219192028562813 -0.889232483390959
Ni 6.258002381319839 7.050431528941456 3.966122292316324 -0.37383351455496266 -0.6191532658065272 -0.6316999921232863
Ni 3.6471141749736367 2.283109276963791 12.663146445713963 -1.990161373552082 1.9059646869985047 2.136184606494153
Ni 1.4652679931718327 4.655652019792505 2.1511359502139342 0.6206941279310858 0.38510754480688514 0.04588159302346292
Ni 6.968734585572595 3.424939236530956 10.743900597304906 -0.20077358921007357 0.010952899467077911 -0.4887767382627775
Ni 8.986516932662523 8.677432304969885 0.8820305593485548 -0.17507464178207266 -0.538898080399201 0.023595013711120657
Ni 6.561305266221824 5.858107682335933 9.267843688538326 -0.5695592569284836 -0.2599621837550878 -0.05697667449535994
Ni 2.332859797071923 4.530949922904606 13.356224144242312 0.047041160549202855 -0.6023608768395368 -1.2554606747948378
Ni 0.2840707893589856 3.2272403425687006 0.6299438204652843 -0.8688955716058196 0.16277988357511966 -0.30590574036473767
Ni 0.9114834913136958 2.168630769708886 5.279987549750857 -0.7681026712564577 0.4475640114698938 0.12008517292007061
Ni 4.245102394808684 1.7318797547769516 8.48912277775226 0.7363963412921124 -0.16287604283335175 -0.32262896665668955
Ni 1.193122277752804 5.012624161582953 4.486706742238807 -1.8712313972823773 -0.27437835918041775 1.84172078941777
Ni 0.07939801230686334 1.58320636873162 7.713720403780636 0.4289111722553968 0.9133221773503108 -0.7895844952793175
P 8.581684808882791 0.1496278324742646 5.775897724011521 -0.09925049556290648 0.75142366793888 -0.10249934151750735
P 5.941355601151809 0.3724305029913592 9.387858902817994 -0.7831893903862511 0.9240483055185635 -0.004546995940734104
P 4.237246566509004 0.3344573011740896 12.78110592922362 0.9685098782660481 -1.6045691757992946 0.6290013622452006
P 8.691556276644192 2.234542637522316 9.678460308319563 -1.0516225877268275 -1.2961818066632838 1.2542540560812465
P 8.556694831709862 5.317367893497847 3.082739906439098 0.008771832655359087 1.304690101244611 -0.5090614566537426
P 8.57472836279499 7.123391616537776 8.685391837545017 -0.37900528856388915 -0.8388013233236006 0.3076906001793024
P 4.963883152120808 4.818256652752455 4.529621957536658 0.8432081941420445 -0.02931366136245274 0.6346930133133392
P 1.926082070956289 8.558447709286076 1.7700300798257445 -0.041454924710676994 1.017418688151609 0.3290868064668913
Ni 7.465872691873559 1.8551226499129243 3.910970890252163 -0.832531688264805 -1.2555545200602247 1.073269476572642
Ni 4.484071919452782 7.764944809431909 2.162258004321856 -1.1479566809738875 0.2249303889619352 0.501172283713653
Ni 3.294776604785219 1.0018842519248645 3.8030982535698143 -0.5387055047724205 0.20388976624155206 -0.33121593699475216
Ni 3.560700063677165 8.74063684877817 9.252114594936902 -0.48290510997334896 -1.2789353608780103 0.5156223977007119
Ni 8.48687340448561 7.113112962687729 5.333903677879111 0.488007721307237 0.5078268129156932 -0.04660458723241651
Ni 8.06533846819955 8.484432224196224 3.483511044211111 -0.2188150200928167 1.08980501233382 -0.46081393450126445
Ni 7.191506053033359 4.641849256051013 13.064024958709231 1.7104847420872025 0.26208540074567765 0.4503055787707729
Ni 1.3535426967696187 6.667331416158967 0.7367996046060383 -0.0021103614747834624 0.14077021207324789 -0.08085168134074462
Ni 4.754336274122472 2.0079717390848377 10.775653378068995 1.6871573802151716 -0.29663151415166333 -1.329511274053349
Ni 3.6118822534286967 7.069015702197123 12.77690177625156 -2.4786774019543056 0.9269927328588681 -2.2452045227389976
Ni 5.1686761527134975 8.385334988238354 11.187170297799062 -0.8075855598424285 0.4702097738938676 0.42309867933867773
Ni 2.64542264780846 0.7562051524327577 11.00164701996436 -1.0168252775419844 0.3533073695771528 0.4589002624183194
Ni 5.880399512873224 6.369690968244018 6.333098042800897 -1.0690592951460363 -1.2827940725024682 -0.3891814577659426
Ni 4.739267033388741 1.2609246836850823 1.4728062844865015 0.662619050299646 -0.6643815415167074 -1.533384842344985
Ni 2.184333248938735 4.768230811559054 8.612684127610194 1.1978867330351113 1.6141002552181813 -0.27252870756618874
Ni 3.253065460366945 0.8012403400871805 6.437921039595413 0.5269234245358281 -0.49758250947986554 -0.060285170043302624
Ni 1.6419323562195258 9.043682767333905 5.074558557451195 -1.0000112913084391 -1.8097000135367995 -0.5373425629866229
Ni 0.5745730792698581 0.9499586952431062 3.1563745306943276 0.4971680476502664 -0.8387961811172779 -1.1069211031888162
Ni 5.412041637352393 0.2673064884769481 3.4593332642397265 2.5480573352100246 -0.1272364392528712 0.8980760498245178
Ni 8.716243400623325 5.663584158223782 10.507322695154846 -0.647545186685659 1.4430553034207922 -0.07080278174517483
Ni 7.367381162303281 5.055877104078735 4.896934241552864 -0.7564578879286779 0.15795572271359892 -1.7877078255364245
Ni 3.3395897000975245 5.190885386925207 6.34456883695016 0.3201691922622873 -0.40377169687529174 -0.6801776280086995
Ni 2.221272161212344 2.7485120395027325 9.53542274488969 -0.20715455303575292 1.3922451627474604 2.5996637465324066
Ni 1.0531765701105038 6.107392570308114 6.938464867721156 0.258601041741503 -0.08708583517591453 -0.003384600201516752
P 4.506216912077929 5.969098789177429 8.017149018644895 -0.2606617809252737 0.7059585936275455 0.4429607083699274
P 0.522886134195333 4.10554213668576 6.551703902241539 0.1759447030918518 -1.5376960681258292 -0.014974104811329048
P 1.9524761856640895 2.6391269723253066 3.0933104006395307 -0.4412856346603497 0.3925506313484917 -0.8391767043851484
P 3.3263559332655883 3.8427756929049 11.196881790213455 0.21457784208301758 0.004586848039734036 -1.4348606834251418
P 2.2845501239766994 7.620511368099722 11.041151007015724 0.8493477313808792 1.6207712394804537 0.807774278814467
P 1.2798484196125808 2.0226922397772276 12.6093780732348 1.4068001777434997 -0.8223408637747321 -0.11656584691290248
P 2.159077128050047 0.9818592316562896 8.595961124890946 -0.93665828097309 -1.987664061051525 -1.9528083868249209
P 0.33578159559423415 5.388189653998578 12.731004833600245 -1.1064760452315976 -0.7794090974082126 -0.33107426921056526
Ni 5.304886670965646 6.557175449942787 0.4658276747472071 4.360663723760341 -1.1505529809461539 -0.22424570419008477
Ni 7.677108205861547 8.960884539623967 7.990043657800148 -0.7478722031421959 -0.6890340499580648 -0.3475671246592659
Ni 6.271245325521284 8.579812625502962 5.880493122042215 1.089847435535981 1.6516998107385104 -1.3739682188151434
Ni 0.8468417714403069 8.420621974000348 7.305172363086721 -0.13832200764307145 0.8515596514305335 -0.13560538004285677
Ni 7.702832372595193 3.1874931552253467 6.013161175663901 0.9839681218026474 -0.8763885375487551 0.7383146413607479
Ni 4.102834812680614 6.4964579732714345 10.223786028701282 0.10280221746990682 -1.2694258787256782 -0.47739600722966175
Ni 7.514118123382221 6.417459176538211 1.429702933113717 1.3679266406067538 0.28306328854892543 1.1533225732714911
Ni 8.379837743902481 1.754557034833619 12.180856405541563 -0.9221870839401086 -0.4105159575776607 0.05659255168306383
Ni 4.172647062535357 3.6710487546530333 1.2245960664838205 0.21962234648546045 0.27998799205771135 0.47290377578626297
Ni 6.086458990458151 2.504935475365131 12.952552039968513 0.024646594904086584 -1.1252396989923459 -0.24556811981694485
Ni 8.997401292900163 3.254882579529721 3.1334990194562664 -0.1355840398866181 -0.16414025425775602 -0.06242869874886667
Ni 6.707776083585003 0.031672937649361015 12.899092944841804 -0.36795391584573406 -0.1234887992849809 0.8078023038389248
Ni 5.036705579174494 4.5494423224651825 12.312637925268682 -1.4661623217519009 0.07438587111074287 -0.4710867771821822
Ni 5.2463992950849745 8.10397519383232 7.886267798866605 0.9804925045492211 -0.22674224535969334 0.1742752858092289
Ni 1.833675137370459 8.811761462472695 12.927985139529948 -0.30404888966165705 0.5351568681892138 -0.04825574968259431
Ni 9.097893489023397 4.040823326908496 8.74230254134405 -0.5474207731582313 0.42004446589338623 -1.0900950327704129
Ni 8.010265073776216 7.023055435696196 12.63460299106716 -0.6926533918782071 -1.401915853068005 -0.26174344402522665
Ni 5.858566550811381 5.080050295365363 2.4366062884230377 -0.32790795566744174 -0.7569003747827352 0.6173491227182529
Ni 7.29345745090852 8.05481202537276 10.408046500491551 0.3858127984040259 -0.9429217453842987 -0.6566044686744499
Ni 4.836152523294949 3.2647023649043203 6.408115696641128 0.3435317782476277 0.1667013301167129 -0.6070248579741094
Ni 7.738128535726696 1.344815018366587 1.5125782507275294 -0.5348048841664338 0.6324913776763301 0.2278020540827754
Ni 0.2811799179636597 -0.05875810828118738 9.629151219684813 0.6422492283940424 1.2437482714539159 1.2866011049533843
Ni 3.062892009402046 7.440497265181254 7.175996298563199 0.30288263726769776 0.3814586352003882 -0.14475670752482164
Ni 5.159618089008143 2.6916490580251478 3.374697727154093 0.6111957015223475 1.0716854199149737 0.7415292916433035
P 3.434134960778944 5.93429820399941 1.2358181539193902 -0.31020513907103997 -1.0938871528229934 1.3209009066765187
P 6.560286578206329 3.72557150690583 7.785473667286526 0.4565896120072718 1.0242002298498167 0.9552116184952454
P 5.182075112196595 1.2865478993541297 5.417115804953903 -0.26644779147943143 -0.04962846166040485 -0.6910891327148808
P 8.687784377776005 8.808310771537323 11.83273950759032 1.1697418951697791 1.2120216297745963 0.60722206158658
P 6.055081564106979 6.258204283449036 11.497664569448277 0.8271609108711948 0.7213037086250481 -0.15804108333855363
P 6.5560466334931835 3.163090529700993 1.4654854968291953 -0.6642157053628045 0.6399804869645236 0.7823926055165686
P 6.720064581357515 8.429496490315524 1.7284841280586325 -0.6151690843477986 0.4937446237910142 -0.36450426673423675
P 2.166042751507356 6.869646526984235 5.238738027018885 -0.2209094407280002 0.8635247942122096 -0.7789067038504973
