# total energy = -340859.1841841315 ev
CRYSTAL
PRIMVEC
9.33829933976953 0.00000000000000 0.00000000000000
0.00000000000000 9.33829933976953 0.00000000000000
0.00000000000000 0.00000000000000 13.66754501351852
PRIMCOORD
 96 1
Ni 6.358205114068863 0.5144375633802136 8.945393974768402 3.0246485871502036 0.7305941327880386 0.05572737546929112
Ni 4.643702723409315 0.6709502590821033 6.160386319615867 0.45401670907377295 0.41588390675779335 1.900983431733829
Ni 3.0498978496168228 6.202759785962943 3.576236141468632 -2.083890425076127 1.446218274529806 0.4889487450642676
Ni 4.115407124049936 0.6383941466601598 11.389930043405052 1.0138109161956927 0.7881986706753845 -1.619419867658882
Ni 3.3359953215128386 7.634965392491651 11.170005627139469 -0.06018901078507054 -1.0818908996930658 -1.326910346095392
Ni 4.458047997464716 1.8641859881730525 8.517737225643163 0.28885212731656057 0.8536748980013232 -0.8718597964404663
Ni 6.131265767461265 6.6848774958904 8.952706796854173 1.189484882124661 0.17734801119728166 2.4148567079539185
Ni 8.24318749450984 1.6441102914607961 10.308131039886996 0.950786492844356 3.0557417090105825 -0.8287377684400115
Ni 3.8787746228962643 2.0248701021174575 4.451915536394959 0.9383472386397388 1.4565469101493236 -0.18813481740014049
Ni 2.2520709211020207 3.554987775520524 13.58713845684023 -0.596363007384889 0.6012938690276032 0.3105347544963168
Ni 5.25758383472897 9.0374471927389 4.040180587367077 1.4431182954482435 0.4524303384232595 1.0173729225153383
Ni 6.246509717608758 3.2324802751320787 5.261950423424292 -0.5064016504333925 0.4021583296415849 0.2339161374003133
Ni 1.4488464556627192 2.1946870726572967 8.671169216446451 0.6377294861468178 -0.5787326958976355 -0.5505096964962003
Ni 0.8018881548270251 9.204761499099215 6.426466213395347 0.3651550129443582 0.7581265338803523 -0.8780934360550039
Ni 7.955446481958614 3.3147226759868693 7.134854647709305 0.8575618917605553 1.3200005063494362 -0.15587827135927992
Ni 7.552302768173881 1.1668204822080215 1.7112311844577275 0.10261092739470716 -0.24401645905910876 -1.8160930615473365
Ni 4.272103784245619 3.548432289498035 1.3216429457588135 -2.9735039459555885 -1.9331774999678706 1.4805813253907083
Ni 1.0630346251511191 7.208961522320801 7.599209978771552 -2.1017747615557156 -2.185672428811636 -1.5833992265898988
Ni 1.7346264253867052 1.2460839656252418 4.237294340232185 -0.46214422327691373 -1.1177205077971653 0.22940410846257267
Ni 8.75543055758338 6.91236780214946 13.032372514632778 0.4974806937946787 -1.1277002447176965 -1.8683360780124532
Ni 4.405183885821821 4.464360687708594 3.674314430068348 1.9014151199546092 -2.2340567336522943 0.8895317597989326
Ni 2.327757835934322 7.84077216806094 1.954581658039574 -0.5310554444263306 1.1827347078850212 0.5696806129976963
Ni 6.291735100524591 3.6445700795287 2.0795719910384514 1.9300937188362244 -0.21107034315039136 0.889680626671971
Ni 8.659750344212405 1.3701152552986067 7.820527669274394 -0.5928087143747274 -0.7815721664978023 1.2636462959294237
P 6.503088825805217 6.905653565040956 2.110829146044827 1.2689157718584791 0.25331459653158306 0.7923330045587322
P 2.620653589631438 5.712825919624056 9.57777799207803 -0.8307861663286078 0.7649132177848826 0.18827288563990155
P 3.120766202073619 7.848000011624197 6.9860974094741914 0.3917217076892931 -0.07030141662872409 0.3868571805081402
P 1.401865472501546 5.557511327706618 12.695851028668905 -0.6359117162117887 0.7499244576855342 0.10648455141750048
P 6.215058325979493 1.9228211687075396 7.085842584477061 0.6619387364031696 0.07157179870071545 0.3641774795224373
P 7.460115078695228 4.110364442494175 0.12468030146618966 -1.9814857001549548 0.2010427837110602 -1.5606789021742475
P 9.2334020626761 1.3751579368543676 12.349391724720512 -0.6321874732826661 0.29860200761447286 0.4944187670399033
P 3.00589578389322 8.571167238216203 13.01478289430235 -1.6538996466033065 0.6209913474565305 0.9283708441533174
Ni 1.2148100016803467 0.32497374520117944 0.5745547319941439 -0.1725269356595545 -0.1280080273115731 0.5173442654878252
Ni 2.16912814780893 2.0915175433460984 1.8143941769595018 0.17937275493679433 0.2493000760555513 1.2175988667520579
Ni 1.7532843471430208 4.385386691565871 7.605442359642505 -0.46372493750047233 -0.06211039617749949 0.8511822134864566
Ni 4.240587024522113 6.090307987269473 7.851758677043073 -0.8316706258160903 1.001305070419198 -1.361187007890075
Ni 5.9028416312844705 2.5527174631163243 10.336996656474057 -0.47992417296815415 -0.20751065082359102 0.05659820811001866
Ni 3.2625402601839206 4.941529099072063 11.727245284798999 1.404069666186214 1.823149711283802 -0.20655240067537975
Ni 3.1835102342461337 8.614646359185876 5.065233548274222 -1.1811583645368366 -0.5377914775985835 -1.1109003995515383
Ni 3.9507355563568085 3.1882821051257517 6.6350053753039235 0.8588497573340435 1.912544139988235 -0.14611116467018706
Ni 5.214067360562589 8.27855163349441 12.749536910639403 -0.9992214484172921 0.3414779810423925 0.21188692551441574
Ni 4.724759160268584 8.199885801224537 1.9357341688099585 0.0734967836375702 0.43705334174655697 -1.113039043161096
Ni 5.2710403238435095 4.210657775658754 13.290880915439272 0.4655424503251853 -1.419363102010175 -2.792074822710398
Ni 0.7942970514257693 6.1780039548438275 1.1227409086012465 1.8031087334725269 -0.8094400965526639 -1.1817882848113517
Ni 5.400655916424921 6.621265001894393 4.307094391263093 0.037532706838135366 0.3053794355476224 -0.050012841583017095
Ni 2.190438146531609 3.9458516258870624 4.350010412792372 -0.5953708186749489 -0.7367845778694666 -0.0743359917094139
Ni 8.299880308815442 5.178656530082133 10.811738977711254 -0.6553243164104455 0.3410779173904965 -0.7054173764120948
Ni 9.234672071364217 2.448595427289038 0.6636355693364967 0.38616812486091556 -0.6341528245391531 0.1524821011935374
Ni 1.571047438697326 1.343566470737443 10.932477583094691 0.21077878005190154 0.14605331484905815 0.533595437239365
Ni 0.8281222387059126 7.04717548907347 10.474355566733314 0.029139597678433684 -1.4855808354878286 0.03808472268686344
Ni 2.5251881571415407 5.874387833691131 5.996717685254385 1.018486210184175 0.5521739715725007 -0.6486479328315344
Ni 2.167083060289094 8.346992028165097 8.926560492987553 1.5557688664671399 0.9168085932370145 2.1286188783317535
Ni 6.0773651046096875 6.137709193893627 0.054538468685390216 1.8931335966721072 1.4974372206057824 2.07956942910327
Ni 4.533529469715115 5.923843466134298 1.8246579015853106 0.9159400745891322 -1.3152264819995607 0.7745219445192403
Ni 7.7506855958971865 0.5800223061624735 5.637028812861463 -0.6866629786227271 0.5934193513755328 -0.3455441806919662
Ni 0.29552074959586455 6.484458918946433 3.28927207540896 -0.002046855226699701 0.6822126561608574 0.9595431559910635
P 7.98510492014583 8.69774788356498 7.567883720351264 -0.1365296916293391 -1.0281689846895776 -0.3564772826647022
P 7.026631230883333 2.152748771051885 3.614833199628394 0.29946872649014233 -0.8491631261738988 -0.784392666665733
P 4.831281138984445 5.130218772249297 5.8296452408427655 0.3312928129792746 0.3817329719076974 0.0024957698386602178
P 3.626705913202458 0.6237526273800161 2.9120206637532235 -3.275924298874887 -1.5947915275872406 -0.0795843845925468
P 3.0950111729425287 0.7770604188042443 9.531253651746628 -1.1062798700603915 -0.2652308883531948 -0.3035138430937934
P 2.4314876631961604 1.8544274655327375 6.497359779259922 -1.5640002532379966 -1.0711328898456134 -0.8176316312245209
P 0.33335767020259083 8.537250535604123 4.104295481858825 0.7355424779322494 0.8811129396076182 0.8664874763849594
P 5.984196893717415 1.1598634493209068 13.74339995229425 0.3579029593676352 -0.865754969094309 -2.3816627377004527
Ni 7.118781567165276 2.54842184549475 12.336640277193862 0.353343622131727 0.6905666845525075 1.3202524744592423
Ni 0.3618693652508304 2.3917532001965993 6.0636331356694155 1.4396624756891594 0.40250388590646163 -1.5949133978770853
Ni 3.3954149191782217 6.707812358669934 13.801896926000913 -0.6396822389978145 -1.0850680118694667 -1.895903960328393
Ni -0.1280943836454234 1.9364270706089168 2.9947094353086903 0.4443689015713637 0.31152334366183126 1.1142101806510616
Ni 9.359216967492337 9.292634894357938 9.562279216933407 0.18768101769217355 -2.7002630428137233 -0.6807869794579243
Ni 3.445057317604935 1.2112707862921366 -0.23892785509146053 0.5462236675263368 2.0257292433543626 2.291902955236801
Ni 7.472292220822474 5.227206347505099 3.5628011304422005 -0.9333898946344635 1.0549439387905766 1.0323670819313253
Ni 5.726525204517207 6.003060258055632 11.616032678406363 -0.18604065387527316 0.3181349354410779 -2.9241248813018283
Ni -0.06587796537642825 3.899636383258431 12.580619218310343 -0.3008740914781012 0.49167591418744355 0.12467099251854015
Ni 8.821190860390175 8.183795911741989 1.5657404832748467 2.4355908551774763 -0.6834987219621325 -0.6330554777099161
Ni 7.070511898717631 9.728733465939486 11.645267157810927 -1.1036807418746477 -2.2991681214396467 0.7822535088355431
Ni 5.803724923816236 7.931213595593429 6.706568497219513 -0.5028928659491855 0.901559380387428 -0.39365106350152207
Ni 1.4570734972379513 3.759645940291 10.832800577675815 -0.1689124788354188 0.9346175963939775 -0.6105704092335227
Ni 4.613838842640197 8.6371329836049 8.701401026203156 -2.44802239607261 -0.9997030160394008 -0.3520850671342775
Ni 7.177799617966033 8.284378732181066 0.13100233000924552 -0.8264374024416089 1.4704833177247578 1.0170908724985452
Ni 6.122665193918939 4.287465286392335 7.728955373711528 -3.1601971458131963 -1.2477766758870186 0.9880659460211049
Ni 8.777114088273153 5.631984263645867 8.301940337613962 0.3432911229917313 -0.37107729196606415 0.09350742243154218
Ni 8.527043774603296 4.605294298892935 1.6884616095736316 1.8887274971846117 0.2692045282889622 1.067540801618981
Ni 0.9755627767570212 8.765908129260351 12.1400186526954 -0.5837877418230398 -0.8922735842101278 -0.6099767415135817
Ni 5.3114471443838385 1.253918798635026 2.009689762974782 -0.10907262385965087 1.6572953025484167 0.7802819869314691
Ni 7.501717201530257 7.45288723513197 5.150095342048254 1.4730978725294697 -0.15227564160968615 -0.2430003590897686
Ni 6.995077117963117 6.085031848234279 6.969532200563517 1.3746883848106197 0.3533793604656688 -2.267534810805082
Ni 7.745054601493254 8.853034460584887 3.2860877153894887 -1.8105351078435852 0.6157810069001847 1.4831861100034067
Ni 4.1110368000349435 4.261084591216363 9.1525809509561 -0.1215401601990423 -1.6762600165763777 1.4737159657294425
P 2.5903321322026307 4.690104732021493 2.012587437209509 -0.5945478085530213 -0.06330621625781356 0.5637182247666743
P 3.149126616675186 2.834528655689943 11.760266444519972 1.6442598095206975 -1.9050311194406415 0.23603344085363218
P 5.638110187906198 8.332620385731179 10.633691230276513 0.047877540407569155 -0.9832412709389518 -0.6231716429373009
P 9.38218918346858 3.799772611856009 9.292084868536392 -1.1637391406191249 -0.42030671841583744 -1.5579244793575622
P 6.20217147311477 4.578147863184422 9.898732533313284 0.1511222447315333 0.9506633370029305 0.5213711272590311
P 9.462872088360756 4.62556774640693 4.388634552019749 -0.8764353316262906 -1.9900557012121531 -1.3049286996179785
P 0.33588087864030686 5.7635702373536954 6.063961843800458 -0.5011195760988466 0.9545703853668206 2.6482323994697294
P 7.9397954925374 7.483909064999079 10.911990288529536 1.0204561894263522 -0.02075394471789974 0.46436205686383897
