# total energy = -340892.9283719996 ev
CRYSTAL
PRIMVEC
9.04061701107839 0.00000000000000 0.00000000000000

0.00000000000000 9.04061701107839 0.00000000000000

0.00000000000000 0.00000000000000 13.23185683528435

PRIMCOORD
 96 1
Ni 6.487338745287862 2.140438373382736 11.566058973115853 0.13955973670491448 -0.414889404055008 -0.38891149193400765
Ni 4.517813234189824 0.4575112664031687 6.092119137372609 -0.04715043243355751 -0.6926058264697232 -0.9097038638714333
Ni 2.6416501737034808 1.4778606022119738 4.63146734940866 0.41641638222249566 -0.3576162813651519 0.44872923542258847
Ni 3.8354184307985877 4.383713763876736 5.13360310077545 -1.42202856465748 0.8131622825992576 -0.5195608135231696
Ni 5.023183718279464 4.50821209905381 2.8608462586067396 -0.9009610846817967 -0.5150115035895905 -0.17155505866458842
Ni 7.078179221445184 6.0578823212143345 2.5199273079112996 -1.0188286811252583 0.6346148517772361 -1.4538955885694058
Ni 5.188400991924154 4.895729101379718 11.586356062093127 -0.4109376184961116 -1.994331959990004 -2.005078914093863
Ni 5.551291353844693 7.735748490859495 12.582119440272562 -0.4550001560329648 0.545582434397912 -0.7268601196669031
Ni 1.768091526196405 6.57613568437066 0.38562751339612855 0.6039811860517792 -0.38789513485435134 -1.1908434530350847
Ni 2.7992733291614926 1.5401594931933997 0.31263718888188674 -0.3677726530728634 -0.5321777309562319 -0.007090845408510369
Ni 0.3606528092405359 -0.16395701165037696 4.756773011673912 1.0034411429255943 -0.4933191062178214 0.6020402602753245
Ni 8.576480658442966 2.4043520616035727 1.4334467636218633 0.3849486506315177 -0.14384088057877165 -0.5480722906993013
Ni 6.918910673713392 0.43553895111638047 4.812465923894617 -0.12085830364066928 2.4607123328354525 -0.8002553447296024
Ni 0.7479962317221781 7.2778412454365915 2.3632624578435117 0.4075656167000852 0.1861031316820924 0.6088212877528999
Ni 7.514922382731166 4.172280856695978 3.7172919224048124 0.08197216809843302 -1.3557915479061167 0.8826116356403315
Ni 7.751009052167961 3.943092177945415 12.798843820518396 -0.796087329394842 -0.37469354856241277 -0.23853383867798272
Ni 7.869269361691693 8.655477568818194 7.159029458282637 0.036442816208066275 0.904876617686119 -0.03462401783177262
Ni 6.877549851446664 0.6110109964981523 0.439595475914431 -0.384053392510758 0.7675367714506588 -0.7761533094750762
Ni 2.092685834975554 6.395269102891281 9.121711222395776 -0.08551926201974304 0.16268603830973272 0.4456436545187292
Ni -0.04233178452059623 4.846810323393869 1.5357955874211267 0.6128792598723574 0.14987988768399996 -0.3340616339736634
Ni 6.678873254696146 1.7111537210300982 6.905719509610795 -0.6434450484743564 0.8139433837396564 1.1941894866891822
Ni 3.418971454428191 4.234823844333404 0.4763464876295078 0.13250360118908147 0.5856044833168044 -1.042951542315391
Ni 5.870624023594501 5.743214609779201 4.820788715802541 -0.2822382215444688 0.03371796107773548 0.5512239489544055
Ni 5.381924437047997 2.7088038759542474 9.223516705120018 -0.32367514853301677 1.1776025288647782 0.16415131000134955
P 0.18136743165502506 5.594252365300757 12.428114339693488 1.4336895459351762 -0.4682904453839677 0.6163247952187967
P 3.7592964365940302 6.219854013395909 12.624249619036535 -0.1736152836277268 0.0510947617932862 0.4969770146853828
P 2.4809080054187973 8.596324812514107 1.4265659501077197 -0.5987050252545044 0.08054314896139032 -0.0881890955424223
P 6.190065180746976 7.916596991105096 5.927090812620896 -0.1935675583799376 -1.74135546352413 0.8803632059257871
P 4.801100964403578 1.1083344274949802 12.59291664902298 0.4171321773425977 -1.4401412150977906 0.24735092274898043
P 4.1395809454088175 5.996261476499576 8.024551901437167 -0.8743473387490103 0.22021010066813043 0.020080829910275093
P 4.782395928060439 1.0133085033757279 3.725720489530336 -0.11105700127953132 0.6270648073441201 1.7618651534417074
P 0.00101254909155706 5.751088987089434 3.6493589189782223 0.5035531252410038 -0.910627147016651 0.2340801737820033
Ni 1.3933760373851816 1.1442347171608114 2.547648551477741 -0.22112438495228368 -0.523808275945614 -0.44435450339366045
Ni 1.7667444742799587 6.374159262455693 4.697030807148669 0.6896696266595349 0.5667858079484044 0.4051881176068441
Ni 6.045189295102316 5.624393782008358 9.201261418524606 0.4509792077990298 -0.5912825075381881 0.11999467008879333
Ni 8.711294337490278 2.6172224268696667 10.216964781314203 -1.1436431412001982 -0.4103352090254224 1.6433300986175763
Ni 2.2735524164549337 5.307140454142997 6.90252997997239 0.8837133533449426 -0.5688324060647881 0.38914520521136853
Ni 0.6728370632162887 -0.13392137016037678 9.227883323077357 -0.401476730193528 0.9979662358539523 -0.4654861431659532
Ni 1.6619908463882473 1.107141066065645 11.21054485051497 -1.148407652468377 0.48355097108746403 1.353469070420527
Ni 4.2166160419191545 7.099252899413216 1.5947431217218362 -1.212084621802048 -0.5843436143265098 -0.3894969321238324
Ni 5.416477674797381 7.754534892754633 8.335778754084387 0.4305093699804521 1.3286856928282602 -0.8015298405666518
Ni 5.263835899245154 2.615965781122109 5.177215036647516 0.42682446492969717 -0.3450255891843348 -1.395807683287738
Ni 0.8921696614345701 7.548553477557883 7.2058707025074185 -0.5400329653345924 -0.7207630056302297 -0.7528688850258388
Ni 5.340265274423936 4.326531862054429 7.191924646894598 -0.6225378660080441 0.0041657013419154065 -0.130813100860536
Ni 8.003197060283892 7.179126749626668 9.078919270475536 0.13739641050500853 -0.16522757378466382 0.7828579751887613
Ni 4.367115191268711 0.5298045593552762 10.434668260369104 2.244039041675987 -1.0478669773391371 0.6487494914064053
Ni 7.675176357703849 7.303462353699741 4.306942653379555 1.2075224563526623 0.1067779142882032 1.1476987993268104
Ni 7.35041027720381 6.248033616238618 6.788511527892932 0.15455081079710803 -0.6437607799425623 0.5571140891865953
Ni 2.327054787203458 5.334379832829259 2.3392469631398316 0.06895878655790058 -0.7719755239483027 1.2197701633717637
Ni 2.498175583676601 4.990321075888303 11.284153553224412 0.5737172449609151 1.1585588819697659 0.6899943569888052
Ni 0.7606820253406857 3.4400812948637784 3.5534678078227024 1.1301453638240795 -0.3596240558238 0.35886583750153683
Ni 3.394209204769488 2.4800672280481293 2.5298385362066034 1.133815613586815 1.0772914532478415 0.4807520681860882
Ni 1.0047560797988264 3.3550814148743187 8.178610341655887 0.7808026353216294 0.42930429392875735 0.015665988672031082
Ni 3.5591643005243996 2.5833020323025053 6.88548751307512 -0.31270219446128084 0.8775640459140951 0.6887309168953494
Ni 4.095869562750975 7.065142651891387 6.050478055982325 -0.1489252370802145 -0.5681091547455184 -0.7005374226119743
Ni 0.957021622625422 7.388941386384312 11.201362295940912 -0.8015298405666518 -0.3352628533706162 0.35410646843968047
P 0.29389327788612557 5.616410917295457 8.039993275083413 -0.4887484561280035 -0.3687938952485261 -0.10073582185918133
P 8.506135618430418 1.7641588578497325 8.319159388057516 0.0865081082955736 -1.7607104710119739 -2.4668485276401775
P 1.740779822575031 3.139101077398442 10.391255218068597 2.470443444080287 0.37424411972982 -2.4458336159514076
P 3.8168670849425603 6.191837141657201 3.750397757390284 0.6007863332635653 -0.4898627722381048 0.1579950605919666
P 6.819337319299022 3.938065594955185 10.335231419269759 0.8286354385341923 0.537048685895288 0.28266682444145513
P 6.198753213577211 7.694206856254989 10.429666991106165 1.2588894979707286 0.31219105915281714 -0.4266131202498395
P 2.282141002499391 8.459576441452569 5.830922154526887 0.44731204336008773 0.2168599532489749 -0.7754819944396645
P 6.694124775387725 4.038931757584668 1.602629251834026 1.7983617057058447 -0.6413120612917536 -0.19438259808206523
Ni 5.233748726238888 2.7450025059774124 0.6968715432154355 0.08607950539858723 0.3003372451380247 -0.1196992503355616
Ni 1.5183535252573672 1.1546947109012713 6.9109983258122245 -0.3752820740760311 -0.25252526786106827 0.7863690736658134
Ni 6.798995931298991 0.7818027145165395 9.314420107937929 0.18832970701976598 -1.1993046964285603 0.2791359284700612
Ni 2.8829623197020617 1.6766095238976024 9.144813614793678 -0.9150828687951594 0.6628944154482197 -0.8118219665212792
Ni 6.566706320955535 2.062589621352398 2.745120938058657 -0.4148261549172404 -0.418508231754518 0.41403091270945475
Ni 4.170355205298641 6.6654479386161265 10.37007034051283 -0.3688221773833003 1.6211651324847627 0.49217419398010076
Ni 8.060577855677755 6.957043995750782 0.360339099834491 0.05653804429604457 1.1072239791412157 0.6153470046865597
Ni 7.6222706676699925 3.8971206410653463 8.005061235486384 0.27663784463855584 0.3285101080278149 0.43411842748794915
Ni 2.9614439149146228 8.351785166286188 12.394147837980194 1.344425215050704 0.11101123564326043 0.4061774781033069
Ni 0.3026228975540497 5.043335253324828 10.336884948098739 -0.5932658565168041 -0.38087268078993114 -1.4059979935571787
Ni 8.793374098224621 2.3828986777262076 5.92943323645681 -0.5108046645970945 0.2282172872433231 -0.8747697709984096
Ni 3.8522791812963906 2.697286130037786 11.577451054457558 -0.5616346027647683 1.1075368823959442 -0.9829106270724105
Ni 1.1395968806968044 3.4064321188032842 12.342027777553984 -1.2946082915285768 -0.520895216063877 2.4241368477042635
Ni 3.0421585424987425 8.368763444803546 7.945081262736961 0.6560231422496831 0.5065006379051019 0.7302686311278198
Ni 5.47242101210591 7.868934858866804 3.564556124436941 -0.4866458079627039 0.2617984656328782 0.1984418557531034
Ni 2.975764252066644 8.249327855084259 3.626402080512233 0.06027797095445103 0.3719082725077918 -0.07931261898839889
Ni 3.6541721434098746 4.323467092929091 9.291793251988384 -0.5243253247913486 -0.4970837154665762 -0.34144892757667
Ni 7.365254970135388 5.987636727987564 11.49970084515131 -1.281374566447122 0.6609887137850745 -1.4996306287126755
Ni 0.6155376333744258 8.862616182976724 0.20093403878767635 -0.08188937857663962 0.9482439289281605 -0.2685308992607053
Ni 4.679902454390954 0.5069544001685755 1.7409018709030313 -0.043550373787125 -0.6704619433828324 -1.7104222642803835
Ni 5.64834237614706 5.486632861855263 0.3770271745497158 1.1004007855717952 0.3633277299276323 2.040457807813789
Ni 7.930727475302452 8.838233639227354 11.494024241806766 0.007061791942787837 -0.2877082435201045 -0.40958958910864945
Ni 0.20783654978235327 4.869131606492568 5.840567588685656 -1.1149540007956218 -0.735571788508288 -0.6320429772850018
Ni 8.198212207194404 8.853222982029155 2.2559783612845967 -1.0649588998244175 0.742805587252566 0.7472008881067841
P 8.596415218682996 1.4766129970813053 3.717331701119124 -0.7788300849762909 1.3908454541864563 -0.5393171702144905
P 1.7670337740204034 3.230094886385244 1.337383880745454 -1.5102888797574698 0.3230488278029275 1.1885461723604756
P 4.80133602044269 1.0353676085846495 8.120218805293844 0.2069529785479081 -0.8850243588468824 0.28320855587753807
P 8.563462170122946 1.7258085610070089 12.450237633282324 -0.010665450133646148 -0.6633523289212447 0.3091856966675901
P 6.303163298027143 7.781557296635563 1.422715551374736 0.32223790186585793 0.1960201336854882 0.6011408883895067
P 1.850650439625861 3.240817058015482 5.600356589824144 -0.0420097687728825 0.7472484535152679 1.0091639043419847
P 6.912048845494715 3.9429204062245256 5.792721931924519 0.8438286013348629 -0.014726507576897217 0.6035165877105348
P 2.584160890906951 8.497519910535292 10.242780262840464 -0.9015794349920859 -1.4200436730169672 -1.6105421055532778
