# total energy = -340856.76400283416 ev
CRYSTAL
PRIMVEC
9.37894428250289 0.00000000000000 0.00000000000000
0.00000000000000 9.37894428250289 0.00000000000000
0.00000000000000 0.00000000000000 13.72703299565417
PRIMCOORD
 96 1
Ni 3.7401166183044574 3.4569662922919604 11.433808060107681 0.240253906692883 -0.5739242187653987 -0.9915981275440794
Ni 5.951108928810786 2.5550776371184676 7.754606746620005 4.319175631818884 -3.046585239322295 0.9992098784530663
Ni 5.068034435743325 1.9827088081829045 5.326487187940363 -0.5304486640802671 -0.7358306985966295 0.386778761861721
Ni 0.8006663996753183 5.632965761912147 13.443898695941911 -0.7151261190594264 -0.3952469472337322 1.698002807570108
Ni 4.132419097153438 6.163466983848048 5.897284105824595 -0.5572817251127112 -1.0362509903667636 0.2774253735368577
Ni 3.1563992668622647 2.5867128159737227 3.256971561525969 0.12369191643472247 -1.1072566321513642 -0.9735579822129168
Ni 4.42920640806233 3.7618851478398994 7.226952972149402 -3.1577903361439166 3.242558836040564 -3.018229828108054
Ni 7.2138243260297505 5.7424555567405635 4.279265226811526 -1.1997525825992563 -1.0408776905054977 -1.7180607546622475
Ni 5.2213707948018975 5.6716914225979895 2.2060580479520002 1.144766456171364 0.6886216450109948 0.31489508834754154
Ni 8.086900864558313 8.86712585530537 6.475466942282355 1.4047263259336067 -0.8942957568464791 0.8889743446335656
Ni 5.916359940474373 1.1655682929845337 0.2777321099363984 -0.10117342361723221 -0.05625907960304505 -1.5564121564780937
Ni 5.970457690737376 3.3438280881618256 12.165788699679657 0.2652486289650077 1.4341459167463042 1.2324829829527417
Ni 4.7245587405055085 7.169733909249864 13.078361848108978 -2.5304005413602098 -0.5352735962727362 0.47425874715226063
Ni 1.6046341877162011 3.3096887311997363 13.418970400098631 -0.49774654586155564 2.1800591963899163 0.03598104608029932
Ni 6.395942874237971 5.821820182733202 12.452999170645144 3.537593952239385 -0.08831173716321566 0.6736110305347753
Ni 7.851358059408335 7.404554535694876 8.680632114744578 -0.7679458339636194 0.6808427723965241 -0.09584789763926073
Ni 7.509176658472928 3.016793682142291 4.339499620277907 1.585545326398624 -0.8357417105616703 -0.7572865544775603
Ni 4.34396118404353 6.430973230900995 8.421040758719188 -0.9233093704700099 -2.3802627720291327 -0.6066625895386841
Ni 8.162814039077862 6.426977800663123 1.8683588444595003 0.11761922787808131 -0.18688140460901362 -0.8141421300140237
Ni 2.082144374807101 7.148621905809846 4.462040215988947 2.13605733688767 2.5234529063977833 1.036681650146279
Ni 0.48311598205140555 4.485714546989965 1.8135473565413278 0.8614445146444131 -0.24836702271832065 0.00816968029498593
Ni 7.263298256792118 8.985131731485867 1.2144672944661952 1.1401292145096689 -2.16277109873343 1.5542454878440781
Ni 2.5555372053852654 4.79024886582487 3.690430723402708 1.3019007114249321 1.120114461950639 -0.29440750991715103
Ni 4.499557868659208 8.85046885037002 1.0410693737202843 -0.3354189193325062 -0.8527428731053572 0.2961967406070899
P 5.919398718401768 7.4970215467633485 3.2028325439083956 1.7362124858706098 -2.17317532478589 -5.1355731335259875
P 8.536358629486134 7.245159378669953 12.803724789765296 -0.6793643880787849 -0.530840500202047 0.6548311788241109
P 4.481587811533009 4.902580480752054 13.058375317975402 0.3053457540962096 -0.4408215505397376 0.580431166645981
P 6.368959651716011 8.971044557266897 10.667881269824555 -0.8529408480487762 -0.5157900336268277 -1.0235880501871144
P 4.664580392216343 1.6020831148882648 11.994008646811757 -0.0685864908201464 -1.3013798059244555 0.36040772806735993
P 1.7014624078471392 1.2844464109775249 -0.2511775051653092 -0.5066315070560112 -1.3397257526925055 -0.006972831773407346
P 4.174999503913846 1.2662793960226986 7.810859778264845 1.8929533623405013 -0.9464860656967892 1.2135876887101358
P 2.655920045375718 7.751612987624867 13.623448266201951 0.9673227999364824 -0.8138693359686112 -0.31157296595284406
Ni 7.012899203997098 1.3050988461507451 11.96960182026713 0.6776587182415877 -0.9787485252749208 -1.4202681303229476
Ni 2.7584600425368513 9.298454121055245 2.7665053008890714 1.0427114012801266 -0.013566168720208894 0.9980531391408036
Ni 0.5771061336612644 3.6988305058464577 4.277879018855757 -0.8259617483567712 -1.7152428255974783 -0.4746796367397631
Ni 4.9144260873023615 5.716063207704487 10.820580798570566 -0.5387057618827368 0.25412063737264623 -1.8389275429433491
Ni 1.111761289992361 7.7000100365244775 9.637351953619106 -0.707241316994711 0.22613752189615893 -0.7265449024193295
Ni 6.702803171239524 5.004979793749882 8.02369803524619 -1.5491960983456285 -0.15451841489727583 1.3667089661495688
Ni 0.4926196662298906 5.8630594004700995 3.9702290147508505 -2.8554175486331017 0.8213106227380048 -2.0611153361631405
Ni 3.3245355999005572 4.942028320142864 1.2213120479582096 -0.5591254631896693 -1.3563978140315478 -0.9802590483821763
Ni 3.674342082487112 2.2277993785492036 0.15855292783393393 -0.33525719694366135 0.14537274384226576 0.10420989645071085
Ni 6.0413249932663735 9.202301184908173 6.924176267461392 -2.0647063959485084 1.579129138459635 0.9038882856309206
Ni 5.543903307595662 7.783670218970038 5.0520423979531985 0.16868107955090306 0.21060703036072762 3.692368963232157
Ni 7.34618936581161 3.817521044955041 10.095628739797325 -2.9390329087619125 0.00033707162444458077 -0.4911254410006122
Ni 7.687883061647559 0.49490812861965705 8.953978630363538 0.05333804930150813 0.3022408899186408 -0.7031339796945568
Ni 7.771674549312205 6.142748896065285 6.3821783357001785 1.098192979287199 0.27183913769833185 -0.24859148002430093
Ni 5.5569119032292935 1.4395460115495244 9.841691949242389 -1.1018655430427797 0.7597949227217108 0.5296084275671589
Ni 1.7667773753976868 2.209491679431072 11.193887163795642 1.5805026217683942 0.41899288470042034 0.045780291558908254
Ni 2.32379287264453 6.93430365143053 1.9753885422189177 1.6532967229119848 -0.8219374576887264 -0.7733616056625521
Ni 7.789063111896742 4.372707648078916 13.961765542118574 0.4432170473551077 2.7198558773439867 -0.058340644722422105
Ni 0.3266348629957479 7.273014843004406 7.180473738276592 0.41279781163330204 -2.3566119653794124 1.0019581306221648
Ni 3.049723155299955 3.36086962981021 8.898631604730383 -1.3869869996723145 -2.134685396240808 2.7115617556559948
Ni 1.1338580825755158 7.196435763445213 11.928585821402676 0.7325129470773062 1.595512207803349 -0.506968578680456
Ni 0.418222129096352 2.7139100574901684 6.5381032833635695 -1.5937039509500166 0.24938158002576408 -0.5222507016505069
Ni 0.8586235854849978 0.22754350362443834 11.738424913651725 1.98270800259783 0.06109172510499801 0.683869732148306
Ni 6.249856439061733 4.02765629021208 5.794194502532148 -0.16369776740369874 1.7089431086316955 1.2535858263696282
P 1.6666852826780654 5.677103073413135 9.023904286892813 0.6913783818205254 -0.16255311227629424 -0.5546448017104965
P 0.566215303632589 7.670522635895684 2.6244443085722082 -1.7671636828364856 1.3453240727158897 1.5000851997515907
P 4.779913269294039 1.5727645352554374 2.0643806544537497 -1.4767277559725729 0.4478517179136416 0.3357094539897315
P 0.37593246960677434 5.164299919221041 5.914744886279628 -0.5490698787258802 0.09570314453128033 1.6323298908523307
P 7.3996868636445114 6.032330585759055 10.21865047534687 -0.5225224672546549 -0.6243882889532214 0.6229451287487917
P 8.107769015448602 2.9781899477313125 12.653565079114157 1.609532433341841 -1.7651947320355728 -1.990407428124617
P 5.922334327942738 6.984293424125018 7.062297165311284 -0.44513637586500754 0.10448886114371038 0.8185271464555968
P 0.8073573384821191 -0.40440225478765984 6.132703108910864 -0.02992635524578717 2.3182603621844073 -1.7394957846075718
Ni 8.52938069498619 2.844661918866128 8.32648880835053 -0.9882083851362401 -0.30282298767435595 -0.42061165125076594
Ni 1.9323344987753812 4.190080846220177 7.23700157298709 -0.39037007875740515 1.9027279252287619 -1.5163170882294208
Ni 8.924093562499802 2.2506089708931056 10.514056267772103 -0.5879228470373359 -2.0385526203712763 1.5323687423756447
Ni 8.076968562628958 7.822217679715694 3.7691135001505267 0.1046104743232392 0.480557949897411 0.25839201105449044
Ni 2.7080107015755654 5.373431617446502 11.879937237731697 -0.9662851027005874 1.4075838499870597 0.45603219684190494
Ni 1.4772493673153488 1.731709502957782 4.8870845891111845 0.054645198148705894 -2.3020415863326997 -2.9318906412901766
Ni 6.997770966969667 1.503726126849409 2.3894642400754513 0.8795725917036916 0.6394019887532343 0.9485493759837212
Ni 8.449819111164924 8.738155993331278 10.989821033343596 -1.1971292860437963 -1.7835264404652251 -0.505865061203632
Ni 8.813056241875028 4.810422974842853 11.536898601294551 0.7928014595547185 0.5266120639429963 0.5208638486053093
Ni 0.8863083530346396 8.602480186239632 0.7323135920917979 -0.23265423996875415 0.30464512848475916 -0.9995518351735174
Ni 8.830041509858088 1.0068671778319183 -0.0453640774050098 -0.31650588447808714 0.987394630985693 -0.15463848541490788
Ni 5.254365920569104 0.09916826671391646 3.525280646204177 -0.09330096284769093 1.0044423304965993 -0.2727955880743302
Ni 4.120217090722757 8.811217968807837 11.248013050891306 0.48631362143426565 0.5369990636042752 1.0475497032090346
Ni 7.505134333513955 4.019627913959457 2.338221440433123 -1.2957269785140524 2.665814374217551 0.9849052889049362
Ni 5.774569061751056 3.266086019519309 1.1339528099121414 -1.5620022489713616 2.1000449233488023 -0.44173634904452314
Ni 8.99179078188232 5.2005495386327105 8.641372792132596 0.19417845249105914 -0.18219659753883463 0.21248522122004695
Ni 6.534057206826909 8.499780747026753 12.855119528303995 0.9044328452804812 -0.7040865734158133 -0.9820482790721152
Ni 5.367785493025849 3.747225858023486 3.657334305037922 -0.8544891663725026 0.19570928731328874 -0.8044637263839952
Ni 2.435430445699408 1.441684410831765 6.781579737429547 -0.1697822830348818 -0.5433921116148126 1.121452721146088
Ni 8.04474251028782 0.5587215272005258 4.569935590299902 0.039614014847196295 1.9233900815638036 -1.1347502095859425
Ni 0.6710146884564062 0.7406861755973082 2.6154386463318247 -1.8426312170471812 0.42482723199401035 0.11686795153435359
Ni 4.763415706410436 8.58600138124447 8.923628366866472 1.3899059730913224 1.0048819891371792 -0.01798126706876903
Ni 2.4984006771948666 8.007526859621455 6.794661488828097 2.425373291214526 0.2622833756890967 0.28249378919870055
Ni 2.8086092572830856 0.47328684850847424 9.375028511142329 -1.0913510166647011 0.28135299072603803 -0.006049548628189582
P 3.137894609915506 3.379224223649443 5.302711564341764 0.3198141229157137 -0.0714381013363286 0.3517906758223103
P 7.499244356543573 2.064887117441649 6.173897307715505 0.16069009092562647 -0.7259093257178594 1.6850117946270786
P 3.6893765300723405 9.037822640115818 5.038246908899479 -0.8706963722599843 -0.1224467311737117 -0.4002521137578075
P 0.9925080142305558 3.5406546115701816 9.724037783470154 -0.2627788272682765 0.99490276643728 -0.7733860311425842
P 4.9665167435022095 3.9799174641304766 9.359653607881901 1.9395656628824016 0.9724624351558929 1.1558795353653901
P 0.511793979793983 0.35003251514226585 9.268493083743323 -0.49016256286671067 1.0565729897535676 1.0356907469879195
P 8.923812194173191 2.629959127773777 2.5231929783469518 2.04234319776196 -1.6700937398646658 0.5395529403743805
P 3.1545797516835163 7.326896877550341 10.035257413745326 1.0869824552833602 -0.4093795299803723 0.6191164990313208
