# total energy = -340873.01971824263 ev
CRYSTAL
PRIMVEC
9.20254619369720 0.00000000000000 0.00000000000000

0.00000000000000 9.20254619369720 0.00000000000000

0.00000000000000 0.00000000000000 13.46885656210061

PRIMCOORD
 96 1
Ni 2.501206037094047 8.176609515460749 11.819541406819669 0.6749235786986117 3.1288615689247083 -1.745774161417116
Ni 4.968325843163254 3.5128235328010113 6.031448149291337 0.1608728963603939 -0.9652620607527118 0.8285405648275408
Ni 6.026977552360488 1.5391626576211033 9.245076660406117 -0.06913593556571318 -0.2709186827665914 0.5191540650030543
Ni 7.581545272275214 6.855703645424993 3.8142317668418517 -0.7129602217563592 -1.3324495307460666 2.7438154734833775
Ni 5.155993367269506 6.708094804809866 2.917772173180119 -0.09023646498975427 0.858124963352877 -0.17638230484990267
Ni 1.2046316991397372 0.7957579713996868 4.827049274569777 0.15778500146368957 -1.8547416271574702 1.0481978783159946
Ni 1.2963626793923302 2.7536870938968296 1.0746236483351148 -1.5875554148501176 -1.0788585406246451 -0.3135174912737246
Ni 4.229453410932047 5.124640292458052 4.607965178083476 -1.4977781488849689 1.342851957026313 0.343480356184402
Ni 8.08495215557754 8.114777607724275 9.172775936143225 -1.9035964438766442 1.1322783510066823 -0.4551171412268033
Ni 2.494911495511706 4.334196791473279 11.432809925426504 -0.6315171866885189 0.9958239926999689 -0.4812164094170165
Ni 4.200612631225824 0.3800347885430627 10.318113789781005 0.2766039060768269 0.4331810032753443 1.3285651080899956
Ni 6.267725362792678 8.332031317776764 1.0452371576408326 0.11192809103057498 0.0852364406720016 0.516324308863743
Ni 7.8517596355533925 2.957956011299197 13.242660877453694 1.1004504078628081 0.286205690832649 1.1602781786537177
Ni 8.018620202762463 2.7614080301359873 9.38425044719906 0.10834217345152954 0.29153070258998826 0.7899274804410332
Ni 4.1031852748921365 5.255049574275818 12.92272147618426 -3.19231665205556 0.15018096386418653 -0.4066749865650158
Ni 1.613684876530162 8.304423679257726 2.530555717603637 -1.32124749138266 1.3657512302219899 0.3882815716594926
Ni 8.83770202743765 4.240772542724852 3.0821324085939814 -0.2863902960396294 1.3865645674229155 -0.6940983518548497
Ni 2.154739376226283 2.3030292052582135 7.0249108619081815 -0.6631682379348965 0.23873541316582755 -0.4380604428548326
Ni 6.610511005191237 0.038520938025614786 11.260166478202313 0.5065338051358825 -0.31565536355233376 -0.1391750996719861
Ni 4.473100023408737 3.088319280386098 12.847955389801616 0.20201928869171656 -1.7925962639769775 1.3115788579446443
Ni 2.662167772206216 6.163350084098366 2.9505682072315023 0.2327246881953734 0.29920518841611055 1.338794242017172
Ni 8.145146010095218 6.555001246675623 6.347184747723558 1.6494066438289594 1.2214313531242704 -0.7964184874820155
Ni 3.967732997771559 7.552345593268244 6.496271517254072 0.22765472987163374 -0.6743664206435612 0.5069719211145657
Ni 1.0332342766673717 1.2689851045276166 12.296500172420755 0.2361501689371546 -0.3281748361755832 0.9574747034978093
P 6.034091120552226 0.4209953215591432 2.8726778564231212 0.654693367694666 -0.9946829371169901 0.8587304581473597
P 3.3028122265866835 3.385202622473668 1.206810862073507 -0.47955521966450954 -1.0029107243434212 -0.1272950604049485
P 6.905645863505934 3.9495763741722043 1.8363708495885804 0.9898716317712758 -1.5558056332423464 -0.8219711391401392
P 3.0496869915517903 7.679736439941262 4.593378222144633 -0.7621312841643713 -0.15552294490239021 -1.0042996342711477
P 9.024449296926603 5.849101537382321 8.406546174648884 0.9554741281280125 -0.07172863599355389 -0.9929284163197286
P 4.986684922778414 6.6412475094091 0.4513600429116167 2.257365583581564 2.5768835154130976 2.545778823588493
P 8.22909163628544 4.524836737993415 5.339863000570157 0.5291996221645144 0.10794442379247861 -0.19663205623787425
P 3.3010821479061567 4.794949873263691 6.872430193349062 0.04628936998484286 0.6315097304893512 -0.6457857807923909
Ni 5.032458387442981 1.6134088001449713 1.3666986600472855 -0.6711476565959473 0.34413727304211056 0.4284743418282943
Ni 6.344980737915122 4.824011514078065 3.7908499375254605 1.8633975030602552 -0.5253920754929662 0.7795178550719349
Ni 8.579349746176486 6.816353557989189 13.405862512304378 -0.030025856938128932 0.4133326010908494 0.46275203206424176
Ni 3.3646993496001953 7.682800887816875 9.092502125876033 0.3689887848681516 0.09305747937831714 -1.1727423725589996
Ni 1.402339201120747 5.139612835081543 1.2366537990579705 -0.6749127800653344 0.23402309529182277 -0.40318419980293785
Ni 5.031234448801971 2.96007259691899 3.6787215136803844 -0.8795329967150077 -1.8831937118505762 -0.38865823827262097
Ni 5.718195318071212 8.352479375373198 4.86389995046499 -1.3441927873249238 -0.020755487379796513 -0.4469945121196689
Ni 0.4694991816732424 5.688627537217322 10.5875045251767 -0.09119291536575262 -0.1859910315842603 0.4156820751596325
Ni 3.672846608203533 0.5482794186965542 5.053339884964164 0.04732681011042172 0.7870550439892445 0.2429067709346978
Ni 6.3762601923571935 2.615952585325345 11.514942650020645 -0.9688541489793445 -1.6165636291570096 -0.523224378417686
Ni 2.05249908824411 0.04868423001909026 7.461544070179126 -0.012243850364359559 -0.9848250704863039 -0.07375106574022137
Ni 7.877931676869442 4.2235913890198375 11.173171128210353 0.6310734142828809 1.2777948195156639 1.1975617455955248
Ni 6.314575525359488 7.0758009422449435 7.719864142528685 -0.9972792370892567 0.9577688376994601 -0.21121638180995236
Ni 7.1618907616934795 6.024529675078466 1.5723948923610873 -0.08634998545115452 0.6886234447832075 1.0416281955182771
Ni 1.667243695257097 6.519921140664097 6.9716548069503395 -0.5830508636570152 0.8586972909165792 -0.7091321062595206
Ni 5.256429956201769 4.775357652461346 11.075346221881992 0.7532208690486188 -1.0647208156716823 -2.32941483613933
Ni 8.438974106853347 0.7943039691043507 0.6726591922617622 1.4145895918809317 -0.2615405839858012 0.5314783908963621
Ni 4.836830660897072 4.654546626302033 1.8172718852611094 0.11269119444884462 0.16987381430742357 -0.054697648653196124
Ni 7.725427081690271 0.12232576525939155 4.508255590298881 1.814455525943914 0.8145190537374681 -0.41269136796242467
Ni 3.976420201358883 8.771922227392954 2.7829751173470605 1.138129924691453 -1.112448974985581 -0.16195610212224365
Ni 7.064555430821521 2.5788111089710646 7.397822879713332 -0.4102835298518805 -2.223696473463893 -2.598584654535615
Ni 4.008141378017259 2.838267695772991 10.65200701181258 -0.05548594888244637 -1.8455671597470538 -1.771515017826646
Ni 7.082132294011976 4.771787064546217 7.296268181421048 -0.39202509786232487 0.9810000403132588 -0.012385261038230282
Ni 2.9889501868099044 7.348684043913295 0.8763925214768606 0.8197345365001365 0.10823470133938777 -0.17824352642835753
P 6.1780005376058025 1.6703357507712293 5.5070649822422455 -0.2109343317931593 -0.2196272315814669 0.2539396317100917
P 2.087468763701559 3.1245497046692505 9.226570340052188 3.4564761617214472 -0.37070910999336804 -2.698122085211321
P 7.275781473130687 6.784687596607852 11.701149730049242 -0.11367078475329455 0.19301297142804824 -1.1345789741154009
P 2.688523864445725 2.7128922067118633 4.95954293309573 0.6081898248164881 -0.6708306395761608 -0.1837631706950061
P 3.3275854808844345 1.1062656830964024 12.19893201713062 -0.3350494518082294 1.5364236291713087 -0.8355072259533611
P 5.450244781151594 8.689338578036336 8.94150214699615 1.1252052462099846 -1.4858533724229248 -0.9976055100804239
P 0.3337791104590305 6.458162853297008 2.7738029395764183 0.01804374487558828 -0.883090375048963 -0.7754092322202
P 0.9911510330181836 8.546837150547232 0.0641730354828883 -0.4277284648012053 -0.3923781103263694 0.38561456635029073
Ni 8.265211630014518 8.23162233648302 2.3408332649369505 1.2822621112583983 1.7215263446133449 -1.5856664253575208
Ni 7.044503082710526 -0.023618334753037665 6.753944650607668 1.1180511516637066 0.25058022831955556 1.2623838842772324
Ni 2.7532637767728705 0.6995241853046388 0.7983098374534633 -0.16718058374597658 -0.5590730126851792 -1.2109985878267209
Ni 6.487896279982013 5.057608946133825 12.99789063408928 0.3410203246796837 -0.24471708467055922 0.5939523410608674
Ni 0.679854663114441 7.48574676661415 4.778454309248565 0.9237297458368802 -0.3176163439334465 -0.4036997059867757
Ni 4.766698056512541 5.536555461708282 8.542541401993669 -0.6375073428336827 -0.19607746928598488 -0.16489461592527732
Ni 4.151323793923167 2.583375571872879 8.134367988017384 -0.036682443022698116 1.17210679585753 1.1741153416471264
Ni 8.962019223688882 1.0038413441907685 8.08138156766241 0.6163008839593968 0.035611835666338666 -0.485982206236776
Ni 0.29844685468236476 3.7657187041815794 7.203023382322995 -0.6251588485706587 0.8646385961016787 0.7219688530128727
Ni 2.286179343215427 5.316025645218201 8.782206072741296 -0.041823363793689255 -0.808074326553389 1.346984748247764
Ni 1.0031695583201385 7.529495671120653 9.279665350452003 1.253177535187616 0.6003703287720692 -0.1360938896435011
Ni 9.057974172634887 8.319764323728137 11.43458785734713 0.12293241256087861 -0.262162019619884 0.44884776327832376
Ni 7.2882233155566 5.892914859712035 9.600749548465364 -0.9886709265949555 -0.5293243206678366 0.9661534622187297
Ni 0.720361510604192 2.976140242537071 10.567072111908757 -1.926952087883449 0.3115035461674893 2.928048641836267
Ni 2.703542419800082 1.351642374253619 2.991002354606487 -1.1569889663794848 2.141565154079776 0.10480793504602595
Ni 1.571794886350607 4.803517443750766 5.149385939117283 0.6978020259586821 1.388014155385248 0.9395296889836142
Ni 5.165315546542769 7.055306871917644 10.749561363283457 0.7298084036619495 1.4802203425068636 -0.3009967330988945
Ni 1.5986847262681505 6.518053023790976 12.724392802336572 -1.1065691191660363 -3.386119980595388 -0.22114778199105137
Ni 1.9244916709775002 0.7054405022392689 10.040722360742492 0.5733572905183351 0.3569357103583595 -0.9892874771330319
Ni 2.2780903051293486 3.732018980096006 3.1396446411568433 0.5775985822931924 0.7536175902664053 -0.6044285580018429
Ni 7.522612166583239 2.143088952771249 3.214234958907582 -0.6986420053614741 0.6827384467573403 -0.48744156439112185
Ni 0.3799492048636537 2.8929952378638992 4.810698190529568 -0.9380245651929974 -1.0342061920225931 0.0722233162417853
Ni 4.678749322737056 8.660203316852577 12.701185821397468 0.3393704477810865 -0.04125926376010313 0.5623565685324573
Ni 4.76831770463899 0.5872015877353122 7.104956449030283 -0.15518921571205532 0.02233131650734864 0.4839957719343665
P 5.912405852506477 6.309136820571237 5.5745040013619365 0.07898943132102526 -0.09680614778747199 0.30533701234546123
P 6.492957680377169 0.983466906963718 13.349953363284854 -0.29221307336899355 0.6809602718109949 -2.1374868702453442
P 0.6056526928122032 4.284760713431854 12.605193142012151 -0.5973837353399195 -0.1246715067391724 0.4802735858877728
P 0.3184844787194831 1.1710792157929324 2.886174310640462 -0.18366855409867078 -0.1892776727553321 -0.7067543500559634
P 9.079305674663933 0.9411075869293394 10.268494581070737 -2.1323246093181147 -0.3808811654303634 0.08040148117720347
P 9.264203232372108 8.694547219170262 6.4951672117133095 -0.16714073164697665 0.1962600176104362 -0.15901604565731323
P 3.08606465657371 6.404622439662418 10.77384596237942 -0.5604295267130736 -1.5865858518479965 0.34785945908870414
P 5.963047464096567 3.811970701247142 8.91546722361808 -0.010113948505550323 -0.7511254199721709 1.357929934405358
