# total energy = -340858.53996495885 ev
CRYSTAL
PRIMVEC
9.39038147186449 0.00000000000000 0.00000000000000

0.00000000000000 9.39038147186449 0.00000000000000

0.00000000000000 0.00000000000000 13.74377247838193

PRIMCOORD
 96 1
Ni 8.503948110818486 5.455764599288635 3.4253744706109206 -0.6516347833740003 -1.8353408540333551 -0.15706586390947788
Ni 4.925010856285007 7.194684803870203 11.114615914582183 -0.8352719700141034 -3.35300982830498 -0.13471757812126478
Ni 3.6111274817236643 5.039442043140197 2.244619471165672 0.3279776325631125 1.4159425063644 0.6111121406696056
Ni 4.627908581468712 3.551010260465915 0.7429265919808945 0.9260560799772115 -0.8967892126922943 -0.24903345265772595
Ni 1.3041643298875265 1.1987197379626182 6.819907172790265 -0.11795835638505492 0.6817177188023097 0.41137033515815596
Ni 6.422663993422754 8.471109947316714 11.91682680099709 1.115898624097078 1.2705823609276248 0.01481186820185191
Ni 5.931030579028902 8.09063986707613 3.7525719785432665 0.324787407760589 -0.6493161625431527 1.2423269656263571
Ni 4.27587257588737 4.864461677486199 7.021376865130608 0.4875076417423669 -1.37885640014538 -1.7429958273410304
Ni 0.27996670697013093 4.252828580110033 10.779364276585364 1.6265932454788694 1.7567751405133099 -0.6412459839405086
Ni 5.073763886891692 3.5661569455469446 4.884509202581977 -0.8622952926804826 -1.2124080665797379 -0.08572186494885235
Ni 9.132080108186821 3.8863971199538505 4.986748857359857 1.3630947664357493 -0.3504015087842675 1.0253235448209825
Ni 3.6087517152478426 9.434610023410329 2.531973591126036 -0.5258301914716492 -0.06547725576720337 0.6986417482511581
Ni 3.1242268195187997 3.1025444290339297 3.3551569551974647 0.9325596854236843 -2.6379677843189278 0.9939938814697656
Ni 0.5692270743399486 3.448711446285672 13.786377539261677 -0.8074210092401063 -0.5581016499108452 -0.5516800626552176
Ni 5.862574699152458 0.9326977472636147 4.592234522806077 -0.09099159798822394 0.6653205083912089 -0.17720222964803675
Ni 6.0490958434577795 1.278322000474636 0.737834188187068 0.6323342832731755 0.2741976106281794 -0.6914789119541317
Ni 4.437678236539084 8.485242471214388 13.336310647813375 -0.9218518120878768 -1.115978585405394 0.27646043852042707
Ni 2.214458505380329 0.27736744941871805 0.3978272610860725 -0.4556421604923379 -1.2545715873216652 0.04228873346588201
Ni 1.8513136786887223 8.662852143640047 5.642656663656386 1.473100957853263 0.48799872244617254 -1.2926647946489607
Ni 4.673977792260732 1.761212969852718 10.685892420852836 -0.9633962111885667 -1.708574669548683 0.2512500006930705
Ni 7.346639954509518 5.140435594315937 9.354479082429581 -0.21124954904073295 -0.03483664806321097 -0.29717016026395277
Ni 5.798917304134296 2.6352884445658993 6.974648449569408 0.9328476489777483 -0.4868450684577035 -1.1333404737226096
Ni 0.5952243450447404 6.6579775591050305 1.06858971160435 -0.577056079526161 0.7768518782039976 0.8661342068105986
Ni 8.267949047299313 3.6442379662839297 7.639544728872484 1.135451092307709 -0.8304892039134794 -0.7049715471239278
P 3.859615752408224 1.833932082851782 7.53337426047097 0.1091816386336894 -0.42151102313658373 1.4307641447582649
P 6.661329925238896 1.0775650380770392 10.937939646060464 0.8232345792335952 -0.35036397067811276 -0.9963225296029422
P 8.313558129406292 6.45300431549145 10.735357193532831 0.48748424470359913 0.3575782290383648 1.3518816713287491
P 0.35069130297526396 9.080198251353167 12.812150830577819 0.2623538239157159 0.7881904431452683 1.0757367071662118
P 3.9704879847403456 9.01580840659147 11.368999466664059 -0.9705932431576381 1.315178916591077 -1.0813070021651379
P 4.151036846521467 5.626200020380192 4.436764552435932 -0.6142033780004197 -1.6875800695748873 -0.48807971219575297
P 7.839315701230708 7.583371467772225 4.772676334240066 -0.5265704120717836 -0.766435310856364 1.3416306830247025
P 1.2354267385712625 8.790861821894596 8.483054512365113 -0.18315587612831036 0.63914924931248 -0.23578584361920035
Ni 5.531836078421565 8.350659526030686 1.5259163068568313 -0.34498368020280584 -0.22398653699142715 0.32888960285442065
Ni 7.317858435741165 1.482149617566279 2.723727055906961 0.8239287770871423 0.4476043777895259 0.33502245522503593
Ni 6.30302114493088 3.14246294005653 11.740343035292582 -1.7246911154945717 -0.9980217716822362 0.3514667168239883
Ni 3.024444627534289 7.22011395650469 1.4034178434033073 0.1445052536356479 1.2682591121110867 -0.03946257687099655
Ni 3.2398505848025647 3.3058274040085855 8.860280215857093 1.5641156957699385 2.251249443381497 -3.170012589241721
Ni 0.5493016242014266 1.5593855039838023 11.212320954217084 0.19664748285684197 0.23963735615480666 1.9587481493481234
Ni 6.036832005444249 5.600414033255265 5.323155512259944 2.1884947287517793 1.4642825882306847 -1.5688807212587494
Ni 7.996172630922904 6.555087150901164 6.871817200767903 -0.14911035650782706 -0.18282394671018834 -0.7943091544484966
Ni 2.8656532792886575 7.203943719858979 3.936161445798186 -0.09356912890741305 0.8516866639267011 -0.5513041673730377
Ni 7.95761572519277 1.92462438571141 5.424763194374494 0.12075468818326945 -1.5980534861679638 1.455749353948693
Ni 5.209727218130515 7.228011267200999 6.771680052369218 0.41473590919627934 0.40499425642848313 -1.3008195625456114
Ni 7.9176314815008775 7.373233514428598 2.598287525021709 0.5308672396749244 0.6090367461978156 -0.5486531029034358
Ni 9.693221125165781 3.1612343123299196 2.475556180111266 -1.264534354961332 0.491292819816412 1.023559253831708
Ni 4.288765569449833 5.551734296454239 9.183299943136898 -0.05863632158596998 -1.165866728485089 2.647640274411685
Ni 7.7160951174531105 5.583896352500441 0.9249844880413224 0.21758063346508333 -2.98090023841966 1.7704030157093895
Ni 3.4676706261856087 8.941530490292063 7.4288658895644 -0.6054536568322476 0.9964382292452002 -1.733595359962737
Ni 9.253807621333369 -0.2564184477155141 4.1466468432509265 -0.11247676444519339 0.6857525509933158 0.5828595735818155
Ni 3.7274273544629986 1.4358268664784197 5.520969529149546 -0.6499681943048548 -0.2273803931643245 -1.0976137097449612
Ni 5.891637929360632 0.5534465385193226 8.664610023024526 -0.2637882423693973 1.8120993670069114 1.3413414339190577
Ni 3.6963264115067873 3.735193199820724 12.007329418153907 1.3493622473410052 0.8735353843706761 0.7808340027801971
Ni 2.7399066829339995 7.652447112816274 9.815692356513456 -2.5732405193438717 -1.6219554895965422 0.998151869502197
Ni 5.756228630620123 2.9834837841843513 9.192192634253907 0.7041451945678905 2.236445802709761 0.5419196408343442
Ni 7.76618341145324 0.8907321331116497 12.727818632991209 1.521277774668806 0.46780630665869755 0.8625189786555144
Ni 9.274043893093827 7.143779546694593 8.897676470455165 -0.6436219403718527 0.8312744188189362 -0.07937715367774717
P 2.1857333288999397 5.287470185139717 10.433419811371078 0.5873464057085755 -0.1634234306963895 0.5209528087746899
P 6.754332261905056 4.959360871180484 7.165466632370128 -2.5525521377565847 -1.3580872859188289 1.21387230983009
P 5.166024383432989 6.328741399386515 0.9841899032721847 -0.7390183522959918 -1.1919533982698118 0.3432163038897379
P 7.8378038498370035 1.5454783492379844 7.950895968314912 -0.6176517415603362 -0.20258441716656725 -0.9519175211250057
P 4.310476131078686 8.759197456058743 4.960457667719519 -1.0622720970208739 -0.7220724684702725 0.836854998230507
P 7.224133039712799 3.3950078554745087 4.133892827332108 -0.6190612203133532 0.22079579796827137 -0.8296880481684228
P 2.138142876332887 2.024030962442827 12.834593841950205 -0.9852282194619935 0.9303868461420816 -0.5964951620873792
P 7.477926875847317 3.1909079173243726 0.725815439126182 0.14985649064523224 0.270957763534643 -0.35221413651297406
Ni 4.144087964339222 1.3674836711779046 13.027914561374667 0.17073873341088014 0.7852632421961444 -0.3316751360193578
Ni 5.9149354654338095 4.626875639522702 2.9102162729157692 0.6528293179027338 0.9668517738373349 -1.0821829770121878
Ni 0.9684206359091517 2.8699259027926054 8.990488182380378 -0.6019883239914664 -0.49667311029171884 -1.2719712708553514
Ni 1.6311749692314579 4.755429959894239 3.7237791913173197 -0.2691266238631752 1.4852041688747002 0.1862525127757631
Ni 8.83567272158875 0.45652653476339033 9.605013517205371 -0.6928277126725423 -0.8343815969893501 -1.2305248307851067
Ni 0.5902371135217803 5.55034452001779 12.775056007220353 -0.4889531159396418 0.6726023867646029 -0.8503193512655293
Ni 2.2437471047403603 2.6328751165647684 1.2219646879003614 2.364103388660451 -0.8551789933506755 0.2517379960730826
Ni 4.725418301172002 7.9880969029813755 8.98666817525641 1.8329980648327915 0.20526710620505295 0.5507580650615804
Ni 6.07973665772895 5.341784150737157 13.065970959780053 -1.026136270530265 -0.18767638970648323 -1.3092959754477385
Ni 2.0837162261595172 7.3867556635399945 12.892043255872851 0.22381093064551133 1.0366086308164986 -0.42403661777191487
Ni 3.0747113387796388 5.287949094587411 13.63885277053261 -0.18148131663936484 0.1874467901941804 0.04666603659797125
Ni 7.816262315072043 7.23977741500418 13.33741026146681 1.180479336191941 2.1790040156525246 -1.2464281322789244
Ni 8.221213119433049 2.8575212090591644 9.922948352996412 -2.221858906034522 -1.7072376959048146 -0.03916047224954546
Ni 0.5601963446174278 8.011741883163664 11.07701307159491 -0.24400231799172173 -0.6115759676799015 -0.9710498710790826
Ni 2.7396437522568338 0.637116714222352 9.612847912346789 -0.01587039137335331 -0.6971713343532187 -0.8840959334953418
Ni 2.3685452725809544 3.475220492772805 5.720392118360525 0.05201007451870397 0.0010549236270756025 0.6919738493126792
Ni 0.5840263153118654 6.742359525712673 4.734001109705209 -0.435255883526502 1.5252424157435087 -0.3005164510283663
Ni 9.268569300779976 8.349607803322023 6.680779283044122 0.21531292047682918 1.6786853381884186 0.32774134818259043
Ni 1.575771719400043 5.837530552152393 8.257148230696584 0.8192025752560665 -1.8755235968998278 -0.6516435251247487
Ni 6.811134678554247 8.777940657188152 7.066319230163345 1.5318254682776649 0.4367386387196156 -1.4857507854067897
Ni 8.21659305181999 3.82667429471185 12.404125615370234 0.027929379420416414 0.524899966347896 1.1438082060231527
Ni 6.912654091084319 7.695840064929998 9.309014612195043 1.008447080780618 -0.28260948884095843 0.5728530971884069
Ni 0.5277159546442276 0.8542796118369768 2.091238860640864 -0.46435614332656805 0.6770316261805501 -0.5855309497663916
Ni 2.5363326061381954 2.5774249148267163 10.58512329979082 -2.594027631292552 -0.13688013299022234 3.9721157858133402
P 5.624481580597284 4.907957923794523 10.741720115920248 0.20780992723156466 -0.03617593569992479 0.9690091864999699
P 1.1247141427217062 5.251223313216112 6.007457953614139 0.1895725782879316 -0.7834860956910636 1.5381205572577574
P 7.529573973147788 8.906720346711545 1.3120625796219676 0.6776515191527362 2.317155559156003 -1.6422252955891716
P 1.5100390501085337 4.780924845198018 1.5207760121182352 0.19128339033145123 0.03387865502531585 -0.25110987557078046
P 3.450720987889727 6.708845254755331 7.7237116557477306 -1.5251107752616508 1.2707296851387664 -1.0712002527484392
P 1.672905823850239 1.617972093085192 4.577789299210202 -0.864383285557763 -0.15566512690720932 0.16935985078548252
P 1.1839580585160108 8.318995160194833 2.547820798654086 1.2678852737114357 -1.5877407913880461 -0.13211459328077893
P 4.679311528854672 1.8539335950790554 2.2692344777390767 -0.08761393976524266 0.7132558986199071 0.08783505463711325
