# total energy = -340892.07298881456 ev
CRYSTAL
PRIMVEC
9.05425187310471 0.00000000000000 0.00000000000000
0.00000000000000 9.05425187310471 0.00000000000000
0.00000000000000 0.00000000000000 13.25181283409799
PRIMCOORD
 96 1
Ni 6.353323124775637 2.0176766046421557 11.44410600461861 0.5669799262370816 -0.2124163156553245 -0.7694311602598942
Ni 4.805580290250278 0.40658841459116835 6.142334614411862 -0.5277690603655749 -1.1537347211082454 -1.2125646467622602
Ni 2.858789421923571 1.856791606738311 4.5552175556541625 -0.19563009733592115 -0.3098618967990083 0.9463546823252476
Ni 3.5025648240823397 4.423508978328029 5.012060688708131 -0.82497161652936 -0.28466919958346454 0.09274329057200802
Ni 4.6920671370778715 4.4711162336028565 2.6539804383237873 0.05123051604020209 -1.232569114908645 -0.36519229394019687
Ni 7.161894961559196 5.998305916839921 2.6152454442592683 -0.10904022795981866 -0.5413879367005903 -0.5184840355192233
Ni 5.285998883799606 4.7545867448512995 11.330153720240265 0.0642205005419668 -0.345933702820901 0.8612547672311103
Ni 6.020307748395234 8.072091719073958 12.511645736784361 -1.1353526190566317 -0.6871142072275327 -0.6827726424293854
Ni 2.085130779575109 6.35678184891314 0.45793054867939786 -0.41220697212683843 -0.34148260902808286 0.977219233114588
Ni 2.58958841130524 1.4066142137629516 0.2773788107256381 0.32107447768537606 0.22419556767843968 0.11096547000698954
Ni 0.5441387950940457 0.10777547388985506 5.0398762552600145 -0.12782779297996694 -0.5671601605686877 -0.8540075987503937
Ni 8.393635358589925 2.14052469128515 1.5593141681581537 0.07863924707045811 0.42194168291609907 0.00656556903265966
Ni 6.991385294131361 0.8544578788161369 4.692042690598365 -0.7508652243322488 -0.5397123487703802 0.4329354629234415
Ni 0.583888770770643 7.330240662838174 2.5255042288434346 0.26636320218542514 0.2528062894365969 -0.9504589343016084
Ni 7.435777020290322 3.7562740100952627 3.960278070721685 1.0743745367113626 -0.6041022850106758 -1.4752560565230528
Ni 7.468607736841583 3.724828594049337 12.759282236202985 0.9032197988089864 0.42655604175965894 -0.5225808312964161
Ni 8.06741972521283 9.080871168759186 6.994691001415659 -1.1718370871359107 -0.040620344624523595 -0.5430560684316326
Ni 6.679285239106006 0.9216956571342044 0.4443899153086286 0.6457693257321587 -0.44570227567080656 0.005777783024041663
Ni 1.7460671630799105 6.713320171129223 9.332006231022655 0.301117574947475 -1.7836254279369346 0.041443868967083464
Ni 8.867308534645957 4.436845891036249 1.4888938203784843 1.2293626921562053 1.365583337185558 0.27609071388583417
Ni 6.462281989358612 2.0274008709345037 7.112976650642719 0.09840923060853374 0.7028871537910734 -1.0944509957462634
Ni 3.3785034677157193 4.219589122242128 0.3830926315104954 -0.5398208493237865 -0.40404526225165255 0.5183683358769654
Ni 5.748481004792936 5.395564383244393 4.6612057202645865 0.31494522485918663 1.015173343760858 0.29573805580311646
Ni 5.4290922771741545 2.9059077476082806 9.225421391227254 -0.21429759183843736 0.10854426216000661 0.34099461364807077
P 0.4288491977442097 5.566318515467287 12.587340186161137 -0.25344932233723444 -1.9131540056580925 0.08531254532557565
P 4.110847559699206 6.025894221674916 12.601956464630165 0.830966400660214 1.174583025312164 1.0119638356846248
P 2.291513392114939 8.299896691062292 1.4986208029463328 0.680452478936641 0.5350185428391366 -0.5198456917534402
P 6.414828656362155 7.825390523852726 5.828836582928837 -0.2511178459905804 0.010046585602724633 0.5665356396108114
P 4.509442880917111 1.0238909957205455 12.508240432731705 1.2227019923065783 -0.6867431970413592 0.9705081396429995
P 4.155376369406624 6.1621607092911495 8.099985152190191 -2.102756922963327 0.7322980028530227 -0.5332655647037718
P 4.69681156495235 0.8447933705848035 3.8716233655061134 0.5049122103720595 0.5280881342678905 -0.6037667560481279
P 0.007055072900370071 5.510987983518928 3.6471105194245728 -0.49637897609006776 -1.3574997888464748 -0.9252677797479614
Ni 1.2717782979103964 1.0789499001188392 2.5974085684716286 2.1785335037740094 -0.7182680071225179 -0.6514329517758393
Ni 1.3478521204320972 6.710667275390249 4.635165692464966 1.8711784325572547 0.5266665713300156 1.8190110065250802
Ni 5.843994305647663 5.6994703405094365 9.207319225865719 1.9653743964153896 -0.18746530213694168 0.43627095505457764
Ni 8.863677779726748 2.1968692994204204 10.31621787422962 -0.5426403210504525 1.0493209361768445 -0.8239750569440454
Ni 2.097399290586404 5.713422942331138 6.827691667359837 0.7799945375980373 -1.4815940829259386 0.6883789328725693
Ni 0.5454924057185392 8.933730524888661 9.031640486160134 0.43264981336222263 1.4765855739677538 0.4856317648758927
Ni 1.5075872283739977 0.9677455811219896 11.394756711322696 0.5208383946840127 0.5413475703809579 0.06793085951401849
Ni 4.509841267990541 6.660850782708222 1.6301455789635888 -0.6916347208057056 -0.16072094416356192 -0.9838997304585572
Ni 5.83407990007027 7.860077361996101 8.069452404712488 -1.0658932387132287 0.3298244559638642 -0.521112988501638
Ni 5.297778465220784 2.776594925273725 4.924280624203771 -0.26817891523792525 -0.02894419383817596 0.2972359805048817
Ni 0.637327869545379 7.522399046006238 7.012581297288144 0.21580862916632507 0.026640485405663796 -0.38447068255383465
Ni 5.0243853360797734 4.3833443179249985 7.2584685152843464 0.3565171347637021 0.06968049521527354 -0.9877000780412538
Ni 8.140668621213848 7.14836790956593 9.089603994493796 -0.6810525744144851 0.5213796118994632 0.7550100997385578
Ni 4.5712472028087 0.4859607009958323 10.351335694752432 0.5161101359704079 -0.9554057367839223 0.45836393029887507
Ni 7.899445248252273 7.312820282627303 4.38248054231579 0.8742079849576686 0.4065986248011255 1.3534014504073852
Ni 7.198591843573055 6.048991617682159 7.0747450729709875 -0.6902684365857983 1.4788985383716466 -0.7541842614031528
Ni 2.1979829723756894 5.31129646296238 2.74650402527746 -0.5074439756549777 -0.5650670254850849 -1.1605034072906464
Ni 2.508688672644041 5.278511017669465 11.418093139573994 -0.9196869432260741 -0.42968970229263426 0.12435346127812133
Ni 1.1405912454803888 3.4522684560618626 3.8551111267376266 -0.7759725609228378 0.11504323962078898 0.0923681666207764
Ni 3.740492449436452 2.19584616898184 2.2666956882906133 -0.7385218722755476 0.3100179627608984 0.20915667106744626
Ni 1.352478843034881 3.338891116664488 8.295237373153501 -1.3156959654368114 0.5989030001979234 -0.8468776725738317
Ni 3.6079291507527795 2.5103637092027786 6.979729755958047 0.26318763267092093 0.41563065309640673 -0.32063353349321555
Ni 4.070510868514467 6.820658324663474 5.775524243677465 0.29441342345442195 1.0521038982386202 0.8267688176390988
Ni 0.9022199617945021 7.366557266281944 11.593759203327242 -0.028374951598267265 0.617315184156524 -0.2833682213838539
P 0.28097153778783884 5.676264293482165 8.128250715050017 -0.6432077356525696 -1.7192622311695165 -0.8299803825978609
P 8.524170504899777 1.8191168655442147 8.070684688364617 0.565622897988555 -0.03689353059223969 0.48163292812914466
P 1.9552747021404224 3.2009405382378473 10.376460337708334 -0.1657821607365532 -0.3329462894222976 1.4139455305390292
P 3.8464543567170364 6.204163382782957 3.6708715920791426 0.005757214198751375 0.3739877807446398 0.6808453434996855
P 7.022993686707326 4.122355513570318 10.239304722578218 1.205779762629943 -0.7823147010907817 0.8275370632636908
P 6.40476938275806 7.733906364990638 10.34482840407803 0.37454339613779364 0.44788411381347376 -0.07685618702810634
P 2.4227185530482838 8.341075427652235 5.923718802442246 -0.3667149012323104 0.47013675456408704 0.11985274519429036
P 6.6174447002077414 4.054213215510532 1.704858547459461 0.709404643194617 -0.9069777231895219 -0.05095643644320901
Ni 5.345675456549014 2.900085863785208 0.3039394579962177 -0.7684906507234959 0.24137027968551333 0.1868163556990331
Ni 1.5961740267020532 1.114804736727496 6.990437313981632 -0.4739900668719062 0.14431833443582243 -0.1245864032245338
Ni 6.839038455551244 0.7422512541595454 9.126695641880419 0.4724121808618251 -0.24269388359294328 1.2968199544679149
Ni 2.8182625914537853 1.5454973801114844 9.084448503593551 -0.4007403662481357 0.4291240595971513 1.1191937499085822
Ni 6.007432602522124 2.0606752458175372 2.5925183671452814 1.4140293485020874 0.02734368212027549 -0.009009402587461903
Ni 4.2535516202519945 7.072275978540891 10.345398821933168 -0.7190596497858778 -0.27533686643894517 0.3619239076015702
Ni 8.276609155770004 7.040223927633153 0.45393581284310003 0.6249436472360592 0.7946899348266829 0.014444971780736412
Ni 7.668163443623098 3.982050829709775 8.04595752705698 1.1388318358544838 -0.7237786525281018 1.0263599565052968
Ni 3.0480685530609377 8.098077421363564 12.490986650751537 1.400954260485684 1.198618211884497 -0.5078689790075382
Ni 0.2554512240340105 4.761341216596263 10.343450346974029 0.025539796142317307 -0.5397635137232897 -0.8006633788012986
Ni 8.71600293500776 2.451782700905301 5.817717961879486 0.3732020516185508 -0.017340548160976587 0.7524533947549752
Ni 3.94846861027 2.7975283551321133 11.458431641609067 -1.4750213148044276 0.16849030369633564 -0.3722931666510363
Ni 0.9646671355545796 3.332652737264649 12.594880566950957 0.725122568150506 0.3999975745448402 0.010993522897026228
Ni 3.0234319342699894 8.368482647453853 8.208795527045798 1.7875407038309408 -0.5823034439680295 -2.1597598227109325
Ni 5.586138272370406 7.702524328706394 3.6267429802954885 -0.720019956816618 1.2214922882691932 0.4153835700826072
Ni 2.917125965425989 8.503789384393189 3.655260251351707 0.7625830269898093 -0.5189170092915837 0.2060320093955355
Ni 3.4888747955590342 4.393466971290776 9.424012820206036 0.6315464972645574 0.41225813707974807 -1.1536210783485166
Ni 7.727740419604149 6.113747625617794 11.454084695382852 -1.7531869089414194 0.4365306364738676 -0.6581214195396086
Ni 0.5884258562819052 9.096263396596237 0.36207499711158747 -0.8175565550122115 -0.08525418128381446 -0.2751987981991841
Ni 4.581071065869406 -0.004593221871609006 1.3632271451909763 -0.841739322906002 0.4315576087393083 0.24861384862180408
Ni 6.365962860105356 5.68459420501751 0.2907302102365284 -1.5923541217903414 0.15288756416207216 -0.33001574603906386
Ni 8.264530784043753 8.97722714990583 11.192547203377039 -1.2553915121197992 -0.10566231262652123 0.4211685521955004
Ni -0.23784885336459383 4.910781640390678 5.801948171747845 1.8769963247906125 0.3198030671721202 -0.08978755037779375
Ni 8.005253233254486 -0.05756421583506519 2.55236547726942 -0.4606635249663292 0.20065608979560282 -0.21290019727027848
P 8.802262790656918 1.6822527973178363 3.7736129020411155 -2.162427599351082 0.5688504037869171 0.5554768106934884
P 1.7901160974488792 3.0334278281124027 1.6843452348785082 -0.23365157088501695 1.1365587235495909 -0.83265355855465
P 4.7892011489813235 1.0255479237759457 8.169782567455044 0.1863031635080404 0.08134276204455022 0.9348050298144354
P 8.464856102217121 1.7741715602600296 12.511645736784361 -0.3966294294035556 -1.502419247201406 0.025806419540142657
P 6.494134846729636 7.84059261240473 1.5217852004159258 -0.5108211196573268 0.08342895514961761 -0.7414814691245036
P 1.8187546954774605 3.400903686344461 6.06926408716872 -0.06797996758439906 0.0881962946312739 -0.4506814740529529
P 6.824298133834352 4.131527470510865 5.975229345611516 -0.5386250292434723 -1.367521177638219 1.0830296412831992
P 2.432479036347307 8.486233190407283 10.227245364780472 -0.0019249849368547492 0.854873803405431 1.627205425141572
