# total energy = -381168.84870671 ev
CRYSTAL
PRIMVEC
9.22400612678298 0.00000000000000 0.00000000000000

0.00000000000000 9.22400612678298 0.00000000000000

0.00000000000000 0.00000000000000 13.50026534336948

PRIMCOORD
 96 1
Ni 8.708171814602078 5.201380028924392 0.610574768703137 0.4418939576683099 -2.6045987219401785 0.3925534595619691
Ni 7.514594675621154 1.0282921773243492 1.5968386855613879 0.24221283019146672 1.5817709469578565 -0.6624727545297687
Ni 2.2737359014604124 5.438713700637305 11.174789980960334 0.25398822555984 0.6989464239757706 -0.9870570451406162
Ni 0.43429018001517233 1.869180226852692 8.307442257640162 -0.7174737933559966 -0.8663013285160823 -0.1959244886478884
Ni 0.7636877321788977 6.460309249680909 6.240133151335785 0.22681552179979003 -0.07252259264975897 -0.8970159839911197
Ni 6.12834650147741 5.523233266665499 1.4135853604187356 -0.6460740014567712 0.10900937472188323 0.6936900606728376
Ni 4.293894656824452 4.472969507296059 8.955832683316537 0.3576327364253841 -1.0274146230220564 -1.606031105056802
Ni 9.083367478441739 0.466349134908503 5.27544418426908 -0.8542045452525482 0.5075295933902484 -0.4401602628066549
Ni 0.5788202060043856 7.5003251384995115 8.263971362651876 -2.0008414789737476 1.665847820104118 1.8706973791557784
Ni 2.9850174441392356 7.308096855619716 12.658969425705555 -0.7217618792083893 0.6672786605588443 -0.32716027886813975
Ni 7.806543686246315 3.85846623448167 2.5024091540372484 1.395997430701041 -0.2804929567185879 -0.29093086422246023
Ni 8.292796381077947 8.978638115494656 7.399913532712508 -0.9525389567590885 0.5595280979447267 0.2726747462257497
Ni 0.3132352490321527 3.069002017825441 4.1740794322339 0.4645417769748128 -0.6120811894510944 -0.5472235695457608
Ni 0.8027403283428359 3.456576297577993 10.544355005161782 0.23828392745070573 -0.5070955911766235 -1.874573574281733
Ni 2.983043506877418 2.308353595589389 0.9928083490417063 -0.8737166471435468 2.1214287883412175 0.2958920648824775
Ni 2.061408509732486 3.6631386856207047 7.873638182735728 0.7441438464480152 -0.15618500396642135 1.537547715473423
Ni 8.894450613678732 5.780795183309093 10.559893765494762 -0.5596674517360685 1.4430460474494113 0.5542467949411294
Ni 6.692366790021114 4.799674572138643 9.93205073535308 -0.35808473636113813 -0.7714623317573102 0.7534263001912057
Ni 0.9363565105554958 5.554262822500798 8.738978149494685 -0.36360875150316085 -4.224433565649292 0.3043121706253727
Ni 5.821334689223521 3.676107637910963 12.181059844207164 0.149598094777523 -0.30776876171540546 -3.000480988765065
Ni 5.666177686041131 1.3838683806224865 0.0851827720521406 -0.11947762124305875 0.6805977462652537 0.13703568473148012
Ni 3.755378744584138 5.525105739862456 6.849035607769914 -0.8248206927737923 0.8515164568974238 -0.0483357109909103
Ni 4.102155246257164 2.9636638704892007 7.123400895954878 1.2819211829792116 0.19557019063226316 -0.2425162203644985
Ni 5.559990930162427 9.102581082723821 9.143283853542615 1.6515164910831104 0.3585097397136987 -0.18225316180838289
P 2.8063576739329625 6.2000723713273755 8.750966589958162 2.49434313351602 0.5911565234832851 1.255710586022115
Ni 3.9447291376242726 6.857347359483109 1.2073061493570418 1.4678291679313624 -0.9081043805947973 0.8580611999944769
P 0.9814342273709253 4.707582097269551 12.565209250570405 -1.4253452877355388 -0.14608879607268388 0.7714577037716197
Ni 0.3854416895893175 6.831510918967452 12.871517271174403 0.42962131094854394 1.3243176456675514 -0.7701130168182673
P 2.368180497833071 1.4778148806767428 7.504271168221967 -0.12290695863958187 0.5924230489005345 -0.5880915114047163
P 5.535611882578391 2.7409779201396813 10.239167701274189 0.7334879093960659 -0.9432493039270464 -1.3789199063934638
P 2.667241217004313 7.5716728241077265 5.271799779539435 -0.4531283929315486 -0.5391973568071746 -0.7764536143243144
Ni 4.878152414304732 7.9866792973960035 6.0381015949893575 -1.3156851668035339 -1.1131593707890441 -1.3806253191203448
Ni 5.340210541670255 2.126723695484493 4.972593321075032 -3.2072797011232956 0.8999269869903275 1.610790217008342
Ni 3.298098652272919 0.9483292702089494 12.667770972131846 0.3728061017317128 -1.7008490187696517 -0.47243043569427023
Ni 7.703400852313404 7.333905624117686 5.421679728948528 1.7003047162304072 0.8832870644408014 -0.7471718346410616
Ni 3.823341220028395 6.039427084636661 4.161281124052723 0.7402041450739768 -0.4703892368945254 1.1588334757873915
Ni 3.514364694518584 1.4927669942347155 9.400369811481958 1.4582394673603982 1.0896227211196847 0.8186199632797191
Ni 3.6263164540825024 8.158079774961854 3.2886108398079403 -1.1917816485786377 0.4602747741683427 -0.2830054387277965
Ni 5.503503118053221 0.3208985531308347 3.4308219507148134 1.0409216563695558 -0.03401698037539303 2.3194944917018243
Ni 8.815280971070417 8.751386282226447 10.519514757282929 -0.8530087251722341 0.5943904570395505 0.06295886022072383
Ni 2.6222741882596394 4.546881466543458 0.667582814744897 1.0864453518329678 1.341583888947167 -2.2663495322477294
Ni 7.67223293638966 8.737624065429102 3.1984019069428826 0.8148036748574226 -0.24938466534955758 1.2287497411625548
Ni 8.265373411548119 1.7420457535833926 12.288616364961475 0.24343796084781946 -1.4686886877181802 -0.3347270354718042
Ni 2.85815046704093 3.632090681773613 5.1616503907276625 0.063733019382587 -0.49612417976678425 -1.2412933821555205
Ni 1.6185639866490449 7.670452703251666 10.686013598115464 0.016329076177326717 -1.0206243395731003 0.6561583822759668
Ni 7.601549379205982 8.540276459276837 13.058833770914395 0.19763941445646604 0.5760890876272013 -0.6963647792915232
Ni 4.184627082976369 0.6643627142864836 6.884096054181916 0.4001770375454979 1.2147675679508498 -0.29185877535336835
Ni 8.49232085262175 3.8259054936675785 8.669141356052291 0.05722684283295306 -0.35798137801405444 0.27835328466776577
Ni 7.799976194048118 4.554251447254637 5.504895020542978 0.4685023042844576 -0.49074054685736773 0.783293005843651
Ni 8.079528140748595 5.848582402641319 7.659429093804946 -0.37933978908517246 1.3755047100643276 -0.10330255414509305
Ni 3.754557808059363 8.102283763294874 8.177825604384156 -0.41794773126535756 -2.1051171956653874 0.49874490521908305
Ni 4.547176634732142 5.469217488136513 12.671727148260787 -0.5103302960638372 0.942772364290628 1.4521433817649894
Ni 1.604192985462542 8.68576670427986 6.7710042074892085 0.6909312669807779 1.4183719417414993 -1.0542116886102424
Ni 1.6660768410211093 6.525670555462398 1.703841765961918 -1.0996037435917965 0.18164766701390006 0.26437908187586084
Ni 4.541199478911311 5.993380847202116 10.520959236606297 -0.5707779598269331 1.9408316740790186 -0.03336186328989738
Ni 0.7232349319198946 4.007360137660443 6.214306857226614 -0.5541156686799037 0.545140718874803 0.2150378124385716
P -0.054193801842785695 2.5338159717137074 1.4350643805489607 0.08968213514818105 -1.2274402783225118 -0.04529820971616715
Ni 3.9050290162464107 8.50911776735899 10.731468576772054 0.09296929053988504 0.21668948910938166 -0.11586779240461335
P 5.120134984989401 3.865208982791897 0.5919192167777827 -1.7772552627445326 -1.195844762904418 2.0654990670531332
Ni 5.925399923746066 7.2175724617530035 3.6693316831795095 -0.15976500800819582 -0.7206285369348944 -0.5204594140780392
P 8.234122479571308 2.6518371271574197 6.713668709238129 -0.15287573708753027 -0.01949616105139868 -0.147832518236668
P 3.4588177310108046 2.0856584212339726 3.4698109012380667 0.22411663481138822 0.17217598007803894 0.016591585810094005
P 8.449355433156583 5.683491145108567 3.813190201539469 0.5664075986733794 0.7798544124757473 -0.9055913843649565
Ni 6.140476069231102 0.9040678779153462 11.389984193720846 -0.6080095904848819 -0.45557351203793156 -0.3257878240006453
Ni 1.0310686030991487 4.259719714978499 2.1121700589812424 -0.28912800668576655 -0.8826717994543056 1.4450697627476596
Ni 3.7860485641894788 3.6722151074227063 10.989080303047487 -0.8340540384466023 -0.8045909959904788 0.847841836259314
Ni 1.4932743145590144 5.534099145611392 4.134266777984103 -0.7242440222002946 0.026809921103992537 -0.21908498592475173
Ni 5.888061147877669 8.457859966593011 1.407132245893654 0.921404183027497 -1.2954359296361948 0.7422090913191476
Ni 7.216484029057235 3.138477230236699 0.20692120187207924 1.7514652982646224 0.3291153457119816 2.8292766285716757
Ni 7.336423777727387 1.9754131027608777 4.344600862037829 2.6904427142891922 -0.47349641506493945 -0.3813169674162013
Ni 1.8393128957603326 9.179500067893429 9.055033177129351 -0.45630473377700126 1.1040779773130664 0.4347678881464899
Ni 6.042009806287638 6.148095098101482 6.187725117034531 -0.1646704157296132 -2.0458195863463344 -0.3850473809929111
Ni 0.7773457177096131 9.362458224847396 12.56211828619454 0.8011626870352202 -0.6232855428073459 0.14600652077152274
Ni 4.18164772907185 0.730372467682485 1.710564221459173 -1.2382324838420096 -1.846787148197084 -0.16806170079934926
Ni 0.6703703093267719 8.054872372987669 3.559088209507594 0.37636553694819697 -0.7756866542513028 0.6791905815050818
Ni 4.119487153336392 4.404167647315235 2.553210366511359 -0.7649816091289728 -0.5877287287486588 -0.21232529860341498
Ni 7.828506044285509 7.004193533352895 1.5343183735959731 0.9810468343907943 1.0737662137034023 1.2319178544778913
Ni 0.16778466725448435 8.815991219524435 1.2770968227699546 0.6049193815953324 -0.46894042026314076 0.016646607417745526
Ni 6.426494044064915 7.380274701758603 10.9644835689243 0.1601768987346338 0.6034795638250122 -0.2591633420028762
Ni 6.42958408604019 1.4888283437169767 7.412914769023403 -0.02553131150188506 0.5998237122399799 0.03622144422587955
Ni 8.114496347101632 3.961212436161038 11.704365064285325 0.10584948893666286 0.4101660304374097 0.4221951936878019
Ni 1.9972094286939368 2.8318712742422476 12.349123998840309 0.06747371737194185 -0.6249323343821496 1.0430782977012423
Ni 1.6739818140742755 0.8844133661514179 2.610397358267508 -0.20326241707019832 0.7375736494296652 -1.7384696573359026
Ni 5.175266868231845 8.431719133882774 12.817556836680795 -0.7029352334201894 -1.277537452089219 -0.761672856470714
Ni 2.1274616159562 0.5146469521823461 4.71797847431532 1.5251760812819475 0.5713698277746612 1.2306842391811061
Ni 7.557596991109906 1.6545837296742656 9.721486973552535 0.012189342977340298 0.7228324865647486 -0.381676150527833
Ni 5.892553238749187 6.396958777184824 8.502250494969163 -0.7792345195035613 1.2256533616254182 0.023710199132746263
Ni 6.3989788344761225 4.083993178647264 7.4909461693041095 -0.7216680339430023 -0.6822951885723347 -0.28266579600019065
P 1.697161740891786 1.0980810059360826 10.899182219181135 0.46638988592714514 0.6995724875955436 0.12398965018079935
Ni 6.316958974045838 4.704611967370929 3.797759362075477 -2.4837848983842 1.220046299851286 0.5205087792587358
P 7.539231995370287 7.751190426862359 9.108804519502083 -0.16403458191782716 -0.389407971954452 -0.6154526770264885
Ni 5.6763702125565905 2.5442390983765755 2.6625222155877437 -0.263837607550094 0.3526751353097926 -1.4547761914021462
P 4.911165131407744 4.429496767506594 5.393652587032489 0.20547485134048482 -1.079792365292824 0.33920949672319
P 2.4532811762327342 8.402137746973201 1.0436335439311475 -0.2915785251087882 1.7092071609263595 -0.2047210038935958
P 6.524941858996587 9.249648632735118 5.813659393917173 1.1049619225799163 0.7525837496852522 -1.1193207624047496
Ni 7.133182031807359 6.121566857143598 12.845650391439287 -0.7742949161100988 0.23130261103686617 -1.27446781202496
