# total energy = -340863.00489943736 ev
CRYSTAL
PRIMVEC
9.28723292930832 0.00000000000000 0.00000000000000

0.00000000000000 9.28723292930832 0.00000000000000

0.00000000000000 0.00000000000000 13.59280415993313

PRIMCOORD
 96 1
Ni 2.3616133427297523 4.915147356387162 3.7602585662880887 0.314150239761717 1.9187574678877986 -0.04503570008339986
Ni 1.3796184692138171 2.728273303447097 8.694569199345569 0.11645606080791557 -1.2719499306991127 -0.2151439989991327
Ni 0.3414469804398507 8.797442951089996 5.807702460761955 0.24381899833632203 0.975493765783049 0.9052717962420086
Ni 7.646596893536522 7.759223168704182 7.0717923944807515 -0.12009674288429638 0.01338824838144791 0.39046032447836626
Ni 1.1341104636017858 8.117728938805776 0.6106662207455865 0.9558065717667668 0.4564060352415559 2.225603717788935
Ni 6.181628752615704 8.597990334160773 2.980303732828424 -0.45069844333381737 -1.5417314145374672 -0.04350460815085411
Ni 5.636904672677649 9.217950289017045 11.265444334549368 -0.2795971843771959 0.1912283687237997 -0.45642711828747845
Ni 4.8732154991774665 1.4022421689176534 4.659327735922433 0.23215441751420018 0.17442081024815767 -0.12457097660556611
Ni 3.371312032426535 0.11633280987693838 7.514442353439774 -0.21609762116165365 2.0066354599477054 -0.7431961378227653
Ni 2.8484965352476546 0.10300748790031107 5.206383840078729 0.90019978103574 0.8073500467928547 1.2015711238652338
Ni 6.648525819615275 4.472592127205225 4.445241225880185 -0.8581146789402317 -3.007371802347627 -1.0530300095973155
Ni 0.2247538259206674 5.818024291571003 2.15982870158229 0.4698927568740811 -1.259074360288025 1.0121453555678117
Ni 7.403029919631429 6.4432872564974275 4.265435750463059 0.8109043398030162 2.3433661561131 -0.16514324160097366
Ni 2.4962503602201105 6.681876273489033 2.079331609142635 0.7131993343503588 0.6200410677281193 1.7133080704686106
Ni 3.9186458248509513 8.456267157855134 3.040846276342109 -0.8053193895160711 -0.051810299803072064 0.39991324236114995
Ni 9.007334417964666 6.10239936748704 12.0166236051345 -1.83647419630685 1.2474460320204774 0.17954321907638757
Ni 4.233445876230767 1.6697423423862874 11.580729179494265 -0.5051022148956785 -0.8895857529653196 -1.1106764564661904
Ni 5.984163603558658 9.034611021425325 8.834996806641076 0.6430735240675506 -1.3180441539540138 1.0755999244780314
Ni 4.846589002030135 7.303164302671105 12.007570410359746 -1.302418274491299 -2.4247742241779466 0.5290877791769986
Ni 6.416391429591718 0.3444987652192763 5.983579436599967 0.429167511240577 0.11520521911994998 0.2991334546379106
Ni 3.199693252940825 3.2114508899790257 12.927246092679997 -0.2735046983262128 1.2891105016387994 2.926879047008198
Ni 1.708228636135342 5.24249445961422 12.24851652709882 -0.10005756484523413 -1.355690503551878 -2.6017977621562736
Ni 0.7749378701673777 1.9894832017474 13.259481995383288 -1.0172196847669255 0.8925175819001339 1.2576625675421629
Ni 8.988369888081566 0.9700329173506885 1.757250367053539 0.9042587815964619 -0.04887744242699324 -0.02947075576560731
P 8.123728491354495 6.2123323450709105 0.6627434513364284 0.4127147650011925 -0.6214389765169105 -1.4421029668098517
P 7.859636732414312 2.172525277881598 0.2631732515917796 1.8201080962440008 1.5192437749579124 1.3202648157544166
P 1.0887980535627808 8.04260451068413 12.069010100585825 2.8791511448046156 -0.8221416032797325 -2.0362820791695446
P 2.607279231303592 7.190649474300015 5.065521590276597 -1.6041943089583792 1.35321118877345 -1.1477923874818814
P 0.35893762643830507 7.736571607301204 7.840139115354281 1.3717686400606632 -0.5298729940824551 0.8591500621832816
P 9.318902512243932 4.2770680098551175 7.942234596969324 -0.20985472557573537 -0.23665359093613436 -1.6589582920731363
P 1.410117742541977 1.4272248258155678 6.517178340070359 0.2776274622453348 -1.6389281128951385 -0.27829234952284326
P 6.9942244953442945 1.2589958863922146 7.903984198939676 0.042993472842390475 1.686064147150993 -0.9733260687077688
Ni 8.129365841814359 4.5213779624040145 6.091561166520546 2.8046703999872213 0.7973209446916268 0.11525407008001441
Ni 1.510967806205342 6.702206026630124 9.66328797322003 0.13346647932298303 -1.0147699376748522 0.4250720010149647
Ni 5.1209895896531 6.059854552896205 3.7111616087822066 -1.2349998358373249 1.1054458041948705 0.2739980930228636
Ni 4.623258908935657 5.6276174396300975 9.295547907299255 -0.4331578633468927 0.4223684860408726 -0.8638027304639446
Ni 6.425028556325941 3.0288917499633006 6.348097761376546 -0.7615443013126497 -1.7330225181784025 -0.0720615938529404
Ni 4.3854500195200465 3.81842729303482 4.213483897518358 0.4051732052085086 -0.868990445312471 0.5212759964420636
Ni 5.04876277824229 2.06520201278409 0.4425282962060996 0.4293850265680218 -0.5706761441417462 -1.7703762762365123
Ni 6.327521896559694 5.905714346005988 6.636849910227892 -0.7927040147449057 -1.4078039364176658 -0.313098401458435
Ni 9.1526889023919 1.9651506511628145 4.481574739008817 1.8652571819768133 1.2727392593696274 -0.12936402711883527
Ni 6.049722181641326 1.7794245646778737 9.910690574373762 -0.7253717080468346 1.0633691867397945 -0.039525568898448056
Ni 4.975913722217294 7.718145736934861 7.357703578742852 0.9360317031326847 -0.9375813070079918 -1.332292179232596
Ni 8.267597018494119 7.988134888860238 1.9990936305050064 -0.23704825527139178 -0.48651365326021373 -1.765710495329727
Ni 3.882676371257783 5.2334301201598095 11.549764615790423 0.72751780785556 -0.18780237376138625 -0.6157979761810491
Ni 7.423257513208997 0.9790322461737662 3.69589711254525 -1.1192225462639886 0.48575774893079565 -0.21228004718777635
Ni 3.175323553424049 8.550263243529406 11.263623108148744 -1.4772283497580752 0.35679481390512097 0.190021235789576
Ni 4.682065668592756 3.9833314030271496 1.4930202283409482 -0.8348575081845041 0.45280109149911696 0.9578752813703373
Ni 8.213201694534607 2.5248921869387604 9.292965127788731 -0.25779345823854316 1.3689597098569586 -0.2942162198419514
Ni 8.65835734896986 8.539805819117863 12.911465226285598 -4.034687952118606 0.5373371636699843 0.31817247354723266
Ni 0.4260759628623616 6.7201953970432315 4.526213824651874 1.5985970173762598 -1.4457976420526197 -0.5481756490463849
Ni 2.498730051443807 4.640375279442296 7.701030295151527 1.906147235322956 0.07904188182551548 0.7860289167175754
Ni 3.8143501977269447 5.781757646520314 5.8648598078298075 1.1359293174957081 -1.3697444105417829 0.6642331888643013
Ni 2.1797414579595458 3.231632047391356 1.6943971599576229 -0.09971586523509925 0.13004176991215025 -0.38664377894575347
Ni 3.0373152703374298 6.805415047487566 13.425707678638283 1.2364357969529027 1.3850255050705695 -0.6990747220235186
Ni 2.340299142885621 0.6728275289794601 12.991771001724473 2.4781495544752934 -1.689263627924897 0.9409072860574311
P 1.8717025122383482 0.8611466109312772 2.0560067233437085 1.064944244536398 2.2754365821506624 -2.4735269681016177
P 6.782689188220207 6.199878165554143 8.857669728680063 -0.3756931934715207 -0.4883645904260234 -0.318305142470355
P 0.44127823463789917 4.187325476916625 4.025237255984313 -1.7747751766351563 -0.5524578213615066 -0.12895625015745535
P 3.2355698342035177 1.1386612077950862 9.367942817628226 -1.8654911523644906 -0.3725747024471971 2.752355906854221
P 6.78544749643533 7.477132752117845 11.568196987219899 3.473549572263966 -0.18888455108197147 0.28695079652878963
P 4.642111992022188 6.13039108789236 1.6425678984891507 -0.30696477775687137 0.9363849727070453 -1.2992938699297043
P 0.204824352523926 1.668089214903823 10.711143259892678 2.004702761701367 -0.6678016229418499 -0.02394545507200392
P 5.135551971071662 3.545521949932511 11.955210847884258 1.7216998940767316 0.3994347600628347 0.6557961138405415
Ni 2.298961668590968 3.010865230618002 10.952714407415852 -1.8136474282203219 -1.9141243399911614 -0.3359313401925505
Ni 2.2253789211552153 2.6499726416231875 4.1270336886952235 1.3146518404430132 -2.862368526029638 -2.4348933148898193
Ni 2.749513205426848 7.244227521751341 7.545651171372767 -1.5900175032373651 -1.0455717535470572 0.1348222220199291
Ni 4.023637994453524 1.7846254151845027 2.5573910015420585 -0.8203906820268967 -0.4181253944938025 -0.31705481500302174
Ni 8.766767220333932 3.19432523223934 11.956638295603668 -0.4050029981792315 1.9460497279448488 -1.1860586300519314
Ni 7.211127823169867 4.345570640813859 13.313744511910219 -0.6903483978941143 -0.31572709733053367 0.5333627524032686
Ni 0.9695128323000256 5.867033020362935 6.610629265164739 -0.9924075108192522 0.8870357328499563 0.2244367371549683
Ni 6.235968353176929 3.8870227963240374 8.890210335832077 0.6339527927132049 1.1834471605710135 -0.9416084258895138
Ni 1.2664906834615888 9.005319088393348 9.694510722002594 1.0769140153037646 0.7603708498298389 1.6187770918685602
Ni 3.408145198693125 2.44094488742194 6.376384815792779 1.2250926040259418 -0.9845183378791627 -0.8795533084299819
Ni 6.777878401501575 1.7492596317394256 12.19757048149317 -1.1292971568911712 0.9485398629020244 -0.6020849974703308
Ni 1.4930155847244242 3.456206629714205 5.922670047380903 -2.9890349517116523 2.7703885959862156 1.6280667447006025
Ni 6.824240268874954 5.2345167264263734 11.119512184226577 -1.1202766985601158 0.08490708235704086 -0.630123648775102
Ni 4.107028059987491 2.7264437185367294 8.575197606815472 0.46668427723911243 1.9228663478498496 1.0388475474493464
Ni 7.894389558478251 0.2606081178240458 10.744649739281636 0.380818430513228 -0.3488678457485605 -0.31822723804456804
Ni 8.892247026039405 4.763821181110354 9.914619073952876 0.08146823187882098 0.956396897052598 0.6947979490250357
Ni 6.681625518196749 5.139712651476965 1.9991205634808444 0.023343559821946892 1.193541568692538 0.2332947017662305
Ni 6.776411018680062 0.4524099121686947 0.7962920051136135 0.2954742606187685 -1.5767819783836976 0.1808827638234175
Ni 8.671266602905957 2.2139556245067267 6.718420606807844 -0.1393350222886181 0.046665779487655115 1.0570111057322507
Ni 6.290920911119293 7.204533887706105 0.2852545768856387 -0.42166194689215125 0.3962139391326919 0.5215495618184243
Ni 8.076103560286649 3.270313373034409 2.2118344204786657 0.9717515251317975 -0.04756746536631808 0.46283302181382224
Ni 1.5384580160260952 8.8789848572475 3.5497745739449846 -2.1722453567724527 -1.7947953285108251 -0.3773883217857565
Ni 8.95739696586798 0.48937960076108405 8.415128430347698 -0.44574906974834194 -0.6658550407384404 -1.6208697127315308
Ni 8.380436900021873 7.452177956919073 9.744150982641758 -0.6011820260400872 -0.813031156338032 -0.23301085197722451
P 6.096028325616419 2.778591532098732 2.947830922477659 -0.9917989307009757 0.35816418344882184 0.5637763316981194
P 2.3761478624491708 4.688139519005854 9.83814521086942 0.42021415870203116 1.576769379978207 -0.09598493743775728
P 3.902968975466684 8.308172939678872 9.322475310797326 0.45552774640166066 -2.1338940106877637 -0.5439423276913277
P 4.703519176932599 0.043196778350772846 1.1329764924466799 -0.4480823458672089 -0.34424731625741356 0.22255314697901027
P 1.8294084529397974 5.277590913300918 0.6254171329950131 -0.7001062486118265 -2.253265702480577 2.643921430799201
P 5.7846366887650555 7.6995341219075675 5.154173802055308 -0.1475298993945846 -0.2403582934812312 0.24052850051050834
P 4.752100693004344 4.06875537259853 7.031829430677137 -0.25228846925991394 1.7630699723830863 -0.1557294044862415
P 8.606608886428901 8.392872505072544 3.9516052862134075 -1.0245879522065386 1.286521143645068 0.900661808273823
