# total energy = -340893.83064407256 ev
CRYSTAL
PRIMVEC
9.04181082418392 0.00000000000000 0.00000000000000
0.00000000000000 9.04181082418392 0.00000000000000
0.00000000000000 0.00000000000000 13.23360410144278
PRIMCOORD
 96 1
Ni 6.192989327817478 2.014144712546857 11.371476643498916 0.3693693081360219 0.0586625468382151 1.0853109811182085
Ni 4.659498230946209 0.4791246454840733 5.912523209682863 -1.4259800931060602 -1.1078559562982597 0.2754168277472612
Ni 2.8084677836561784 1.6527797056037135 4.58222782077668 0.14516859825125966 -0.49383049863660117 1.654690003715086
Ni 3.387794679639291 4.184314910751795 4.872969956786259 1.0632174916532786 0.18183098666929973 -1.431788215147405
Ni 5.127176848249095 4.416165021046448 2.6948248815327336 0.6474410570076269 0.37034144224130416 -0.36341360477321927
Ni 7.2363509913862645 6.121712733969387 2.6185997046815905 -0.33010881997350244 0.47988714908263164 -1.0810239237070802
Ni 4.775558913254225 4.796472621432664 11.142535283710533 0.6601795876202179 -0.43683942596353803 -0.03693286847060736
Ni 5.791704726577833 7.858273857636833 12.322285428431593 -0.9293128963516124 0.42590709532175036 0.3807901483784539
Ni 1.8919175153327896 6.5533416519608005 0.29593665626401683 -0.38172165905378774 0.07384825343971797 0.3861825230386188
Ni 2.9540499779411094 1.6501937477398858 0.4152044688318225 -2.1846337031344762 -0.9150939245387532 0.5305178267553057
Ni 0.255510720567605 9.094795723460697 5.01940027291604 1.4426601248649027 -0.22003449432221459 0.05133541704918256
Ni 8.618174755362965 2.223688675813317 1.418629358663754 -0.07149517982650912 0.4416869838638264 -0.6301742995073792
Ni 6.767307060665763 0.9249320268540473 5.205808955111955 1.5721408800672603 -1.4323106633097784 -2.0796769012154117
Ni 1.0316073096422975 7.310493839230277 2.480917340416332 -0.8735626380641859 0.050679528632738516 0.47350181438157807
Ni 7.603602217103366 3.9717148154644475 3.554122404423405 0.4963707485599516 -1.1431176077140313 0.6155025564278175
Ni 7.639362578472032 3.7902185490287343 12.53873371835826 0.2519899641828886 0.09611812058151188 0.4624542983181648
Ni 8.023214568657622 8.388557972314347 7.155714315088403 -0.5828554598167575 1.6849616581154336 -0.511047633845836
Ni 6.81007482533676 0.7896104793658705 0.41069803037262054 -0.25868408837361256 -0.6966933662755356 -0.6817835390432387
Ni 1.93203602946497 6.455084294946059 9.197553189667142 0.5123043890710726 0.6848886603311237 0.12711431185271013
Ni 0.14901265726932342 4.872487124094202 1.5735942399252376 -0.5490619083060801 -0.6616410026570928 -1.06049315074358
Ni 6.220729603083994 2.134391753214846 7.085522738525834 1.1445011183251192 0.6707573631360642 0.2674356093139975
Ni 3.126802813417657 4.385495199109022 0.4095262117042567 0.844036860690927 -0.8816274173501912 -0.290782511570054
Ni 6.11646848375603 5.767400339382137 4.822192956185966 -0.2243837724298458 -0.7505939729487332 -0.3521416314038258
Ni 5.202368546135778 2.882276084503821 9.348734073145367 -0.230870408595454 0.860836191636453 -0.3335111607868321
P 0.1827792993758432 5.586338079860633 12.599939543434562 0.41911655476247817 -0.4532834304521742 -1.4253512012728098
P 3.8424621313266245 6.193947759753023 12.600746977131205 0.8229712982698795 0.623503572355423 0.2882378907713294
P 2.4024181481709492 8.607026202754227 1.37937795417892 -0.3702625093742526 -0.27785988997111505 -0.12870428204764933
P 6.3782289038882425 7.775749251262163 5.678790594397831 0.3519125461121552 0.3493198456843145 1.7409574567547628
P 4.709626029537332 0.9480609786570939 12.540229233850138 0.620972321293137 0.2946615349094861 1.1491121347345694
P 3.913105798424828 6.052913596256571 8.040605587382398 0.21616344140258256 0.7167718821929655 0.18403982139516045
P 4.733604911547371 1.2877256398897947 3.5754818738699794 -0.13985129980340433 -0.8018627984260384 1.0554489034514531
P 0.2530404978808996 5.467185098288878 3.6691089196187545 0.2826693955446164 0.40471606306643204 -0.35712211533755267
Ni 1.4657136837689866 1.0556314007058998 2.7496779304023047 -0.488583648415365 0.13352638602664102 -1.2322348714976776
Ni 1.9092235410368674 6.451033563746776 4.735380723171342 0.005483905932706685 0.08797286576655816 -0.22449355853483274
Ni 5.9781830307162345 5.812591309324134 9.02023604814283 -0.04100138211302616 -0.9447441433050181 1.557958675029607
Ni 8.391758773306636 2.449390354823344 10.38348250782925 1.5059719975496708 -0.06827024513130822 0.2991936184518847
Ni 2.330599045680097 4.982525960467571 6.757157628140775 0.5877793794809362 1.2351559017992146 1.847167671464954
Ni 0.4733216113686725 0.1535543587903048 9.442970536936176 0.6363192360628525 0.8129031154006001 -0.967499948944295
Ni 1.5253625090405651 1.1863398163684649 11.527686582095534 -0.23494560710609216 0.1724112360172966 -0.79249652671979
Ni 4.037801409963458 6.883286366677366 1.6423038637119973 0.04753481235616975 -0.4149709080252208 0.07255216033611375
Ni 5.526119620514155 7.719246976118599 7.763811348578207 0.041199099946129046 1.1696927870993985 -0.202595987130793
Ni 5.569881984363547 2.966030377135416 4.788658688614762 -0.790301061730368 0.4074465746237177 -0.16258525106581032
Ni 1.048208074110786 7.202371866727997 6.985741836406007 -0.5574398479571302 0.24053467115809543 -0.29577687946085185
Ni 5.227676574320582 4.561810508006367 7.005301081339685 0.012780953814752182 -0.12244801672529235 -0.268948189303782
Ni 8.341495347554824 7.20827616912338 9.213539111007167 -0.4800303595287152 -0.5871790268927759 0.10444180995585883
Ni 4.652364242293901 0.22761040525147483 10.56394891202479 0.06612388821226677 0.7370807689536467 -1.6537700630039778
Ni 8.254178581502432 7.055135021082644 4.671965079556859 0.31411347298651066 0.2404076586619279 0.5237517116760657
Ni 7.392810483958556 5.977378309562806 7.058076322107481 0.16266829769791982 0.025648039585407442 -0.04879388157425145
Ni 2.4217766649068064 5.174953776054919 2.4880495207064977 0.03138571340013305 0.2614876192606787 1.3631467027196071
Ni 2.3618204180709963 5.21776674977948 11.38138918058323 -1.0875331855805077 -0.008057837307469992 0.0796499477231596
Ni 1.1337526452634927 3.3956881803914647 3.7614402738924024 -0.5548389199991735 -0.10667301327922274 0.3816170151551234
Ni 3.452054828374339 2.850774415980829 2.614933250437597 -0.35091110143083437 -0.3622411817316729 -0.5462573489777495
Ni 1.1116182926388414 3.379485255594334 8.14230606591653 -0.604756630765223 -0.4703622403113319 0.5313747754389623
Ni 3.80007412270556 2.644187124817416 7.010342794993077 -0.876512207610813 0.6348843033885389 -0.3799702235803198
Ni 4.078697519816929 6.7400731267991585 5.852998257218049 0.12441079687861799 0.7501216612980048 0.5109527601391844
Ni 0.8836715320288547 7.420812971735738 11.252956588677048 -0.32767501372102925 -0.2909529757096473 0.5004947980306542
P 0.2883514812571459 5.52327145013966 8.218690378636216 -0.7446896916491562 -0.9881767605673563 -1.125185962936275
P 8.49932015354473 1.6764873332923718 8.05627414116641 0.3785987971540899 -0.8004391786056343 0.334472753369153
P 1.7397076737954609 3.259690305461979 10.452760861509837 0.12027260634052835 -0.6793173368909333 -0.687920505178912
P 4.142433243530641 6.038763162491221 3.781382891600299 -0.8166227303440324 0.2565019931206292 -0.5344811822784279
P 6.701826267484503 4.0659847339548945 10.58219890276727 0.4777762733872159 0.6932701995265995 -0.913934099902697
P 6.287150744579373 7.835226282130201 9.943611075192154 0.2252504913055153 -0.34887581616836044 0.4667966344472606
P 2.4712624949373274 8.454083974549171 5.7779638868377665 -0.5668161469657076 0.375505760051063 -0.4542406521591209
P 6.907816799140879 4.01018772004692 1.3984082531859066 -0.4857142972873699 -0.22364946536698255 0.31451662196220026
Ni 4.992978293651434 2.758936744572093 0.5844581235625611 1.755951873281066 0.9322681223251944 0.27539497337039026
Ni 1.6369203696136652 0.9647159939898585 7.163548139889873 -1.243588091726968 1.1708222727181512 -0.8491011625877118
Ni 6.7904179288473845 1.0045632538006586 9.24377854275467 -0.4049505476747413 -1.5062936425551476 -0.6384046578369714
Ni 2.9413643175112134 1.6625991120376886 9.212282299318103 -1.209869102207968 -0.12017644708229626 1.0666915662448082
Ni 6.531442386414679 1.7588763125063518 2.5565466619415087 0.23330652884077235 0.791848608723146 0.6952358078934027
Ni 4.002077215837642 7.0056491910521235 10.559714632068038 0.2635627566221525 -0.5243710904276194 -1.1827275087961695
Ni 7.97918095048685 6.971010014211829 0.34006883017155787 -0.403410199770815 1.121862554989997 0.8652386915795227
Ni 7.619778016468358 3.7287975288574695 8.547293288643019 -0.3694356425975831 0.8390496918889807 -1.1164758367567866
Ni 2.9913474471309325 8.43215758357091 12.363362374499317 0.7995920001139907 -0.16183474605303094 0.9127771034801183
Ni 0.09227529504722903 4.93954119233947 10.399429549383212 -0.018347135048620015 -0.8812157837340694 -0.06660314184153046
Ni 8.606076812629395 2.2152255409862445 5.915394888765213 0.9649558423662026 1.4235162049466 0.4656959451839141
Ni 3.6297987433642884 2.729876364941526 11.66153160189433 -0.06301568160058825 0.3382067664902885 -1.140140013142946
Ni 1.0616803720726855 3.306807181085777 12.554270261705865 -0.6711923937909537 0.5814421244089986 0.6582700293023309
Ni 3.0825793172219176 8.336648937012825 7.916778893853258 1.0879864710678424 -0.4315884619772438 0.9133707712000594
Ni 5.906960687732421 8.066651427321357 3.6250545052833427 -1.32873351534706 0.4071115598818021 -0.6395300296906664
Ni 3.0880586545138042 8.475350313345404 3.666264365968544 1.009472693831655 -0.8921326877568894 -0.30416381797296643
Ni 3.221642365983003 4.388153491458552 9.247378087599389 0.6397519158934852 -0.7037315040692397 -0.5369424993347269
Ni 7.347809392041525 6.293073130596181 11.332848219772183 -0.5203863947482585 -0.934124973028275 -0.2385806327555182
Ni 0.5262858259803638 -0.252371403888161 0.14682544325792507 0.08518141906435008 0.5777628757851986 0.4886695232609519
Ni 4.513816576743439 0.22919995557476475 1.582447980975098 0.5210417689440704 0.7098646135501709 0.15408749800744428
Ni 5.795176781891504 5.550704303841944 0.0943729951325718 0.28913289178177304 -0.17754032971374586 1.025046894120828
Ni 7.889612773566998 8.801099627891283 11.19390813963679 -0.15569058082850606 0.23040401048199674 0.5812976284113345
Ni 0.14600806356949841 4.822232740153102 5.849027998134109 -0.0315417793620231 -0.535211118465917 -0.37227336915669434
Ni 8.007074936535481 8.70620582446166 2.541023681309973 0.35190123325824557 0.3634948516331159 -0.22156172960001838
P 8.639495345023477 1.6492805248579048 3.701055445228811 -1.629060990293072 -0.4443678731300992 -0.3443684152163102
P 1.5697125905862823 3.090644612377632 1.4944711627406793 1.1156895934100657 0.3031268920680199 0.4628433062264674
P 4.667672027830476 1.0646551277971588 8.165768660534875 1.0246697132870675 -1.2728107360375112 -0.13808443771096865
P 8.500748759637334 1.5234456451694762 12.36684256744263 -0.1418523893938331 -0.028275192795609368 0.9086628242014287
P 6.092797023310222 7.785586741317564 1.3598187092452412 1.743074760208082 -0.8560135734368289 0.005122665938546016
P 1.8895123936832154 3.0202179487365335 5.983785336633814 -1.2796056474721575 -0.17547959052997522 0.24324435677977463
P 7.144106438495459 4.007990560043737 5.911688650554083 -0.6508778506033177 0.054035332478848876 0.47457627839267946
P 2.5020498604140182 8.64688250437574 10.219478528398296 -0.8034129165219777 -0.21457732786238531 -0.768272878285735
