# total energy = -340896.5617109407 ev
CRYSTAL
PRIMVEC
9.03206948747405 0.00000000000000 0.00000000000000

0.00000000000000 9.03206948747405 0.00000000000000

0.00000000000000 0.00000000000000 13.21934667049895

PRIMCOORD
 96 1
Ni 6.4461880868183705 1.9338383619062738 11.416571223023622 0.37111431585158666 0.45665851757199416 0.2649529521014598
Ni 4.617681720804594 0.16810397653503548 5.981926160316206 0.32652238817382473 0.3507092698326734 -0.06412099884962505
Ni 2.9360909992075026 1.4364422880081547 4.840607650303846 -1.215197713509733 0.591962050103716 -0.08864598057418283
Ni 3.3657013906177813 4.178994099427589 4.6822790827170575 0.46604792920669413 0.32386206773284226 0.5641350005891188
Ni 5.2097338843059875 4.529971292738049 2.7993815934598736 -0.13653174851186808 0.31069082045820684 -0.14146620969900797
Ni 7.283695774275733 6.147470448321321 2.3939843742832267 0.24653151217147865 0.6882825165040212 0.8979199838626278
Ni 5.194550975277066 4.30070123753867 11.615787066567 0.1329219196734227 0.7280435984520429 -0.4284995386392749
Ni 5.678236367494099 7.8647017166335385 12.296292997464553 -0.9893358138724638 0.26172364653088476 0.27383122842769614
Ni 1.765128333499828 6.346248236488196 0.426198075508359 1.2645618657651574 0.42142823361479037 -0.28929050040555987
Ni 2.684809790347514 1.4006120678310374 0.3332174348193416 0.6756766548145524 -0.20330304050014664 1.4054331221926442
Ni 0.5210086135021114 8.949922945451531 4.883715912179658 0.1705847243315191 0.7091390482380561 -0.3521966530114773
Ni 8.62214010692172 2.348121331173732 1.1954576385134077 0.2347188358072667 0.1987845838045028 1.1959964579909337
Ni 7.020998029417792 0.6852035103062025 4.758793357284346 -0.7019952381044232 0.18016902558584455 -0.14971842240547117
Ni 0.8195094823283133 7.31034941172032 2.421546637931447 -0.6378775816889078 0.8176349736586306 0.3599657554339349
Ni 7.6788578521605455 3.959596096321375 3.6847213152035936 0.6931812393572191 -0.34975024835351376 1.0727277451365589
Ni 7.563148008276239 3.862564572408401 12.607343927025843 1.112545134243813 0.03892753030313296 -0.11561531007417508
Ni 7.763994140385781 8.875092248661156 7.041734758055211 0.5030149933493465 -0.5268095246657831 -0.2373681005046557
Ni 6.951144002987285 0.5787163127094814 0.20830120237276165 -0.3329105510883557 0.8130635522378642 0.6775466181437557
Ni 1.6994109949546543 6.712968327143933 9.324213716861605 0.5293736858485335 -0.07553026912783121 -0.8094148997416835
Ni 9.237910485241644 4.839942889979914 1.5545953067243021 -0.31092736194904513 -0.9198368385403772 -0.8673678221073836
Ni 6.376189547273964 1.7922606706342015 7.063110054014668 -0.12166640136426142 1.1995211833147406 -0.7052278861091079
Ni 3.6575817524135257 4.396332790660756 0.623046613604694 -0.7298744810131945 -0.12155841503148743 -0.657876393408338
Ni 6.223014678611568 5.687313597460826 4.821003543196603 -1.204952381632641 -0.5731019799744195 -0.25153076515828293
Ni 5.365600309714736 2.7607785279098365 9.448092164509003 -0.08807365301048058 0.42609452874220816 -0.2997116957388838
P 0.17854504901417523 5.547027492144218 12.421453095790834 -0.22608815671546223 -0.10380263370996315 -0.3777919849820784
P 4.09917770020773 6.175632441392219 12.51425309508748 -0.3369327848738713 -0.7671184529663175 0.11052632558704191
P 2.51152953471404 8.302585483814484 1.3553930112853514 -0.8365094419656303 0.7783778279302207 -0.3293050931252845
P 6.362903372864955 7.808224185308227 5.66212405850142 -0.6449123770485022 -0.815712302714621 1.7972707866345112
P 4.7478790043571895 1.0221322225318403 12.552430750158479 0.16661057017511952 0.47487195525622733 0.5997944016639413
P 3.7943995429965782 6.172191222867519 8.276434932647655 -0.31095333009097414 -0.2844496273734908 -0.6701315566266072
P 4.695339455385601 0.9435712809889706 3.734505179734537 0.6620698626643953 -0.4291891085071318 -0.515504384065609
P 0.2688639387865815 5.634205028103263 3.6127817838981438 -0.1307915035939812 -0.982766131074746 0.42025606768356005
Ni 1.5388207971353596 0.8147703553994166 2.6047404931783324 -0.27324296002439397 1.2170648486254587 -0.005540727312571103
Ni 1.8164666172121378 6.439504355300582 4.923810172423732 -0.7184986350760851 -0.46124125184667014 -0.42538670404190604
Ni 5.828900320802517 5.548192629125022 9.190909401360202 0.42152722108649987 0.31781817553160746 0.5192733641897379
Ni 8.657112280485066 2.26098895556278 10.117268267276941 0.38969002197124497 0.8822126004297 0.174265515617216
Ni 2.135569636838442 5.154069239246351 6.962537055604229 1.1674003915207958 0.7561858652142138 0.18007723720298663
Ni 0.5119106097752624 0.07551532766746676 9.074579054293093 -0.480955699556462 -0.23640239415727676 -0.0620772289467189
Ni 1.5805760549823 1.1585977623997663 11.535373647545349 -1.371060044029413 -0.17873383580121477 -0.8850847797711725
Ni 4.01368012919775 6.747805019663001 1.5647473529756455 0.8631725530791136 0.2492913343048029 0.15698435993926513
Ni 5.3737111082322695 7.813589234661694 7.880964861188849 1.6457248241019982 -0.07647977752529408 0.46655289386757065
Ni 5.367921551606726 2.6894251779226357 4.799627344030186 -0.06356769744931633 0.864323378854105 0.8309039228533949
Ni 0.6326865415086609 7.416602678713918 7.0446692774743065 -0.15854887621290756 -0.3630058278118394 0.04398900398644037
Ni 5.102008389964551 4.824245152982732 6.997740450149812 -0.7713180928699619 -0.6826942237829662 -0.31736848958869857
Ni 8.041712217019509 7.260113040501482 9.030227979637758 0.13922292219078605 -0.527735121803846 0.3005167081386825
Ni 4.627671189802803 0.4123193973323675 10.454494134593034 -0.3117758259922695 -0.1419205236276072 -0.958434496307917
Ni 8.04896496892327 7.207916710175402 4.544454216371528 0.9303714195231139 0.07365259248914412 -0.26448218311262833
Ni 7.211665019067135 6.046229979966063 6.979418896928415 0.5291273741656822 0.7216729190390088 0.4547764700579329
Ni 2.3686602574865034 5.132473560788201 2.5590671235308293 0.3677564551229473 0.29515621515771745 0.7127486199661854
Ni 2.298481076549725 5.396155801234572 11.391243493399049 0.2891089805223731 -0.633826808658302 0.23950211612852298
Ni 1.207605772150469 3.3215977946699966 3.693300878134333 -0.7757663584493026 -0.52687945867177 -0.09752862777579333
Ni 3.7572325765159036 2.657135529036023 2.594957858574391 -0.5239432588615816 -0.448756232005782 -0.17709964263190145
Ni 1.2331936253800562 3.397286538074141 8.212783228424264 -1.5414817604205067 -0.04797138567295609 0.6449478582721279
Ni 3.5388010048588825 2.9726437849541107 7.363678363576576 0.6215878433899489 -0.5852843809732242 -0.6406536017721483
Ni 3.9072281566725415 6.801907116678612 5.985284283800414 0.7205542320535333 0.0816680065944529 0.3252049549139819
Ni 0.8423895210862344 7.5155490013860415 11.614756507423513 -0.5644818424055762 0.14778135328375838 -0.7517679386521763
P 0.16412173704018018 5.467545279500247 7.9967135429725165 -0.16153238432126377 0.9504481356683309 -0.4440719391562352
P 8.565147747628146 1.7290903757214824 7.939077197115133 -0.49067704060928397 -0.22938482518886302 -0.1159878629222454
P 1.8654114024755102 3.2834192363920347 10.321850966587713 -0.6814109861951684 0.5524151410490292 0.6614620538770674
P 3.9968714476374743 6.161777246597236 3.850412825943492 0.1398710972977462 -1.1349170741811099 -0.3060700338567438
P 7.099125431618968 4.045662687717329 10.418868039189299 -1.0000809682041099 0.05722864260516596 -0.17206336575957462
P 6.202566072994982 7.696434259638405 10.056750691211215 -0.21357331207790314 0.5138447369749989 0.00022959951230283037
P 2.268467509207008 8.399400238056613 5.99862194100625 0.7908687613083799 0.6278194261219575 -1.0392188147458359
P 7.131604753967573 4.090208855076427 1.6207181851953525 -1.1018344326945282 -0.8011436608718268 -0.5778811465306176
Ni 5.474382556201553 2.8880674850452315 0.5076294087760304 -0.18279849278889163 -0.7768655050507525 -0.322681931381812
Ni 1.516394168272294 1.2963548882231568 6.975359884841803 -0.16767912064894994 -0.9711097777827404 -0.23825615953656387
Ni 6.862313598288029 0.7263491034538851 9.206600815908653 -0.47080267028286016 -0.428507509059075 -0.2924856103040898
Ni 2.486185547364156 1.5169631886582677 9.207208674193986 1.4593977493345576 0.07257452893361695 -0.02887991625914381
Ni 6.401696111876984 2.150400295152237 2.6327119095802773 0.37236335776733936 -0.8334048348983776 -0.16002031855211152
Ni 4.025322466936168 6.9299096073138795 10.385859437561042 0.33988518263397594 0.2653514730914591 -0.3940976641206374
Ni 8.110879806158998 7.260754317444405 0.1344685492752462 -0.09583889877819624 -0.5587631947542441 0.45207012687036335
Ni 7.533884102711868 3.8586807824723888 8.245104489554542 0.6165009157853447 -0.47674937478459833 -0.0987010508173397
Ni 3.083918882655669 8.301248737510926 12.261737202310623 0.6758998265689521 -0.3582739695538088 1.0348584808946113
Ni 0.2036731699001741 5.035749127242259 10.096381606283853 -0.9210113184644525 -1.229927820631056 1.0621975350291966
Ni 8.71727489621478 2.403975649695359 5.628480502378974 -0.4871435735347288 -0.23457356847865407 0.6454505089401593
Ni 3.4434675100342114 2.699513999686649 11.645596509136336 1.2433392089409554 0.26528848106400765 -0.13009319197537592
Ni 1.2317033338929817 3.4214653884432216 12.564817330433472 -0.8200944909427166 0.5170192780482387 0.34921468756501794
Ni 3.0993095292858195 8.349579342040231 7.9961056846871825 -0.58639175510479 0.4607622553277226 0.7033072720476274
Ni 5.504992240139099 7.825565758976001 3.6199731177284997 0.1105317249036806 0.5949273033796271 -0.6293626022393612
Ni 2.9330471917460237 8.107230850033071 3.7065987942338467 0.8990096173823808 0.8027809393649337 -0.29373208111668125
Ni 3.574902187124559 4.322658198781566 9.447893458977394 -0.32686614466648867 0.48490491401219715 -0.13169833167896672
Ni 7.106640113541671 6.200515793191553 11.35422916889493 1.0026212181274603 -1.5272224222880149 -0.28137741620607026
Ni 0.41301486669300225 0.09846310694752762 0.41703052484544645 0.9558559369474636 0.07538860134364436 -0.09426409809190862
Ni 4.669426447649743 0.2476665745986117 1.524626899729678 -0.028231226931551376 0.2531986397790091 0.04268494046303616
Ni 5.996652949829387 5.5254589098949225 0.45825650341273494 -0.5108506873436814 1.0866088739940254 -0.7493109924712513
Ni 7.833595268866966 8.87102781733277 11.184453356273487 0.7348091993106506 -0.30908002432766124 0.30917309826209977
Ni 9.041914574517307 4.8646456003868765 5.762974341449152 -0.5067880872385337 -0.29245321440425764 -0.33019083816434747
Ni 7.909437557454627 8.946942362477381 2.5136195556237917 0.00032987253559298033 -0.7438291434210738 -0.47854066235706616
P 8.677271859873855 1.599398888067531 3.562587863406515 -0.3407004794464197 0.4214164065402484 0.02251540749369671
P 1.8294547333237323 3.0584123180526497 1.4982415147527655 0.5389114501356397 0.5404194021397338 0.3859632079389611
P 4.599843383307794 1.1570442464253614 8.176787721373126 -0.2870292151752089 -0.6162129522312807 -0.27357180411872245
P 8.619475646384224 1.7386914657260892 12.32139673176258 -0.6421877790284876 -0.8205251507222321 0.001456015720236202
P 6.310589625633832 7.78672785961588 1.2904325601742193 -0.04773998638844037 -0.6948953938348483 0.7334377728844207
P 1.790282647387721 3.183425193644149 5.92610074441736 0.5548332635722187 0.346559509330358 -0.43141851205828285
P 6.853127983485879 3.8257408245732343 6.102738220328079 0.2741693284934052 0.5292515584483724 -1.2808986552519683
P 2.314883314977163 8.624217482934005 10.211430302672078 0.23151678393020128 -0.6932833121527222 0.13696420806359638
