# total energy = -340866.63363149116 ev
CRYSTAL
PRIMVEC
9.28178575847279 0.00000000000000 0.00000000000000

0.00000000000000 9.28178575847279 0.00000000000000

0.00000000000000 0.00000000000000 13.58483167481132

PRIMCOORD
 96 1
Ni 0.835276248513363 8.47507785705356 10.149023774931244 -0.43834249287162574 0.6685050767667777 -1.4907852625069034
Ni 6.860631898210289 4.312753878925409 13.263808203790038 -0.8073603312055 0.8296903621612678 0.4319874971878753
Ni 5.373652702348987 6.220105149020553 6.435977208055681 0.29920930218116853 0.2277899698979174 1.3876423738681265
Ni 8.793517360758894 1.5300652450684884 3.671192210630416 -0.12170522502199685 -1.3505385270372934 -1.0089458747939075
Ni 8.296737626664312 1.0853006380219614 1.1551507162875116 -0.619302646900198 0.024679762134867174 -0.30703856841760024
Ni 1.8640331762455222 3.4216653248351965 12.619792431356661 -0.14061697432483522 -0.04157988032431549 2.5839033983743565
Ni 3.783729221318166 0.3763439237783718 0.1678313926226866 -0.9975476602592951 0.198145150448291 -0.4597104170244405
Ni 7.715799941651684 8.058771204955166 1.286864824404596 -0.40831560749223234 -0.9892278275396899 -0.6492151181889142
Ni 2.266203668726823 5.751393534874814 0.5194774128389292 -0.9033244427076508 -1.4410200181583184 0.5364804720966437
Ni 3.917795333930964 1.461806993050037 6.110117844863869 0.2609931961227634 -0.3105393824820071 0.07936095572783106
Ni 5.283805016798456 8.866119488483715 8.808758052873975 -0.9613609259260928 -0.057173363887198306 0.15259342996042108
Ni 4.059259029744565 6.6791451424696335 4.721693577715802 -1.4513296276144425 -0.2372441733322818 -1.17533841542095
Ni 7.244025338225813 3.1756423131407345 4.522363517150524 -0.16641670899675856 -0.6354887697417572 0.06394744938623825
Ni 0.6095738502461505 1.5902854706730185 10.12948932875256 0.9449164072168241 0.1912417384602384 0.3983273859312688
Ni 5.358384164876815 8.010784372899767 2.623217345611854 2.4720493551148266 0.07330703622426729 0.56997988940567
Ni 8.403041918256278 7.490716638490486 9.16705818525666 -1.311892275420005 1.2796179887673318 -1.1614436597167286
Ni 4.128037061762068 0.04160467620988676 3.9739984026856723 -2.1772425528767276 1.2048379675419636 0.46590111921618466
Ni 6.509993879920781 0.556961904377754 4.208934321364628 -0.563765790175158 0.4679176354255812 1.2774171244612709
Ni 1.1048666422720153 6.7903594986955085 5.633208557590214 0.48499130307841637 -0.10430528437799456 -0.9324483566568006
Ni 8.81261927572408 2.13272230861296 12.28048376068936 0.11561402452259444 -0.6705226214174388 0.978204994066625
Ni 3.488057937928477 3.9220185464232666 5.229535344004509 -0.08672690917459903 0.057363368410817336 0.8969571057287262
Ni 7.293441565278606 7.398205080444809 4.588467466708615 -1.8775485977496567 -0.4122285693933933 1.2265797300944294
Ni 6.963752537308059 8.717518099468837 7.463139525005033 -0.06388677135163191 -0.8167646552385351 -1.5004166149490805
Ni 1.7160351033009735 8.090904747039458 0.8448132833174097 -0.4392634620239983 1.3518515894217622 -0.11163884192493032
P 0.1915751286151262 3.406665959148248 4.367971222039057 -0.09314129734137508 2.17558342000675 0.09983233620830549
P 2.5009307472275877 6.843636948598406 9.884377788413579 -0.3452862990448892 0.8873581491863815 0.006102256242995942
P 6.994930055465521 2.506750426859838 2.281816560448368 -0.3039995244809603 -0.7451370635992199 0.21875408494789422
P 5.686773742849731 5.7797772355373676 3.423377814296361 0.42304802860640045 0.4953623619000953 -0.6141506703856133
P 2.827816675917529 5.863563915027517 6.919216673174942 0.29962427823140014 -1.2025440293014642 -0.7282531433596876
P 5.399771647301384 3.196582021673999 6.267620466362524 0.65813658904826 0.45022844567593434 -0.6846487764061756
P 0.41093806725103577 4.165943874550124 10.057611180312136 -0.09329967729611029 -0.6227304416348243 -0.7989859910988756
P 7.633006413231152 1.3670863700083864 6.33684866498635 -2.3752655759248573 1.0665018188315052 0.5612386528779302
Ni 4.178994065240625 1.7399821104001856 9.272150275636552 -0.7742910594553568 -0.5264950787491577 -0.31624234640405535
Ni 1.7895097188813465 8.259424848160888 11.985394445262896 1.3690782377126938 0.9701839235343614 2.7712946527402527
Ni 3.592598690237944 7.924760783056552 7.057795589993801 -0.5126568873144849 0.12478000729257865 -0.09344443040409067
Ni 4.346576706006622 6.102542051377677 8.698435676253617 -0.24102832296506235 -0.016848439015906467 0.7937357984435297
Ni 6.05328361468174 4.18628026701306 8.267592819574572 -0.5301547869889321 -0.09252243281045355 -0.3199735313117134
Ni 7.467122339247774 0.05784316028743381 12.386703588031482 0.5541593774336456 -0.9685805836029834 0.5024850889878056
Ni 1.093069492650659 2.0835102808455095 1.5207407631569116 0.702712318776106 -0.49694590433713126 -1.085984353036149
Ni 2.697695322226113 1.272449283038012 11.515142054691394 0.027924751434726103 -0.987716533101486 0.29894576410713675
Ni 6.22403134437054 6.993138670825929 12.734964541003894 0.6266107505258369 -0.2175981169665801 1.0091297086699396
Ni 4.932591527795711 1.1275327629449903 2.1099828618329757 -0.0124150858349012 -0.06470721037039824 -0.1846075209731724
Ni 8.984304465768314 4.502640650722184 12.116284330810053 -2.097298728062233 -2.598260695537293 -1.9266240151200689
Ni 3.471898349029358 4.761407554179134 3.2077999878678387 2.1469323319289604 0.3539267483287066 -1.1374174720054604
Ni 2.426704307005728 3.516153903234413 10.533230299373857 0.1945972851960326 -0.33128072879441656 -1.4244775404186047
Ni 2.1776183060311336 9.160175741162062 5.448183585141721 -0.9390370656179119 -0.22562895769085659 1.208737559706686
Ni 8.4184868096567 5.528881286351787 4.154376913214063 1.64782798648793 -1.5801112998672464 -0.4544414553160174
Ni 5.090873819292944 6.2672102114347 1.1585209326742263 0.22542764031332788 -0.9895299321611409 -0.481019720025178
Ni 3.2664274590467004 7.166540991224177 2.4852222531133603 -1.470779508808938 0.557751208549962 -0.9255097205554382
Ni 1.2710755787548018 4.051582992972841 2.6075543322475445 -0.3150989768282315 1.2736728269274902 -0.12561510159936431
Ni 0.26720033394157955 2.083705198345154 6.051987877398386 1.582688059455487 -0.21426159639417935 0.9650545727275961
Ni 7.221043636839127 4.911726073548024 6.052477027504638 0.38756243410528096 0.33958719177758295 1.3015538696084745
Ni 7.8311075653700986 2.7470372949933264 10.19172091731771 0.337212006677187 0.9470254831400271 -1.418259070312719
Ni 3.6331972208782357 5.595747270515633 11.218313332625243 0.6519464010771482 -0.6887237178064978 0.5217555071816434
Ni 1.072036966260421 8.441236466400952 3.2683877721859846 -0.08430775821014512 0.5524544789273969 0.46527762669957284
Ni 8.507313498780523 3.3833408316907603 7.782546190780034 -1.5146931794727527 0.29627593058445745 0.2715365188562485
P 5.023135347273546 8.388432387568619 5.579249824617129 2.226315399143979 0.6751171827666567 0.8900683490286929
P 2.134365184681394 1.1008847562078439 7.556548631727646 0.14055758184180953 -0.020318142732061784 -0.42989050544953056
P 4.112517916076068 4.704825788567973 13.475989824831894 0.001260097659346217 0.1311170052542 -0.020315314518584367
P 8.271017798496901 7.313350995599461 11.3356592364828 0.2605283406712029 -0.4762639505077475 1.3873335843784558
P 8.441375693186412 7.0502959071503275 6.759757451251283 -0.1177287568727521 -0.8481652810370037 -0.7173341824543387
P 2.4795455129808497 0.7901537755241734 2.498386609767939 0.9703117073614773 -1.1589445474439588 -0.539002210077233
P 4.454291829024589 3.675540727229633 9.820107919709288 0.6105804365358516 2.645130620615954 -0.03354852537940674
P 1.942789127887698 6.012592266184474 3.7099900748454187 -2.463682985428002 1.219798445506538 0.45456512537807525
Ni 3.0441658187375022 8.972228862576037 9.07258909860741 -2.091118053172818 -0.7191974609153227 1.0916664910225908
Ni 6.420285421155709 1.7838478296059515 8.396553021875247 0.4562646245676852 -0.40068997262617445 -1.2861709593945012
Ni 6.186180222296669 7.569500435489753 10.52185918371601 0.18379968035989636 -0.0675649915341675 -0.6653230794943703
Ni 8.827952785696134 0.7718983594145882 8.146823793151826 0.951999796426167 0.1535784195815097 0.2968091773801082
Ni 1.0750906737548553 6.100880611737848 11.569385738485387 1.8173590727439541 0.6621307978093177 -1.78847915648481
Ni 5.026272590839255 2.4978677579474557 3.9048101157403448 -0.9308488733801646 0.6616592574895379 0.7997642640257968
Ni 7.883651754202905 5.373281430921093 9.529392181703424 1.567052152690443 -2.533759430530114 1.492571922093681
Ni 4.4822485675450645 2.975675522076617 12.09851528027101 -1.2977501795916682 0.7837156952033664 -0.588173015374929
Ni 1.1840588378419672 5.885171912130992 8.384517330361469 -0.06833786514445005 -3.7139939977011003 1.324942166625428
Ni 5.5678833498521305 4.053875594040091 1.9744465143657144 -0.46018607110927845 -0.5559835751265779 0.15433715212440519
Ni 3.4226677576905127 3.267197847259582 1.5544846950596967 -0.6815783650109681 -1.4954847248651018 -1.3908385122079208
Ni 1.8520689544816136 1.8836827165668524 4.277497015953953 1.5203758316798268 0.8178874559890688 -0.9046498463872936
Ni 7.477991310299393 5.26096254219723 1.7907386273076782 1.292773295202367 0.8583257665097734 0.26060264555256407
Ni 1.0149447024359044 4.4201070123011785 6.15728416706362 0.35411469596979656 -0.05321823589419222 0.1263208694171373
Ni 5.8351802143649625 1.944190677528001 0.15136179208127507 1.1787019325765442 -0.4492102888240651 -0.032744798531188765
Ni 8.783493032205737 8.98111153148842 5.904456678274416 1.347334418277699 -0.695754399401034 -2.083817662856663
Ni 6.077119240352583 4.992032083401661 10.89320115318207 -1.0233404529526826 -0.8320583481728122 0.38897576951303975
Ni 1.4458701670076544 3.1603366485257727 8.3180875901254 -0.25645417060182935 -0.6715664893009209 -0.026568751627463923
Ni 3.6119326498455635 7.219669932555916 13.056666592381855 1.3346244269101981 0.8374262973529449 -0.4091206198920309
Ni 3.5209711500113476 3.441593318727448 7.471602657203894 0.8217016875288364 0.9452100271978432 1.3220213934342069
Ni 5.95743061378501 1.0148704481503255 10.821323932920214 0.07701482409315769 1.0253114606361244 -0.10850980937764539
Ni 0.2633456083414622 6.457199082874146 2.1337154596825783 0.8073413050421062 -0.3555547708504328 0.04680127662425489
Ni 0.9913225578361002 7.8416238285652184 7.77049657658771 0.9094390402458209 3.896619198136921 -1.0504985014247135
Ni 8.83657556460899 6.390954978352024 13.287255850818731 -1.1896977694664157 2.6372123942101418 1.4665284468420678
P 7.70530224202796 0.2634792660555043 9.917973211745208 0.9412672405000112 0.42202318688631185 -0.23795611179764176
P 0.2921210003604455 4.575994603088491 0.5183357531981528 0.47616599147730254 -0.7656444395239523 2.177614848614482
P 0.9119289475165151 0.6840462577889906 13.235986979340746 0.3933908678615999 0.14227996384955496 -0.3705975241161682
P 6.600027201185259 2.8138847155857776 11.823476478308004 0.761644831446256 0.4778616340121705 1.2129328287349563
P 5.674633167157572 8.695148995938178 0.5859052967178596 0.1550028107328621 -0.12708114462192954 -0.8327232354503207
P 8.017922066101045 8.798835823963488 3.237591735420684 1.966492312069917 -0.5711029472665196 -1.1108525770327384
P 6.69492417815516 6.348026719501691 8.211323850141413 -1.9549927960707492 0.8509767823438699 -1.175334301655892
P 4.380715113801545 8.994031777179156 10.962361594770305 -2.162256878101173 -0.7612072296882052 0.3805114407957705
