# total energy = -381162.6545966799 ev
CRYSTAL
PRIMVEC
9.34736122926439 0.00000000000000 0.00000000000000

0.00000000000000 9.34736122926439 0.00000000000000

0.00000000000000 0.00000000000000 13.68080800477805

PRIMCOORD
 96 1
Ni 1.26960535360185 8.985020222159601 5.846301539827461 0.5936918883106292 -0.8428361555146066 -0.9476698015922453
Ni 7.545797649736039 8.876235630919268 5.338730471865495 2.4866678763589496 -0.49587324009824274 -1.2503130691556275
Ni 7.6628359610369685 5.323182071017483 0.5449119070311262 1.7055086290288497 0.8603371405128473 -1.6909698119827263
Ni 8.052265729060235 2.2458998558090935 5.855632075914083 -0.47098496149699526 -0.11864124138469245 1.1444003310811968
Ni 0.1875398494493308 5.678335065017867 10.02725288071051 -1.3143903592515103 1.1404518879564103 0.5840204266591361
Ni 5.631504784719356 3.68712276355878 12.853351867334144 -0.326373007080154 1.292348806070439 -1.0046508469629793
Ni 2.9437271164249306 9.329096592975608 13.45084735556672 0.176736859975844 0.09721932406549064 -0.915939303258184
Ni 6.572550387324666 6.85284971173813 2.1082263096205405 0.1472229096771271 1.186399558331118 -0.04390055803769213
Ni 3.7589104986271566 5.067597169979122 11.960952737335129 1.0298995942274392 -0.45264656819912363 0.6492323445800947
Ni 6.735437505983719 6.234400243596336 4.632568169145429 3.810301351475283 3.66427426187847 -0.18498778713072656
Ni 4.390175199162016 2.872696517624854 10.31483660381392 -0.05788195991844871 1.8913320246869942 0.45683463813854225
Ni 7.233960328171443 0.11920409492271904 13.009367740674348 0.4507429234185076 -0.2761920153503889 1.9235631168065581
Ni 5.6433572388947075 2.5588308186501223 2.998039959473733 -1.0666900235829113 -0.4893824901675765 -0.29260568082172184
Ni 5.113819871790725 6.364141618954287 8.894467659207141 1.8025670020364437 -0.18318621514561353 -2.143054337030793
Ni 6.799448236419688 6.9621110184066515 6.725922826878758 1.0202908674930815 -0.3880409164035963 2.1340325931481567
Ni 6.46232630243843 9.211936765977297 7.150041587559871 -0.4280706786319724 -0.9665401561341871 1.164449279312272
Ni 0.4711359882063641 3.061718858582237 7.566649743406681 0.9523008726063535 0.08729512297324321 -1.1482351314462549
Ni 7.459278473200506 1.4151718117033896 3.7823602240133596 0.786096279620401 -0.2151583971768359 -0.36560367044600256
Ni 7.126213294039518 2.3452529594603657 0.15332944169194146 1.9179010334247744 0.3729022609899449 0.9572204213951578
Ni 1.3006853300474686 0.49723569053161415 7.801987325052906 1.7069705582863568 4.306146566549068 0.43959873387623
Ni 1.3401685843350757 3.1197472777625084 2.5271600889680035 0.3533271670714947 0.6586718927264398 -0.1361504539130494
Ni 9.011061970844562 1.43690442681198 1.7961123061603679 -0.35943096597638746 0.3671368192610774 0.620772289467189
Ni 5.330155202574906 1.2013789632028815 5.543874206920851 -0.27528390171382267 -0.26313209684263716 -1.3143762181841236
Ni 4.039387422906024 0.9211217019154346 1.4444608337168336 1.0243789215195263 0.37113025669118666 1.781432534050674
P 7.52151320498244 3.2761940644603484 2.202596334943043 0.8263422716246414 -1.6872532823630877 -0.6482859215064254
Ni 3.2370473151808743 5.591731762230302 1.115909495345497 1.292307411309542 0.715945015416296 0.787711960846953
P 6.524523644775016 4.733064455088221 10.562733300152575 -0.46273840521748694 0.07482038754500017 0.37295856814917705
Ni 8.239381208304865 5.017551397380673 3.071313924994697 0.21327017901518752 0.725512604500073 -0.1929363525538419
P 1.3077425878569249 7.979543257858156 10.356248218745353 0.629290097130213 -0.44337311331699775 1.0650445175596883
P 2.3989535503415924 4.253423302801295 13.429039961567435 -1.5466453068993171 -0.9110475223835213 1.6881233436728666
P 2.493614278601677 5.585618587915885 3.4034565195917192 0.3520079340394389 -0.24713289320090343 -0.0730193297805194
Ni 3.4126094558129374 8.983973317689854 9.369930540976416 0.6496956573697584 -0.6131983337746729 0.8367166728804298
Ni 8.10883595987193 3.770912510583901 9.162967809404874 -0.09897127375959085 1.4183287472083894 -0.2233162503972799
Ni 8.34621220102576 1.4742751774374185 8.337125631070034 -1.0105738973156337 0.4206695010718949 -1.4555133266784868
Ni 0.6554715621893616 6.80535576878469 4.0547040091928785 0.525279975395134 -0.610073414992446 -1.0127945591160363
Ni 1.4397086352130883 5.2352888323654065 8.210345499783655 -0.23362431719150734 0.27099478742016553 -1.8734363753534962
Ni 4.222623747195787 7.898389466730078 1.6382634152619733 -0.18638518169888546 -0.36444590269247557 0.37643547095418395
Ni 9.34406171847619 3.64815361414471 0.5237625672699664 0.16130278480896093 -0.3414694964019603 -0.42044992886192106
Ni 8.845725843515208 7.630596911785558 1.28208595045905 -1.0560358863031747 0.7418496510971998 0.8913888676123294
Ni 5.1034629954292985 6.594236265626572 11.064285602149626 2.1557941531949645 0.5260541345569972 0.9710496139687663
Ni 0.29717692004360147 0.17166896463519069 13.607438091629152 -0.07581797557157909 0.015283408521631743 0.38982680465942543
Ni 5.052230107941047 8.045479544729552 13.046142129646483 0.5252617205626889 0.3180387761828458 0.4777158524629257
Ni 3.6503408966975748 3.577515604520788 4.126678691487995 -0.5968628298394429 0.7556073670029245 0.47141356439398163
Ni 1.565383908389432 4.894904669277526 11.589450273620146 -1.1439046223917009 -0.4460231493453351 -0.07163941871385726
Ni 3.6320948473676955 3.1414892402324357 1.7918031725839978 -0.23099150755435055 0.5679330341789703 -0.8911145309050202
Ni 3.1108298950469835 6.225660460746214 9.793926851224013 -2.063935065000123 -0.07775890134803382 0.6482165017210707
Ni 5.953399867082595 3.944521052696525 8.56552653586805 -1.3254175635999494 0.7409587638518143 0.5417738592850992
Ni 4.8710688978681045 7.772919835503149 5.5378816135676825 0.7083517764500703 0.11653756477812834 1.4663520691652039
Ni 6.160537394311139 4.304114043331999 4.772317764286937 -1.466724622013274 -4.273922159297724 -2.411886055361369
Ni 1.569375231680343 0.898266468710267 11.723385810010024 0.5562337434641711 -0.045588230152760194 -0.4891652319504479
Ni 6.435733059434585 2.3296428660275286 10.729502377974894 1.95681776509463 -0.6097458564496983 0.3503189763727902
Ni 1.9143676439073787 9.403912873117182 1.8859404486092084 -1.0546258933295256 -0.8942060253461502 -0.934534806872184
Ni 2.1376387168036333 4.3464015060207135 6.13119135339354 -0.333209056165381 -0.1442751399027128 -1.1066601362179458
Ni 3.591779677921093 0.07029589619898659 6.821510813383476 -0.6187444604038828 2.3729459266527457 -0.46403346987982663
Ni 0.32805218927593927 0.5206190496523238 9.788002493608603 -0.18317361674012325 -2.510840359840095 1.4385874974574258
Ni 2.918610756512336 1.143864648896147 3.445306525769862 0.33963707117891184 1.6459392541056492 2.2983219713892677
P 8.072549503161586 8.017923523507994 3.27474802766151 -0.3774577415711112 0.29193205179346493 0.9933832444689601
Ni 4.009971276778396 3.3772016510682747 7.302350297393809 -1.0354243807004102 -0.3834530399225977 0.23528987781938832
P 2.770828973773921 4.099640514084507 9.307300415809927 0.7045365164690383 -0.9796209005775451 0.6344122488481267
Ni 5.600452850357748 1.6303854591271258 8.138822295041116 -4.375368119850052 3.262837126673626 -1.0485722309362782
P 4.109782401135183 0.4241243690979147 11.539556863011493 -0.5421291857419889 -0.19968549835221738 -0.605896400796621
P 6.010437465961141 2.9138342548691147 6.444317676086512 0.1281026439079084 1.0713308647890323 -0.03638830882104701
P 4.022178930684555 7.598161567946071 7.527878758052955 0.44355617586208124 -2.288797319728284 1.6988960088083387
Ni 6.2551794278485495 8.85569013070048 11.126546506543304 -0.816312398192465 0.20858100106963431 -0.8426122124292584
Ni 0.6386790275473906 9.150384391572967 3.7659163459492593 -1.4211451336112622 0.6917781883621053 -1.306815118007414
Ni 5.882817941626696 4.629832196482082 1.5821717693507347 -2.5177895374644184 -1.8307627477443698 2.0744210521331112
Ni 2.6692138086790873 1.8286149510014822 9.625474313624894 -1.903664321000102 -0.2391953835213816 -0.6773249890512528
Ni 9.276685937958892 6.767358744949671 6.218255481095021 0.944399872591722 -1.4088616882582186 -0.9035972367530632
Ni 8.92007475558993 8.53845003428308 7.446122062118638 -1.737944123849736 0.9165005750782926 0.3461108518287136
Ni 8.260889486741366 3.9520363312114952 11.728843734294715 -0.050734293130073924 0.6552458977640263 0.4520261610063054
Ni 4.930284431938178 5.432658366996756 6.388308286955039 -0.9827568751033654 0.3264277715774895 0.5753174995684995
Ni 3.0322092388412396 7.568801505986464 11.88900516238789 -1.0170240238163517 0.15243530711600198 -0.895467151446761
Ni 5.876844977732334 8.831770233039025 3.8406952366454847 -0.6855388923206129 0.016761021508422746 -2.0223906658994335
Ni 6.441229307900758 0.37824471544737936 1.7063795067971648 0.29804999176574476 -0.1680573299239751 -0.5406793406693398
Ni 0.8953454182924456 5.601471712743485 1.6872809781133489 0.011618558075534828 -0.3779863603810716 0.6524930176092376
Ni 1.5453899024895288 7.536655930348425 0.4015028199261728 1.5099299537561544 -0.9015197853987441 -0.8949740138604263
Ni 7.766414072012577 6.487012683729522 11.53673863356838 -1.6558076622592965 -1.1399695490033528 -0.43813809017030353
Ni 4.883500888446352 6.445360841611724 3.677442636158154 -3.553938712145996 -1.0583457653832742 -1.5456222649514413
Ni 7.319544768573271 4.531946628560723 6.670461193121635 1.679069975221347 1.2973254333494237 2.0190456606866003
Ni 2.620514056113171 6.951380247591744 6.063019177690325 -0.8905406606794211 -1.088116054667171 -0.3684933332889718
Ni 3.281671618203847 2.593014119059634 12.497294983492468 1.127237703258981 -0.4652660567353471 -1.2979895492959839
Ni 8.861018126662586 8.430488010840406 11.745425018570469 1.055902446049104 0.22278506048415822 -1.2490187758242361
Ni 0.3918142799003431 2.677504918185032 10.097284246583657 1.883767582076175 1.4216236159095774 0.6869506850664749
Ni 9.032560901919727 4.5297219565625095 5.201593464217687 0.8166294152122516 -0.3953101963714999 -0.3104067135588847
Ni 5.203919087718341 1.3029473914910292 13.275596482067181 -0.30381954725967025 -0.3840065984332225 -1.3429535156011838
Ni 8.565230224513666 1.6163083329535615 11.833119158426065 0.27122387271183607 -0.17530449840469162 0.2361547969228449
Ni 3.1865996060449335 8.252645114042108 4.117580904698666 -0.9639826798196559 0.1394314386571663 -1.5329518685726244
Ni 7.5363194253402925 8.005145680560277 9.28494526643629 0.17485352691020206 -1.5416797353639256 0.3696392739679569
P 5.427339718395987 6.071055104231768 0.14443355790749174 -0.5383512067567955 0.4259487471929633 -0.5948008051040917
Ni 0.5659855331654563 2.2638935263828723 4.479985581624317 1.0332232592840334 -0.61744296798364 0.68387744545779
P 9.182529967211007 6.5218409520712886 13.119935808457786 0.51976135956975 -0.5164587775590783 -0.23520631696664654
Ni 1.668606819634234 7.725210903238958 8.275219926407166 0.32406749887542896 -1.8096167097943738 -0.5067101828127467
P 8.668920503825321 6.319825778855437 8.150779439663442 -1.091570588874675 -0.11107294211913128 0.21520647680595192
P 2.532433870234355 2.078927940245759 6.222988984876092 -1.006981294868369 0.05436211969064832 -0.5963144135351408
P 6.680951736750182 0.5782511407119046 9.252864187591475 2.098024036264032 -2.35374775645774 3.5101319993736904
Ni 1.7044726450844112 1.9821453609621695 0.29450637890961257 -0.4243832024780562 0.46788935329080705 1.189696483914835
