# total energy = -381171.70600038505 ev
CRYSTAL
PRIMVEC
9.20597761822400 0.00000000000000 0.00000000000000
0.00000000000000 9.20597761822400 0.00000000000000
0.00000000000000 0.00000000000000 13.47387879874951
PRIMCOORD
 96 1
Ni 1.6304798558583853 8.597627962258423 9.224001741101176 -0.7551263136014479 1.5039981616527518 -0.5115641684709383
Ni 8.314746690000819 6.188524953412416 0.5408511697843733 -0.35526834995826556 0.16074485542296188 0.42309867933867773
Ni 5.0708088304190495 1.4319069242456377 8.736422800494527 0.09307444865918163 0.03127078508882356 -1.022597661249387
Ni 1.8776051120573933 3.7731434680082327 9.923605387436131 -0.8322398680559989 -1.017550585743783 -2.1506676306016765
Ni 3.290520105013411 0.33679515805718174 7.24855550168262 -0.4569783628052581 0.37611536861060385 0.9309134080695128
Ni 0.3721737290440983 0.32582071244867195 7.330854177470218 1.3699652683033372 -0.32377413600472627 -1.6601597685804055
Ni 9.383560661268321 5.179227625764591 11.252629070521612 -1.26579830927542 0.7165142576562047 -0.7347750036386056
Ni 6.2298137618631895 7.6138956337338515 9.979711216444656 0.49944038862421086 0.6778842039888325 -1.1185046942613575
Ni 3.410685727467801 9.04996365974532 4.806940663198988 -1.2021794468731941 -1.1763038646580126 2.78751214304038
Ni 7.420422813577453 1.3680634712676862 7.361076480538901 -0.4703041333798868 -0.09797162885048288 -0.4466250445953921
Ni 3.68222523562031 4.83388379713274 5.428638726141598 -0.1400058231033976 1.281525747313006 -0.14274944728680578
Ni 0.29426538385854606 1.3757320504069268 10.35755858933451 0.9299975811234628 -0.21052012707387613 -0.6338725742945729
Ni 1.5067054902796466 6.151995635255746 13.40248070979261 -0.10632540013181688 1.354200292159597 -0.8132548423130639
Ni 5.746840571728763 8.854078873521118 4.268511586057514 1.941362092661192 -1.5287848816791285 -1.0629950912298274
Ni 3.4186304859277827 2.3005000939533042 1.4749043620940614 0.019684622913120935 -1.857142780399795 -0.9758958863174743
Ni 2.4449510846781823 4.936668534335166 11.565519067173192 1.8740902068874115 1.079903694059708 2.1777318338083202
Ni 7.174834955597237 6.65144752486105 11.767937335528389 0.4379396010062522 0.00507998562606867 0.640405233206768
Ni 1.0966896707076226 2.4676990547298794 7.819322415489654 0.3834263004497203 0.590620448474157 0.5951674444148912
Ni 6.891152763309484 4.540627388392635 12.6207928869425 0.25017399402007234 -0.24850920472313978 2.1787024252517058
Ni 2.993461627624438 8.585963988945796 13.179689613544086 -2.8365358812372508 1.6832660155805654 0.47815139733844747
Ni 7.755999100232432 0.21286889385203547 3.12083276855696 -1.8923758925704763 -1.3040393550344898 -3.464566909149382
Ni 4.240899177569833 3.8902987358665464 10.323914424481847 0.03108720832310775 -0.9420712244585453 -1.7934568122050596
Ni 6.554140344186653 4.737552450058295 10.324265172219187 0.4029096059853126 0.4389436167907344 -0.4351209006105345
Ni 5.445455284981515 0.6355475352800325 6.196071093052796 0.055939748590413334 0.5398337048395929 1.9101237034722007
P 6.712943453612703 4.941943559361319 6.428036866336332 0.05280480250585744 0.0262771885289741 -0.6882393219709115
Ni 0.014443257877016226 7.780358116321784 12.448044563014504 0.10206328242135325 0.07284783719966162 -0.5094538069961548
P 8.595262026077409 7.101223960642414 10.271326199421823 0.6622734940347691 0.44140699072956235 -0.767337253845343
Ni 6.878862783536512 5.588976471993232 2.477536562134672 -0.5777795879557468 2.072400165048341 -0.26948940651923264
P 3.0800254327220116 5.490279188737772 3.060739830754671 -0.311184986485806 -0.7921813094722163 -1.137508746167686
P 6.518770979177094 7.826268325406289 2.2120601106701634 0.4454690766140779 -0.7231633875416063 0.7878739403461141
P 0.448905550323294 7.512013082312512 5.194880549066452 -2.285257167785509 -0.036726923107388364 -0.1266725963296012
Ni 0.1645982721729311 4.170942955626148 -0.11140889679143028 -0.812347500007446 -0.11625242943754173 1.4557861207238993
Ni 7.1219282037206275 1.6862496666933424 9.742718979523632 0.8458949969455882 0.1464898881658445 0.2954326087475557
Ni 2.2623136998721876 1.5696283455217948 3.6342961557011884 1.0254096767768857 1.5185881436517847 0.9022736328456331
Ni 3.7806371335776703 5.147816831018986 7.914528792130948 -2.5315886481310397 -0.898918086109839 -0.19561775604074697
Ni 7.718779333773909 0.2536670237096254 11.55077845622751 -0.9308311327683516 -0.6942011959813013 0.24928490654689972
Ni 5.689091475761829 2.1314967616145544 0.44163743119912785 -0.11479795637920229 -0.03240489869326677 -0.24798238568539227
Ni 8.495754616814441 3.41504015475815 6.398717669646473 0.6650870522241642 -0.326396918339554 -0.011529855016470466
Ni 5.833008519799941 2.777286867303133 11.451395327658878 0.49689191117074416 -2.6341800351417213 -0.040211796332195265
Ni 5.274362195782492 6.915695898945998 5.941791871848861 -1.2344830441019063 -0.10200414704864368 0.5933332194196298
Ni 7.954682503573476 0.08540293135272599 5.202951429416239 1.5255234373190372 -1.2780069355264698 3.3849118192198997
Ni 7.028542769400753 3.4922230689278897 8.26672278851491 -0.30033056026980537 0.9965547002184063 -0.2576525617853046
Ni 8.578378263602778 7.121421874965935 3.1177478455442835 0.21494936648982335 0.15650253520684013 -0.31021053838767865
Ni 5.770509139516262 5.728778444152304 8.245582182109924 2.341595180255606 1.291785734478117 0.12175818974711934
Ni 5.791885418941613 2.5442927863487044 2.934354649997194 1.2304289286371906 -0.6898066664580313 -1.1869163500665367
Ni 1.6926386149798165 2.816798922123806 12.451871487802237 0.5858204559823523 -1.00530827804132 -0.8656274423775092
Ni 1.4335271762606512 3.8248534428282976 4.553497344739164 -0.6609591460987198 0.36436234183973376 -0.699535463710021
Ni 9.015791071792306 1.8462219352438627 3.405442002764666 1.6063067273156917 1.4757859608845938 1.2326606461811866
Ni 4.494468617919463 4.036038563421549 12.649506330322202 -0.8713766861564606 0.8234528658919883 0.9302168962231205
Ni 9.00159545470622 5.439186014400695 5.3967326498141315 -0.4374001835630144 -0.4092710294269661 -1.535180500792827
Ni 7.35593494218444 6.779907732915027 4.962173694605594 -1.857982245581955 0.8600432634215123 0.5428616930326392
Ni 2.529636870394718 4.356922110213109 0.6318347646115382 0.5155959153381507 -0.26617036944832867 0.30050410973319214
Ni 4.615260246834199 7.987575460673724 11.92835701457851 2.346624000928765 -0.08279260711719935 -0.35214240273477415
Ni 7.1496474015456615 2.186769449672178 4.88976500029373 -0.5135146073290898 0.5387021623383109 -0.30907462501102256
Ni 8.184371638656371 2.7624652437567017 11.777315464663017 0.19389280292984026 -0.3030361321264265 1.6250570113400014
Ni 1.0155205683418553 8.929724389472065 3.6630353758174925 -0.6268421498103528 -0.9622145321756397 0.11434724199502888
P 3.843385075250016 6.169496198213365 12.995246015980447 -1.0548266964864221 -0.26800690843643526 -0.18688448993280718
Ni 4.688549032581491 4.291587288903156 1.5485125952556769 0.6911562385073904 1.8369642485693913 0.13970706091605617
P 5.4674023350030625 0.497580314408416 10.750713661375299 0.08209686660175539 0.6244913901899891 0.2684033725439055
Ni 0.4014947669294298 0.8005849325729417 13.212876241322057 0.9100977568757422 0.3815288263166913 0.16698595123666726
P 4.670321197412589 1.4853292108542964 4.340987484004091 -0.8617864713648641 1.643107955304441 0.875686626385724
P 1.6437824931407414 0.7687009505911341 1.6997428677070099 0.1109220183635638 -0.27724591053619996 -0.7844798270629006
P 6.766218444583633 3.8836520202140474 1.3642034049614638 1.2050451984567634 -0.4050636762138379 -1.2210971097133034
Ni 0.824317021604212 7.769596328790245 1.4446157759884004 0.0831888141143535 1.7960022043347326 -0.7193170172123224
Ni 9.344895556364587 4.764737701196563 8.6315013559473 -1.2282437480604138 0.7822817909703172 -1.8618885226148967
Ni 9.172679337927885 7.021647492359587 7.682118370141018 -1.1341110333400468 0.44278484491369546 -0.5318213760580777
Ni 6.828257525999411 8.193623645901193 7.508763372305127 -1.3396175092494156 -0.9341504269495718 -1.548232963101411
Ni 5.976410029106003 4.58260664514526 4.268538283391852 0.02006154663656545 0.47349641506493945 1.1748465633861962
Ni 5.844617257248419 6.641459039427585 0.2078212564666266 -0.25195499717989506 -0.8653657040756902 0.8986923432522781
Ni 0.885897645347559 5.489763654005722 2.425324861548594 1.8347520714094208 0.3044913765157143 -0.7091513895332303
Ni 3.1769183444152973 7.2405103980694365 1.458991830230703 0.3867479086237855 -1.5286640398305478 0.8632949375895907
Ni 1.7201276633708997 6.330462712318552 8.960465909663741 1.8508610611561416 -0.7156758209153093 0.07084031985132962
Ni 4.679057669925361 6.98476834706331 3.3396220264479455 0.8133797979267025 -1.0384927352130888 0.3607859373423851
Ni 3.8504828837930583 1.5975776927807794 12.483669854194615 0.11629485263970295 -0.6116099062416306 -0.5877469835811039
Ni 8.0180932756156 2.2345300602056475 0.9196080932372 0.8456455999389435 -0.4207643747785463 0.45235654776253065
Ni 3.971900519168141 8.354995223010134 9.686397730644929 -0.3635796980374384 0.539430041643271 -0.9940928689414751
Ni 5.272171173171281 3.158046090831332 6.030786975566691 -0.109708714781753 -0.5997005563985544 1.369314522093216
Ni 1.9697017095471443 7.210922386840721 11.0991212392719 0.523048514961454 0.3074527731368834 0.885705444074307
Ni 1.4479529427806872 5.167416356814236 6.67615820928548 2.351178710178983 -0.590512462141383 1.333738424760819
Ni 8.23849357954424 8.935008620475575 8.937493313764508 0.4427215957759278 -0.760973002190212 3.0644736895669418
Ni 2.4448037890404537 6.868174643823837 4.481466095498979 -0.2781643085854113 -0.21726413066592903 -0.565373243871594
Ni 4.341686217685566 6.103222367212893 10.494345603908826 -0.17151803477906588 0.4541825452276758 -0.3320266058215056
Ni 4.061833711978755 0.022871330148294417 2.730683448123569 -0.7194463437013352 0.880898766714283 -2.757378813990109
Ni 3.7546210415638726 3.53506768755217 3.4657374720688323 -0.8167996222415287 -0.8979269258411632 1.5386748870993308
Ni 1.2286573561350096 3.049314292255618 2.0175921243613617 -0.672214407297565 -0.25871699849407703 -0.7456235163173353
Ni 2.7517955159987433 2.6919566631715357 6.038439904544423 0.8462649786904973 -0.8798050194294719 0.9038898282928176
Ni 8.553789098079475 4.1183400010023545 3.2395512113706677 -1.516437415857369 -0.5662674735510893 0.494314123141239
Ni 3.0516986403913475 1.7129562070089932 10.11510996963338 -0.4863778990132978 -1.5002543783396034 0.49552331295799174
P 8.855275650577662 3.3707041678018688 9.94447717930226 -1.0726619248956302 -0.5839535779769427 -0.3847619885420083
Ni 5.3433425841262245 8.809586384949748 0.8099888384441712 -1.823303720363163 1.5107529638780821 -1.1428196168576383
P 3.5336775849711075 2.942276393513781 8.360178188262706 -1.0672518096236523 0.22233717431346225 -1.102915838684165
Ni 1.9989306876588955 7.641071678894761 6.568730897701398 0.9492160630334427 0.3081991643846047 2.0358802157454354
P 1.7287168402459436 0.1935593563435636 11.383150496906051 1.0295224133936787 -0.021723507720020654 0.7905252619260321
P 0.7375497644070258 1.656072472913714 5.590972327884453 -0.14497088041815678 0.7715628618909164 -0.5094563780993162
P 3.975233082971749 7.464841654329957 7.653755674498657 0.34082594928069043 -0.20062420811640286 0.30921243614046745
Ni 7.609762149900095 8.920085731178204 0.567313751700036 0.9140379724704129 -0.3026023870231176 0.01129742729069022
