# total energy = -340895.95979444927 ev
CRYSTAL
PRIMVEC
9.02019612134384 0.00000000000000 0.00000000000000

0.00000000000000 9.02019612134384 0.00000000000000

0.00000000000000 0.00000000000000 13.20196879898933

PRIMCOORD
 96 1
Ni 6.29593440289458 2.0195136287114304 11.446106379063206 -0.07309980530946766 -0.6110314080303412 0.6075840729116891
Ni 4.641576346243716 0.2089645652148289 5.9297965314961 -0.08753295001566215 0.05749578022362356 0.10806783674422034
Ni 2.8728331848722344 1.704519366275606 4.941272356364568 -0.29287538954334075 -0.6806129157739053 0.23058553036518353
Ni 3.5484458608105878 4.477787628357352 4.962448168354325 -0.39008005832081205 0.4153190353932589 -0.44166281549411035
Ni 5.188110018274488 4.500265956640909 2.6251981376411795 -0.5899493905490614 -9.307393443854937e-05 0.4853414873289835
Ni 7.171245196758156 5.91902551552363 2.6311262104132314 1.1512932015462882 0.5078568948226803 -0.6169148633943117
Ni 5.062287305101402 4.653816752134881 11.563287744525358 -0.2509206423781098 -0.22723075496033768 -0.212513246244505
Ni 5.54899001745929 7.726835145513123 12.366442382983042 -1.1393517129136959 0.4912573385927862 0.610259048640691
Ni 1.7981219395494683 6.416651685165381 0.4298348870514339 0.5577427239095297 0.5381329200984022 -0.9786551942301661
Ni 2.8155098396707894 1.6090315720501933 0.39567630704461215 -0.6436090848560465 -0.2807197280174133 0.2202728355852658
Ni 0.7612819868826063 -0.190506538261923 4.487480730914941 -0.0009235402555338933 0.7424173506752116 0.37535997850181807
Ni 8.654652499945954 2.2536418345412823 1.2848881248719888 0.34678730907044797 0.15163723669473886 1.055266612237318
Ni 7.063769562127909 0.7635280156717739 4.866377669471161 -0.9820824747441603 -0.09866145582865589 -0.38690397458567555
Ni 0.4907148955121914 7.15899577067105 2.2379981087217913 0.4204067343288114 0.6655267108647441 1.1195503619170526
Ni 7.734601534217835 3.833547193899821 3.844082782758245 0.2794712003222929 -0.7318154067896494 0.3060126982562471
Ni 7.559970540811071 3.9452623206220707 12.395619108771962 0.5375433661435194 0.2897910941910622 0.3751314074307798
Ni 7.975792553469044 8.705237758779896 7.034232930520965 -0.31025167603825926 0.6504942420116538 -0.283614275956389
Ni 6.888732659903828 0.4936166925462283 0.254907129198231 -0.5244970744825225 0.3497656749724815 0.7948974228517988
Ni 1.7708178064377809 6.448781623105199 9.230816613621451 0.17489697855362782 0.7957600279624102 0.5152441884256869
Ni 0.02254237167473351 4.927904425980848 1.2334080626007555 0.017623369508718036 -1.2876837964946017 0.16974654470093992
Ni 6.268909895857045 2.0943000732535517 6.916709699632672 -0.24530406752228076 -1.0850932086804472 -0.19922707065856013
Ni 3.171176165602021 4.2983037695346376 0.28972688956748643 1.4217202893884417 -0.043353941505602754 -0.1988666019953478
Ni 6.187529688082469 5.657358651487639 4.775812196170443 -0.7420306567597543 -0.11151182942876278 0.21623337540856954
Ni 5.183735223243379 2.796874114857857 9.433796278829803 -1.0878586872407265 -0.2507872021240391 -1.4189810360804078
P 0.3453291813834971 5.588155708232645 12.151962869970232 -1.5714978471666228 -0.10329561216655758 1.29392669208052
P 3.803374638479076 6.203766040775246 12.583799338500848 1.0943342676627412 0.18076963528432094 0.540209857232089
P 2.2792862515999306 8.571350990436065 1.3656116623821024 0.44582388885033547 -0.9446834652704117 0.7883241405096553
P 6.380047730039108 7.799294379502612 5.6728327976234505 0.2414345572645455 -0.3805381802686479 1.048758378805155
P 4.6859827708584625 1.0000871643075722 12.70575960377224 0.8277777185195871 -0.3403425818863687 -0.8667589848787911
P 4.005706653618905 6.16939007404626 8.074746808994366 -0.25587464394927545 -0.24224034099529246 0.23104267250726018
P 4.784771956798073 1.1693421209338375 3.896864459303683 0.054074413246900425 -0.8649615266587362 0.004382188228095679
P 0.2360801762313614 5.428254694796609 3.592506811920816 0.12335613036185852 0.296716874776618 -0.4789687510334203
Ni 1.7887409357714192 1.1169528229118086 2.719328392377557 -0.9618931442804788 0.3678860387222761 -0.5465838790792329
Ni 1.8367554387623386 6.5260396013349995 4.650023759741931 0.16439787879451687 -0.2439537241419734 0.6683484965842554
Ni 5.895509864706924 5.501534766616678 9.09648605163735 0.5747444006738489 0.04754535387913102 0.8610071699966784
Ni 8.520386883372625 2.3889177130599406 10.317695201248265 0.6918797469369762 -0.26048180370398366 -0.33892101894849375
Ni 2.2171641621581757 5.399823037192366 7.068940840460559 0.802708177145469 -0.8730697575881675 -0.6876289420804221
Ni 0.7330839523532219 0.11800130127313685 9.184530380172719 -1.127778920474432 -0.8322979749874441 0.6695890538595759
Ni 1.6160312440999687 1.1759900053419357 11.518044245727339 -0.9737320458969358 0.16222966749860449 -0.9224457369181339
Ni 4.1450235799188775 7.084813679256937 1.537065742778645 -0.004716174528746716 0.10239315495694624 -0.9286369533305103
Ni 5.68744100494898 7.6578937879404005 7.976787481081274 -0.8306272721532405 1.0858987353008782 -0.3286620602246469
Ni 5.337899392061301 3.0338797631927066 4.78577951268462 0.5578743643913876 0.1147881861871894 0.40706733690742797
Ni 0.8709414109500316 7.314341585157169 6.908312799231724 -1.0516768380035306 0.6956543834880601 0.03679582867211083
Ni 5.016924739716971 4.4278608438270615 7.075951336745463 -0.42398930947374724 0.25240159779901045 -0.2630490502105276
Ni 8.042650245779527 7.310435840314962 9.165215434605472 0.3537750532421907 -0.3645531176943012 -0.17004710666049425
Ni 4.523258436093069 0.4099318247088708 10.457344972778438 0.11581688456201991 -0.9977248092671074 -0.009380926994267715
Ni 8.271212990714131 7.112244095111791 4.787192075368891 -0.19703854764767356 -0.024544007887951278 -0.2876259682189433
Ni 7.38160518628497 6.166999722122045 7.002337517675598 -0.5855008678594045 -0.6146576919290189 0.12331242160811666
Ni 2.391037459105942 5.373069136033045 2.5126775074214494 -0.32798457454164803 -0.9354341787580018 0.385447187534491
Ni 2.271429660935814 5.196859608336707 11.363317216682733 0.1538941510497156 0.15562193237409974 -0.4106689382157573
Ni 1.3090649560511285 3.2829454134999136 3.777664373990063 -1.0061228035228156 0.5447491398633393 -0.2355721849464975
Ni 3.5938986281544247 2.704200621765859 2.7252294045617877 0.3139293820001625 0.81416295594963 -0.0964266529608662
Ni 1.2983128824901338 3.223836069502263 8.125851631114477 -1.6006179044610305 0.33372173413574135 0.08626076817145788
Ni 3.48939063798858 2.5460044253625633 7.253439026206561 0.35516113495643997 0.7770269703292811 -0.9569000619412618
Ni 4.219070368393883 6.784224669737982 5.8426632427507155 -0.3790855069825213 0.3382247642124175 0.31080754854172926
Ni 0.6542501458926288 7.604268723074533 11.40424364970366 0.579027601430235 -1.1521642912973318 -0.9395983374380205
P 0.17104005340287676 5.595011057147374 8.059036333724915 -0.14023259440222302 -0.6281359289211118 0.3131328542407962
P 8.52907333206326 1.5888082927517448 8.091526177482757 -0.033172630097226735 0.1678542127742335 -0.6381920276055332
P 1.762465104996941 3.2692888368461 10.476672546620003 -0.13831686543674887 -1.4416543093082075 -0.5417967421032346
P 4.116889588780669 6.208799310110007 3.6259735428990068 0.14053984122999666 -0.9586725804606522 0.4002282024984075
P 6.72631501180041 3.8851246742872108 10.356284501501028 0.9694614435460399 0.9292735584732448 -0.1621913580615013
P 6.194087370531163 7.791446809034437 10.25047038696301 -0.6174033729949561 0.05844554573140257 -0.9878600006578857
P 2.3598275811520475 8.479958365167608 5.916594572717684 1.5476917458859603 -0.35865577837325974 -2.3021215476410157
P 7.029177110696354 3.832031800981828 1.3752226811566326 -0.5836435029356916 0.8320601479450251 0.6153863425649272
Ni 5.138093031784793 2.8876263062145426 0.5593089755412062 0.4007683912725936 0.3360498680482858 -0.26008688225841015
Ni 1.4545516963743557 0.9468860486509044 7.097166837597359 -0.6667492704179356 1.238847491718189 -0.8771133315299217
Ni 6.751842166311832 0.7089017090565178 9.069210783152673 -0.5165827047314523 0.19875707300067705 0.27191395680032526
Ni 2.699510119876834 1.5265869811546453 9.208055953204958 0.55340064489075 0.04183056288254086 0.9781792830350122
Ni 6.324203696971893 2.192241360774762 2.669240146339933 1.1914911139214126 -0.6011766267234485 -0.21674939581303962
Ni 4.087763376089015 6.751499398866096 10.310433943516218 0.10660693592797768 0.7477451906460284 0.24597949632275057
Ni 8.106558334017487 6.957087704740421 0.22745506487312037 -0.2946149979422668 0.41613073266127687 0.3841968600671577
Ni 7.488223902300875 3.5531995040711957 8.207109164224264 1.1606918691523689 1.161588155714393 0.7826995952340263
Ni 2.8735908813312303 8.281486993890283 12.418788384064557 1.625298437926846 0.1685916051608903 0.309691432659415
Ni -0.1310787813475751 4.836340416989523 10.155112483559138 -0.021919940001542893 -0.21139250237650042 -0.49418865330696826
Ni 8.731098660541114 2.2581519325114985 5.844682864621777 0.2969300192286886 0.6658311294790404 0.044097504539846635
Ni 3.709257914036609 2.5632149592169076 11.403939669100469 -0.21348589457041942 0.7405581859792859 0.2548001799381741
Ni 0.9909677462117955 3.342947756895667 12.646601550716513 -0.3499199411621587 -0.06762592667908998 -0.7646579072409669
Ni 2.9682668579220044 8.369884914106517 7.9896989895504085 1.7347724109899736 -0.8200037310011233 0.7335868968677753
Ni 5.743266997624313 7.843015269225886 3.5076709670814594 -1.014924718085162 0.4847822723914037 0.7811782734934933
Ni 3.163590180816118 8.147825730444962 3.4928318427398546 -0.13521508658297357 1.4372579800127248 0.42687177322786485
Ni 3.1696156717043267 4.374686788758215 9.216056867004122 1.298111933806461 -0.22283699676801622 -0.2555134039551148
Ni 7.19324545465687 6.2697577942754465 11.36014842184886 0.3370168599472454 -1.077826499815705 -0.37393558735046567
Ni 0.5333118688212872 -0.17048982145051042 0.16083550573546607 -0.6277214670915124 1.0483688566762204 0.8857136716044229
Ni 4.689852434916907 0.6513907437795119 1.7497628650736248 -0.15407978469796044 -1.3682714255406823 -0.1863813250441435
Ni 5.8844150237001935 5.581246238142275 0.5464651185416252 -0.09374524947396112 0.1876015706044898 -0.9052489134238733
Ni 7.82888062218723 8.925231317571091 11.144665863047473 0.05572840391055564 0.3759315347345719 0.2763712212407305
Ni 9.157122514807716 4.92481951896922 5.82124929758813 -0.48688054968132927 -0.8418725060497566 -0.11378751283681693
Ni 7.797291896003837 8.788052177709002 2.6486055461066007 0.8277723192029486 0.3073417014803158 -0.2974524673910619
P 8.683517126955335 1.509168982793671 3.5201197394988495 0.03911650638548747 1.3595484438453875 0.6844942531061825
P 1.8051486721870649 3.265139546713501 1.4928649786313404 -0.6652531454883833 -0.1081763372976266 1.398007004931902
P 4.7250672798683535 0.9753447668429673 8.08731464799817 0.08287642508025728 -0.41729441395207484 0.5825502698715128
P 8.407183424320204 1.6212719779413596 12.403592961983305 0.7395359153623586 0.09490455988938494 -0.29538067246369776
P 6.401930725390595 7.718076535254963 1.4333776884237857 -0.8955059751044965 -0.9834567293838676 -1.0488275414801937
P 1.859838120173904 3.479955513034888 5.91761114880017 0.08256737848027071 -0.7316290018104561 0.5613294128195236
P 6.906628728649644 4.0753155056912185 6.116036517078198 0.7340352972591035 -0.3185532539254191 -1.0540561368689847
P 2.4236454674306036 8.345791970749623 10.29890883916313 0.02596197128140045 0.8162270375675104 -0.5944850736358858
