# total energy = -381170.9305917293 ev
CRYSTAL
PRIMVEC
9.18852679561257 0.00000000000000 0.00000000000000
0.00000000000000 9.18852679561257 0.00000000000000
0.00000000000000 0.00000000000000 13.44833775589762
PRIMCOORD
 96 1
Ni 3.3232144448011818 3.084487333096093 4.6664520816344375 0.12023198291058002 -1.4887479203619007 0.5479748458894886
Ni 8.66420178322087 4.161162135496135 6.508766382864146 0.8217664793285008 -0.06804578782532797 0.46485725133270267
Ni 8.753394811715589 8.764632379846736 10.759974242131019 -2.7289298146207965 0.15089264521923043 0.23358652197503643
Ni 7.543596634757858 7.302517260222373 9.277874076974976 -0.8821670919037453 0.6644373344553073 -0.0835870779940367
Ni 6.714378044410075 7.505914486838125 6.527621239614034 0.6226031720283407 0.904348770207107 1.5207956928260646
Ni 4.76672279789605 7.088929957517135 10.324302087245739 0.8669075946415135 -0.26679411907525663 1.4506886515963338
Ni 1.215632891400314 9.012575583813101 5.730135226159885 -0.1926303912776489 1.4774785180956682 0.12212405772697033
Ni 6.408988171632648 6.55839361546948 4.4948517515990885 0.4756823669726647 0.8982125754023821 -0.14324644152788232
Ni 8.853062760626912 4.749577007108871 2.2667038642031034 1.1640471587778467 -0.1745568216053897 -0.1491787478519173
Ni 1.8479964861293823 1.742916495002813 3.6043025022120867 -0.7241743453046238 -0.10723865597470562 0.07496231243950316
Ni 2.4262488472326753 7.25460828210643 4.9039635512596 -0.580907077841135 0.6819277779305869 1.0016616824276683
Ni 4.4534032265927195 6.879633696772033 5.815827425989056 0.5427516498173361 -0.5152423886534739 0.2532186943836671
Ni 4.773715266700468 7.5099023074177795 12.712067547032078 0.735025686196831 -0.5354947111446069 -1.987448088385977
Ni 0.20999826418354892 1.9815333443877272 10.4892866780706 0.22621619765289427 0.26814214846271883 -1.7969141746260406
Ni 5.809749215589421 5.384265299088291 12.71547005846214 -0.121321616430333 -0.252402626240275 0.4821219519504213
Ni 0.7061612467693833 8.809058906350494 3.4688774017207487 -0.7808879959465842 0.24044288277523754 -0.40647186941527413
Ni 1.29301866310965 2.369307547389081 12.474206913393031 0.8769469811553866 1.308864801447591 0.425576451455209
Ni 2.3582445612648772 3.3838311553172695 1.371300316170406 0.08852385317402174 -2.234852490080712 0.035827294111254425
Ni 2.2085267075208828 1.0090931886595809 1.4439080540055014 -0.3150753226791477 -0.794036103292768 -0.6475413300309171
Ni 8.939535985223987 7.040092938206387 4.943352927436704 -0.9068483967005093 -0.293905630580068 1.4439323067091068
Ni 6.799472990004964 1.2791991189810772 1.2291593215277556 0.5358577509109804 0.7632756821814596 0.24857965294975898
Ni 3.175876419467627 8.580843469168732 7.045758583758035 0.12017490442039948 -0.8536674418021556 1.0206063418509712
Ni 8.204123063764902 6.087160024622496 0.0903002459598076 -0.7720811962882316 -1.5546774331751743 0.09364137690624517
Ni 5.648968375721223 8.882704947700567 4.871794519348605 -0.6512714864973107 0.25305980020829966 1.3617176835825646
P 5.633366257416491 3.0484315543989386 2.8078382529248915 0.6086922183742033 -0.09480762930020446 -0.031005961463211117
Ni 5.008087016758652 0.09732395575494135 8.673478519758241 -1.0651928702120945 -0.6346338779406296 -0.28281234888038387
P 5.988842789133313 0.8182024657096539 6.885360905452445 0.9983920105374613 -1.966457087956607 -0.8094164424035802
Ni 6.178154004346737 3.896128271902679 6.6077736767070885 -0.7581159923573911 -1.0732460795338743 0.1892653314601579
P 1.812730920726814 5.249386915934486 1.5642299731908986 -1.4207972633535402 2.5876960326475693 0.6609784293724293
P 7.063284779549817 7.3322145784561155 11.712224448182495 -0.23247529118872867 0.017095007809073783 0.11605214050127756
P 2.6324577630128845 8.387360662842031 12.690644497074786 0.9745301163181991 -1.3434407396502477 2.6505415072188803
Ni 6.722721226636634 5.390201087324367 10.554672233934248 0.5239674272312975 0.09449266916294694 -0.8404100625716171
Ni 3.3757911944711916 6.555940278845592 0.9262742411236323 0.005423227898100336 -0.998359871747945 -0.8547043677071022
Ni 8.298103314660542 0.9876012247521792 12.528054436303053 -0.2161097053465117 1.2280450017860465 0.2861663529542814
Ni 2.9986940594734297 5.696408738976424 9.075677790796462 -0.1573538274635419 -0.40588308679133966 0.685077122192846
Ni 7.666814777553179 4.389248933304358 4.576563481669949 -0.1170345590192049 -0.1808251711126047 -0.5304733466706154
Ni 7.011470677594349 2.002731275441329 10.656314797229367 -0.8633628147130485 0.9231710451199328 -0.34688963897626707
Ni 1.5438470644539215 2.529812731456841 6.868186630232554 -1.340156669582337 -1.6185534058935285 -1.6595442464835937
Ni 2.5552006306770854 2.6133823816226465 8.972286650873903 0.595523027982097 0.5681109545177313 0.9306125889996425
Ni 8.178615713697802 3.723558552302461 11.525776377882941 -0.049848033870378665 0.3288273821579175 2.9597979092234055
Ni 4.255252648711951 1.2368400109805975 3.22118596338545 0.8171114970549929 -0.32769352566379045 -0.955536863045148
Ni 2.6156978903463166 6.545612374855886 11.520894513657204 1.8585057221855927 -0.5438795927741923 -0.4623776794439585
Ni 4.463409532148581 4.662506528277516 10.763309677316306 -0.40161222733012775 -0.2374784008302749 -0.6513617322182718
Ni 1.0753057119245388 4.270965029336858 4.347228881938416 -0.014114070803878918 0.3681688600700176 -0.23690890148005003
Ni 8.052135643930644 0.03439816848386016 5.41668150236701 -0.1356593732092438 0.7559097287346918 -0.5124529988337949
Ni 1.2518908176844556 7.838088914891343 1.2607503951104995 -0.6361269175463884 -0.3658561527764409 -1.842170732470995
Ni 9.08812365018619 8.386184531426833 7.458744266267352 -0.5030376190571659 -0.6038878550070245 0.22376619345050494
Ni 1.8251813743798833 0.4078033534611029 8.82483928207284 -1.4285033737485464 0.8045280039630273 -0.01088759344678125
Ni 4.433252787580778 2.2252682031340876 1.133980886752882 1.101652398590709 0.18226601732418932 -0.24307620663302654
Ni 4.916973586187555 6.894252642721872 8.134913243096525 0.38940617218223905 -0.13327596057873176 -1.8326036576078502
Ni 5.0552517242134165 4.5600544557817795 4.742529407144366 1.362582345575705 -0.30138496967624867 -0.337042056758226
Ni 6.248023561230824 7.1659573766859035 1.3193033625339823 -1.297323633577211 -0.22871093905028997 -0.8790892243093699
Ni 4.6886386981589405 4.56602699812458 1.6119175078138246 -0.7022652039363583 0.5563162758756484 -0.6965961785760391
Ni 6.1493295961477115 2.2262513754889794 4.694424713410112 -0.3319952383629379 -0.4766429311137211 0.9009356307605001
Ni 8.326900157279525 8.257848379270065 0.3764860979734599 -0.8923314340312568 1.8122299790475047 -0.02910077402069827
Ni 7.508092167661577 0.6878365680090023 8.73600001185535 -0.6822761624089411 -2.214906385976089 0.893349847993442
P 5.148809302881721 4.752204925739703 8.517302969462678 -0.742371842149257 -0.983681443800164 0.6491935209223594
Ni 4.374703495567967 2.2047961656883026 10.534445530150851 0.1324228685498171 0.24262086426316284 1.0942728182971864
P 5.096802241865947 8.094412055190991 2.9080823224591286 0.8723341649737234 0.12753057345452232 0.8071245610456099
Ni 3.6234679311638005 3.8587952879968337 12.841858242962486 -0.16628121186015882 0.20546868069289778 -0.4975863661346076
P 9.027166964182896 6.116829777276195 7.7145987917062575 0.5703897232495789 1.4835532635348385 0.2507427220393488
P 3.0848089315299365 7.989065596790668 9.213401860663444 0.007092388070407141 -2.2855608150688576 -1.0964783105889375
P 9.118041493060282 0.7728644373591189 1.7293349337152841 -0.39668882188658133 -0.05066384490345468 -0.468845032335857
Ni 0.213347482158858 5.164512494979946 10.350029043100522 1.3167938264866805 -0.045043413392883716 -0.6613383838150094
Ni 3.589874677617216 9.21214119480278 10.817856447106772 1.3446900386763163 0.09446850079323085 -0.010882965461090934
Ni 8.157252389163938 7.03534246991219 2.4542545577044024 1.437402733120705 -0.03989117976798291 0.9371125949016894
Ni 8.855222064397003 2.7964545872195132 0.6790468233857356 1.5716659973133706 -1.5130479305598459 0.5067574911109144
Ni 1.4397226801022003 0.33776932194942066 11.538687176722743 -0.1428926577328894 -0.05465368278913813 -0.3000274272070897
Ni 1.0385056625662046 4.412027290947132 8.243144898874759 0.6731654583569245 -0.8030802157729072 0.9478520928063806
Ni 3.5029420266860805 1.3884139471142007 12.759393053703764 -1.1308169359698073 -0.49894519415534716 -0.3322551768925439
Ni 8.038398796542202 3.7018460637547093 9.17019281394495 -0.6968252638677096 -1.052978844644406 -1.2698598809393034
Ni 7.083076866021191 5.5214867565458094 7.8062626150255605 -1.070320678356963 0.2995250336493745 0.39083004911295915
Ni 8.139573663829248 2.285379544682707 3.234029685980476 -0.010197252247975986 -0.10401063595571121 -1.0741235970428211
Ni 7.741811532325395 1.9386045477330112 6.90668931358492 0.050679271522422395 2.1912118705726265 -3.4007608704370145
Ni 7.087459793248138 -0.09717602047537352 3.176430487626505 1.0477808453832342 0.05366303674109467 -1.0682781940056376
Ni 4.244483695441547 1.8472246498881588 6.823605736480553 -2.365563261035429 -0.1915441001920056 -1.3578643712747454
Ni 2.974197447341265 8.042974682829454 2.645476067614854 -0.6400784459949687 1.601672313867474 2.282577821181133
Ni 1.1311443885663857 6.460958478541696 3.3324176731251036 0.5345968819206858 -1.554340875771362 -2.3581811096387453
Ni 4.3593586560103095 -0.43494442357212604 1.0111183399401245 -0.03511998363158468 2.7369627122276023 0.17856311455130539
Ni 0.9515086919482998 4.645039139056495 13.078494964847595 0.4350417106331669 0.3799216297305715 -0.11657638843586375
Ni 6.624955302748324 5.238333118336964 2.752054707443132 -0.9226555389360949 -0.5101433768640117 -0.6944253961769654
Ni 3.28612955111573 3.974864757034156 7.006543789587872 1.247109474616665 2.0760030519082506 0.3296349656608775
Ni 4.048170822897025 6.172310101377474 3.446876393435207 0.5404042326310822 0.003190481912839667 -1.281505692708348
Ni 0.6863259742226078 7.403434848762345 9.4946066123632 2.44136118200235 -1.3142317221864592 -0.9222467335334504
Ni 0.5012341304612064 6.665274557825571 11.893131836893263 -1.8165463470346714 2.2236316816642288 1.0611009595309082
Ni 7.113748168083142 4.061595260378305 0.8468798574817791 -1.9954987266045956 -0.5767773719434776 -0.9590155656223677
Ni 5.733640649088776 0.5244627259113608 12.75383858932496 0.08425505059533876 0.8309090650597174 0.15758162720363184
Ni 5.57884154009006 2.325487463646285 8.579891537804558 1.2819404662529212 2.2453377058827524 0.6643550591541462
P -0.008030772319396778 1.8455890921388998 8.317890806868576 2.9957954103639373 0.6633142765944576 1.3667166794590526
Ni 6.15751657342069 9.198266519514119 10.603919980387646 0.164192190541614 -2.5581239754174074 0.5411598798501842
P 0.25223700248450437 2.3847075181068256 4.884221082832304 -0.6330166540521808 -0.7334930516023883 2.1397777231620507
Ni 1.8695711467769152 6.259647047482583 7.100977953701566 0.6258003388093996 1.1033601253104353 -1.364675480659308
P 2.1597448193702222 3.93074145191088 10.728572452197907 0.279761477869202 0.03133172023374604 0.4999911189213583
P 2.9700166677013047 5.12911829020384 5.050644596935446 -0.497117396917989 0.8231381628650468 1.3974413622364192
P 6.463136159365148 2.66770495136209 12.584415940113063 -0.12889711478474575 0.13477439950112918 1.238705823934002
Ni 3.399920265536107 0.32161221663314227 5.036617392103878 -0.7943220099643029 0.3702676515805752 -0.22613135124857184
