# total energy = -340857.0839302036 ev
CRYSTAL
PRIMVEC
9.37920608469229 0.00000000000000 0.00000000000000

0.00000000000000 9.37920608469229 0.00000000000000

0.00000000000000 0.00000000000000 13.72741616962114

PRIMCOORD
 96 1
Ni 0.39562148140271053 1.6848149406911952 9.347450984766146 0.37886439211065076 -0.26170333481591057 1.4014137166206058
Ni 5.038303208266939 2.354621569620852 5.373308756078944 0.23677880366008902 1.0033056457889948 -0.957432537405964
Ni 0.5072921858214838 6.484989483683886 11.671954985476756 1.1847692218165466 -2.188533809519831 -3.3680471822540774
Ni 2.9579202476481616 1.8004793110942048 11.682978366480215 0.047417312941698986 0.43817125740108404 1.4448532758614794
Ni 0.5129178336780947 4.361659138044401 2.8132694405981766 -3.0623342746264357 1.9040451013782884 -2.328068092303449
Ni 4.2590224850019 4.994220939300497 5.4828531944605485 -2.2466456260608982 0.9809699584062718 1.8800219989908138
Ni 2.1181905406621215 2.8242571806182166 1.6850813101462265 -0.8937684235880994 0.476834735409553 -0.3627939689113494
Ni 7.5646580427336465 8.901663881279626 3.9707516456592513 -0.9830985747135005 -0.605880202846705 0.0077945563437543195
Ni 2.7577867465405217 1.7129056631495974 8.755826604650013 -0.20730059169531398 0.0599511837426516 0.21723353453830974
Ni 6.023419989986764 8.28900475550157 6.493671814829043 0.9916372083121308 -0.008482583549714422 -0.24284146491440115
Ni 1.3313314188173202 7.669311225101209 1.598557195371267 -0.43659877070764164 1.2329118429600445 -0.015341001232444546
Ni 2.319196307942927 6.2354181868906915 9.027697902016529 1.833396585822791 1.9707315469622446 0.37964369347883653
Ni 4.250900092464679 4.856187162198561 8.164915982122888 0.9440458316864129 -0.10929322451088919 -0.7991729102987011
Ni 6.491948854656886 4.842230903427908 0.2507596422140564 1.070018573735512 -1.0961620649000992 -0.004931375863346346
Ni 0.7118226587783724 3.0778615360615325 6.084952272019602 0.834533549186182 -0.08280597685363802 1.0909668938524049
Ni 5.653860508749384 6.9353226883976475 8.270370148696777 0.34392284303845927 -0.17709064377083694 1.100280200833531
Ni 0.3933413963844676 8.325902552547097 4.319414255565307 1.4159486770119871 1.171085296571551 0.27825506852700466
Ni 9.671368435052168 7.924435011942943 13.007454523512946 -0.32477429513446654 3.860515510435829 5.35854588454092
Ni 2.792302225220628 8.782819959987334 6.837351252500659 0.07287534800348738 -0.031544093354868255 -0.17489800699489233
Ni 8.403065281650694 6.528771618053109 4.151637139879034 -1.1667573586201583 -0.9314155445169121 -0.04923791109020552
Ni 8.514762247846724 3.9697114916957665 9.30599395560475 -0.2273395126240601 -0.5057743012620387 0.5451072945337063
Ni 4.459793772128629 0.8531429097198504 10.341754698922703 2.9284304506557177 -0.12827207960623715 -0.8347605775953236
Ni 5.925069634160787 3.3525503469594358 9.665597409500029 -0.1960386456282495 0.6340692636864111 0.5110365781022425
Ni 6.688855908844429 6.031973826007486 2.550746398014395 0.19744581038842124 0.02565703844647194 -0.8315592970492065
P 0.9364283846067012 0.6177220212648826 11.795089893588653 -1.9715668983793466 0.9500930663217573 1.6806483754520605
P 3.0653402958338303 2.4030557902469583 4.587826501698882 -0.7086479675342505 -0.45383956006596027 -0.4934908559089953
P 7.09092371864302 1.8840480380071805 12.63162504295555 -1.1919947930307084 -0.49125579593088936 -0.5988466930386912
P 8.221230611767208 4.023060416351322 4.579191066584541 -0.4332175129402346 -0.3329550311730459 -0.051818527333188175
P 5.822207880170371 8.065573306284858 10.414235328309694 0.6116564432088498 1.0387205349531787 0.08861332756403448
P 6.383065650309779 1.2555192954012058 2.9256689093358212 -1.2637146872735139 0.5940125048748415 -1.2817126665128316
P 1.2671307526310893 6.33050457897192 3.500724921764887 -1.6582892910305698 0.35027115385399027 -0.4525948890255818
P 4.075358869916615 1.029020845769169 13.585585039722266 -2.033974771192607 -2.0237461514860633 -0.9395245467772917
Ni 8.477414248905369 2.0441886040354795 7.448935521252427 -0.4047890823962126 -1.0267510212961286 0.58481978263198
Ni 8.370491298646344 3.498106247404157 11.848695808493076 -0.42859698344908764 0.8500187893059749 -0.2582349166513359
Ni 3.752160804743301 8.284981076057612 1.198377419773303 -1.4549775087796748 2.246112636375564 -2.7399102248917004
Ni 5.6696926087526505 6.921741597873519 13.374649506876617 -0.40288440917433194 0.00645089783166631 -0.08142837977982105
Ni 3.7900434184359506 8.37051005705867 12.50917669273479 0.4796156405887998 0.8042996900023053 -0.21199414051624138
Ni 3.091705244358227 7.256119676793215 2.983571438583549 -1.2043851962752612 1.3255911130633362 2.1851355824715593
Ni 2.7095025932130246 9.147614804493875 4.250858823957562 0.682172289841225 1.0791614165770447 -0.4749020371632144
Ni 4.562749318180675 1.0732531820342186 7.328134159633902 0.8983539860762528 -0.2103910576951796 0.4149104871009306
Ni 1.5467436467646056 1.0406135445867264 5.749330510362682 -0.39523743415203544 -0.31744999355891135 0.22836692544730994
Ni 6.548336642109279 5.519015661742891 6.328901672638651 -0.37613336633273287 2.5807303999630133 0.07128049271254176
Ni 2.359902062690662 9.293874145400826 10.604072336891512 0.4412586380771562 -1.9578485203519898 -1.9780121397840578
Ni 7.851117757366206 6.247048402532902 10.248120207955518 -0.2599673259614103 0.2680027946713771 -1.6915012590061642
Ni 4.575233041583725 6.374286713341142 10.280955870811816 -1.0772634282233833 -1.1399461519645853 1.4278060905712056
Ni 2.3553531477015714 4.463911243634217 4.046801062991292 1.4408868350145636 0.12319106553890395 1.0351842396651463
Ni 6.438112211280851 3.322837021834822 7.0783771545586776 -1.4749094718169116 -1.840776937447262 0.6454291687839206
Ni 0.5101368990507438 5.213994498113611 5.430538796244779 1.371420255582309 1.6726540443926743 -0.733598466832001
Ni 2.989650102097836 6.360574313930731 0.41832666368227633 -0.37265672063804206 -1.3089912997231261 -1.5167338640518653
Ni 1.259693042143773 4.72171748343859 10.60475889478265 -2.7033062005154216 -1.386231866673845 0.5923343458414702
Ni 0.8449708073899653 7.2815185670828155 7.139506130726503 -1.2119972042945641 0.5459745276300081 -0.28611107423631366
Ni 3.7861698062906015 8.53367072747148 8.827428402419525 0.8948642277554394 -0.8735063309049538 0.6773296170369433
Ni 5.614205225091913 7.089563733749374 4.435135839125911 -0.3043021433230437 -0.43783264311474274 0.49850990639014137
Ni 6.583414873159169 8.928638478204622 12.449846648309045 0.3204463571830739 0.7540626482236239 -0.9672572368058696
Ni 0.7606554956664091 2.5082060705411635 3.923446681455179 1.0459018831929663 -1.6031836083056776 -0.7929870932029635
Ni 1.5913792888946674 0.6231976018228844 0.39392853469027594 1.7637060633051884 -0.4990374967588373 0.40107589521068343
P 8.822578414912599 3.46996862891494 0.9104995691688873 -0.6617700720357893 -0.453297057298929 1.5765161263168201
P 8.212789326220443 8.073161084070783 5.994858431378976 0.34580334789062384 -0.9690019874111182 -0.4307500252363485
P 8.373492644618526 8.682124802620589 1.1072846936763108 0.08385550116407493 -0.278557687369088 -0.6752015149503467
P 1.327936146186288 0.6761000762650783 2.7726227748492693 0.219373463699448 -0.4400772161745453 -0.5420193996370021
P 6.490964038009763 0.8359264388869145 5.982160862075409 0.7861029644886204 2.1154885115973823 -0.27096162018938497
P 6.781372398436977 5.040104015850249 8.420699127157887 -0.6552021890102844 0.1286448895646236 0.8044423862277567
P 2.9208630040978627 4.156526520051844 9.621930639366612 3.0227048331602715 -2.0493772217906057 0.6736999907041559
P 6.291233842767136 1.4513008448491804 8.732380465083564 -0.7812734043104609 0.22906780816907646 -0.7597581559465043
Ni 2.2981493693129926 6.992629638054021 5.314638069846461 0.7637914454756135 -0.8215577057518043 0.04380799832388584
Ni 1.507313464055049 4.2317946495105 8.139959790364186 -0.525295916234734 -3.0463484407211405 -2.2699879003312646
Ni 7.779348071806375 9.22202942619169 8.681122165481757 -0.02111569893269267 -0.5346747863464728 -0.19113760878220631
Ni 5.2699789797009915 2.272919304734328 0.8840117530437545 1.841796379850712 0.9524551387960306 2.4628365782673067
Ni 0.6129949013586943 7.902797183324735 9.510340596120843 1.1123461308591294 -0.45353745544450924 -2.248734647379443
Ni 8.78262299665791 8.549690411598005 11.076116528031553 -2.8990453126253812 2.4378187160667304 0.6834480712298552
Ni 8.755076268156966 6.512789450751233 1.4128536029455134 -0.8865644496404924 -0.24963869034189265 0.21379108451566406
Ni 5.154783569606135 2.9863392423222717 12.558815203432236 0.26725434654112684 -0.6298408274273605 -2.03708734867966
Ni 1.1627777048607453 2.9491225522671995 12.659052655538224 0.7289293434911059 0.10632591435244915 -0.295067254988337
Ni 9.039453799021324 1.6150899220749144 13.506239769344523 -1.965294177996757 -1.4641388635639687 0.7677915677739423
Ni 8.496763551219788 4.394945940717146 6.9116580133275995 -0.45832227842766227 0.5471582635254642 1.323491036001198
Ni 6.691566499425558 3.282393884859654 2.6026359181909773 1.677648412283472 0.9396759847534915 -0.7460274366239732
Ni 4.198310883508332 3.585323485514568 2.8815219238468552 0.39154121624737087 -2.493767977738841 0.3175019298427693
Ni 5.979619097205216 4.55705614003969 4.400680387365248 2.469683683096127 -1.053204844612283 -1.9959805513370208
Ni 5.223570667606108 0.18644173595078697 4.213273531100281 -1.3542671408417901 -0.9991070343266149 0.6764711256913899
Ni 8.37069764118193 1.1432501976292284 2.3905608117965134 1.9176837752076457 0.38097501069575035 -0.895375105953587
Ni 2.9932423380582924 4.137421077097665 11.957815368835496 1.366723364327272 1.098716970111469 0.6705077090191034
Ni 8.436867940662408 1.5089642043397498 5.103688468191565 -0.9451421500743853 -0.13760878362613074 -0.15799120393722468
Ni 0.2819117375640852 4.943254333010361 13.4744611430228 0.3169794816803961 1.112713541500877 -0.19540358314741188
Ni 7.571082798955352 1.6330323434648721 10.407468231063037 0.2272783203688215 -0.3377951328741666 1.070640266479911
Ni 3.66494356663289 1.103960703012118 2.2013700305193296 -0.21892069243274556 -0.489787438915479 0.6229034768775787
Ni 5.911507302048984 9.15569030100028 1.0923511216234667 2.047649697576538 1.7240550245724695 -1.165243235968477
Ni 4.377181724244286 5.7221598880288775 2.609361746930516 1.7376757006796977 -1.507225667451114 -1.1029700889608682
Ni 3.062273295418506 3.0729562112382456 6.716330417457917 0.38921668187925224 0.052722270094380165 -0.4530702860001036
P 7.949318045893575 6.095902495214989 12.344310882641535 -1.5344582779148217 -0.4761667628082509 2.276279132656615
P 0.28775685884491203 5.7559813054529165 8.588406836718553 -2.3837337612968685 1.9395139837088595 0.5425467328953818
P 0.9618375920230808 0.3174157845737797 7.79516797884163 -0.057823595876687506 -0.30299987957185237 0.31720933830301495
P 2.5185138181143802 7.064699458211069 11.255836186925267 0.9208771068794335 0.3330643030574006 -0.464905845182451
P 5.241700673119328 7.84065994249438 2.4534324444694366 1.5606369931927189 -2.076977757116694 2.5532396507419124
P 4.252804071315783 7.126686631742816 6.4209848429064635 -0.5370805675744879 -1.2164292719239889 0.01949641816171481
P 5.008655537585466 5.008158439658823 12.226968572255954 0.19481171519968385 2.1878108153108773 -0.33776659362907635
P 3.535885689829013 4.353349161383919 0.8522931536414761 0.1420472790134586 -0.721983508300892 0.3919662195999314
