# total energy = -340866.36230093223 ev
CRYSTAL
PRIMVEC
9.25865775523264 0.00000000000000 0.00000000000000
0.00000000000000 9.25865775523264 0.00000000000000
0.00000000000000 0.00000000000000 13.55098150424898
PRIMCOORD
 96 1
Ni 8.596607916657321 1.0724395543690475 3.975885099633057 -2.148995899326209 0.6552667236996327 2.2171375892994525
Ni 5.538464092917125 7.5893215349630765 4.053031011339502 -0.5694566699123483 0.6600479471383601 -0.4219491391152669
Ni 5.043949938343607 2.52057691189258 12.49839505462579 -0.3838752150616808 0.5358490091602319 0.6983445287257134
Ni 8.700073413977332 1.8575181565840762 13.424360795956625 1.1119021013431754 0.985167027206755 0.6181034843857741
Ni 4.7836057487112695 1.0650141110714502 3.247100060751844 -0.5962763612083537 0.7359957634195841 1.541894422477893
Ni 7.2059205287866455 4.018970262208329 13.378788757982681 -0.892691902694469 -1.3064374229530211 0.11531706210746592
Ni 8.36227129588153 5.898977697807197 13.563583228457832 1.1575127000934387 1.0384647101886308 0.19931037440098578
Ni 6.661520727720043 4.08304017195817 7.87732040861735 0.5078216707093706 1.004659845824044 -0.2757868094921702
Ni 6.194699217664121 2.8829792829082255 3.447003734365834 0.5964085159108438 0.934352515658049 1.177589930459288
Ni 1.239447217962635 3.796956914536157 5.766525195654123 -2.5202909637300337 -1.4753871827842784 -1.0581513899842807
Ni 4.4215552066798 4.107760787425232 1.471487691683807 0.08140935361642754 -0.4670216059738731 -0.07632422578403629
Ni 5.375724670421034 0.9830657337310107 10.648577323466418 0.42165783312709315 0.313186333186551 -0.9484622155865536
Ni 6.261805967066845 2.272185649064729 6.426756356968755 -1.8530948355826666 -1.6540307728645318 -0.878101920695436
Ni 3.603321352034976 1.8186503124901698 9.274196283146523 -0.08357499380917864 -0.9698597074257232 -0.4023334217668684
Ni 7.533047414809964 8.926595727841436 9.122045987208365 1.354364585651603 0.2916726274844912 -1.2665495856191478
Ni 2.9309854219332148 1.8163912000654645 1.9886605587039705 0.30891187418091315 -0.6752549938961016 -1.8682085512956534
Ni 4.691722831896614 5.863239279940957 6.39229563383452 -0.26133386729163377 0.10491335027563867 -0.1494839377971619
Ni 4.156507619048486 1.0830592344966583 5.636083673905336 0.4705900400514218 -1.8248034448371413 1.1923699169819402
Ni 5.106131081967875 8.335606362344025 12.001033862877696 -2.0128904397184817 -1.1026666987878364 -0.07670680593443564
Ni 5.989416264055238 8.339041324268475 6.304228209766671 -0.01949641816171481 0.909881269989562 -0.5040336644218482
Ni 0.27512748802793985 3.67315014673632 11.93197724021004 -1.2682488276984416 1.4461210868303096 -0.7080856672728773
Ni 1.5543804520870332 2.9969255804936723 9.152942127213453 2.7001604557975885 0.6259160384516576 -0.9825180196196821
Ni 1.4374065735061823 7.090761347071541 4.185721460989768 -0.8469185531140963 -0.20966214994895505 -1.5353321958793429
Ni 8.98945275346162 5.150655965781023 7.326676568947382 -0.24471965577372046 -1.465460667699186 -0.20698357467552736
P 5.857424843044583 5.821149423044602 0.4194856978323607 0.8559534096228549 0.18552000548511277 0.5681983720252151
P 2.949104614618249 3.3292002800749274 3.3358859566400083 0.7393492532728493 0.8230911116771953 1.6900416437415022
P 2.682196036833797 4.64489254237137 6.753876761931839 2.267708617378785 1.9465073843075575 2.1427139229722387
P 7.227391355478824 3.65985471459748 11.251135381482966 -0.6455798354291721 0.8011086938688332 -0.32463494134312476
P 7.022052849925071 8.8230561612616 11.212379567144545 1.1946157755933233 0.5133444002998127 -0.23274654257224434
P 8.590849031705819 9.055346618734687 0.8377057371874378 -0.25657064157503556 -0.5716673044104219 0.3066554740465686
P 5.049616236720327 1.2259666126742295 1.1963426122066585 0.5843104470957292 0.7268202675679031 -2.2576620317760603
P 0.8228881817591653 8.6320315401693 10.274990494216983 0.3544142294880864 -0.6480100421372195 -0.8452650766710734
Ni 2.282222033771207 1.80726216379186 7.178998204571243 -0.15924204562519026 -0.09835060945645643 -0.03889590573424915
Ni 6.820936292181424 6.519502180660388 7.591883405487322 0.28238734552782335 0.18656387336859484 -0.2648925311771696
Ni 4.305599780421562 3.546704661555167 7.754115453553603 -1.1309799439102328 0.11385230463648133 -0.9678809864327975
Ni 8.743848346534739 3.4052323752867326 9.565962504528716 -1.595974235041432 0.5605830215718023 -0.44435501761429275
Ni 5.48602305696003 5.263824536138292 3.4404319392877363 -1.2543808114670978 -0.9849497689896264 0.37570784875954005
Ni 6.686713534718498 0.7568443262349508 13.046126120653085 -1.1408889754938287 0.6304316669338239 0.9586689809162264
Ni 0.30801794285385525 6.961936386918465 1.929890304494709 0.45317158746465824 0.18387578501347043 -0.3512013789777435
Ni 3.015544740682535 8.944094590475425 10.875014457681722 -0.6057295362014535 -1.5945873819962344 -0.40638393768715825
Ni 3.2265680619279644 8.670593848566423 4.193107092060208 -0.7616774844564044 0.34064237251497465 -0.5416357910453381
Ni 0.37967069307842427 4.12319496944156 0.9109806042022051 -3.1138692092809337 -2.6763057606671774 -0.7404753964574926
Ni 6.376178162896293 5.661039459272348 11.703331916186164 -0.48936320689386686 0.14957804017286497 0.7809602439454163
Ni 2.8085211594677317 5.332727465091806 4.611371572971182 1.0200890358949206 -0.15288113640416898 -0.7571909094399605
Ni 7.190125259128664 6.177524408041874 4.774701697814389 0.8506397107194253 -0.4548402334163328 1.9991512357555183
Ni 8.16722841744365 2.9880835626018953 5.40303400651903 0.426726248788936 0.814554534961094 -0.1883011677746757
Ni 4.223892128175558 8.525973618755366 1.9335622880506032 0.7195553584753737 -0.20318554108567588 -0.029897816000696895
Ni 1.961094757793826 8.79379880363017 1.3786363192969207 -1.9482009699598961 -0.020634645531216078 0.9660213075162396
Ni 8.172228092481932 0.5260065521202102 6.6378259715015755 -0.51003590475187 0.16961927509445626 0.14782403359623572
Ni 4.330329654546103 4.948557990344676 12.620678773270448 -0.5588945781257858 -0.13927742957780528 -0.5108290900771267
Ni 9.099927054492703 9.139961489428876 12.136502835637199 -0.6400905301798266 -0.8802729602048258 0.39700738156826465
Ni 7.090270638225191 1.0536444796880968 2.0751975266906557 0.49212997100572664 0.16217798832506264 -0.25830819309143255
Ni 0.20709487287738637 3.4100839118053625 3.3960653785174673 -0.6177748974017618 2.5329572463437926 1.1507735815973925
Ni 7.764893456724093 1.6923437071711918 10.96268931467249 0.518783311927197 -0.9770066028831496 -0.06808204037990209
Ni 1.0955028701474943 1.6542443316479845 11.098361977896516 0.8351701543289165 -0.8596992498185323 0.1226526765369307
Ni 6.108760358950534 7.4334150016859715 9.830667521833334 -1.2690250437428339 -0.3957673385135764 1.304557946542121
P 7.456432024177027 3.715545539329459 1.9511926236207833 0.787631742428321 -2.5402447811441413 0.45538145063178354
P 1.1298061961045984 4.937040220441669 10.027766748097147 -0.6895395288395737 0.4510985069857134 0.5933841272622232
P 1.0568387165181106 -0.022248553920356563 3.442166085833422 0.9022895736852332 -1.7377790590267816 -0.3602179806540571
P 3.7036203884974075 6.759347702635767 11.185399839252778 -0.11178513769480748 -0.14130423019984698 0.8102389383048756
P 9.066021850807166 5.625236230803759 3.8748759241420396 1.0894262888381623 -0.27258835715953056 -0.3026946896266077
P 6.380326041446572 0.31760898613562694 4.32959266541083 1.9345712949916036 0.3207726301742411 1.0841401007385585
P 8.994822774799035 2.584248699370854 7.34964544641955 0.31392989622079487 0.7116672139765486 -0.03813974429451496
P 5.44794219875178 5.629522989216213 9.07101319305372 -1.796143357898287 -1.0897754446474652 -1.155693901717145
Ni 1.6653547206219452 1.5318356211273711 4.894044866843936 1.141957268857343 1.4918070189031984 -1.2983312489061187
Ni 0.4570647368052876 6.726775745627106 8.817853721624543 -0.034793710640417495 1.2217175169061216 1.3321098880184605
Ni 7.063087219868899 1.928022833281336 8.568651400401592 -0.17641470074973487 -0.42886026441280334 0.887789323186529
Ni 8.013543961961336 8.116731699556997 3.4397810556670114 0.8929554407685009 -0.3590280741110139 1.9140734321485677
Ni 7.480050859404171 5.417147903978951 9.759633249928314 1.2564842309633457 -0.5171642882665352 -1.024934279802364
Ni 4.441813149242321 8.04582890058817 8.23597487508578 0.5424467169824078 -2.2948345270612998 -0.17497796830320833
Ni 4.075096243841788 6.955279412191566 0.2444489264735905 -1.182914427995995 0.33588017523964087 -0.23882745865900157
Ni 7.011470204427373 7.685296778383141 13.016313243572956 1.4859384759375633 -1.2956598727215427 -0.33590177250619574
Ni 3.8229737420501815 3.254399586307736 5.35712310168138 0.3719488959377401 0.794465991741335 -0.6549124256840076
Ni 1.7604040982941802 7.6848245868517475 12.746310422459258 0.39402952988686335 -0.9087260733391962 -0.6441698424555228
Ni 1.6170523045576506 6.713387726913483 6.589760577068725 1.0216052154291309 -0.08513128255270501 0.5182963449884492
Ni 0.7616236452252497 8.832620354436685 5.584075017252478 -0.22489927861368364 -0.9251898753221743 1.376248787319204
Ni 5.111538137935201 3.650614574434136 9.86305430569243 0.9750307101037015 -0.115019328361389 2.0986526709869664
Ni 2.4072694616731365 8.627263331567976 8.546983364305126 -2.606249113059408 0.5419942028260214 -0.32761999211337767
Ni 2.2875272445062733 3.4879029279104796 13.062142672224798 0.036740292843827044 -0.7827379046711294 5.491633383257929
Ni 7.523020288760965 5.746283918675063 2.2608317573990893 -0.423746854445638 0.9454095448031589 0.5179405043109273
Ni 3.000721630059776 5.846462592590276 9.095811581243598 0.44701019584895274 0.005146577197945976 -0.12646613674574994
Ni 2.814474476226279 3.895320891585623 11.197067599406932 0.8636978294549641 0.405197887798857 -5.414419555780088
Ni 0.5852767738332999 1.695806445068076 2.25335168802237 0.3864486322158119 -1.2132436751071558 -3.5453201172390494
Ni 6.814010816387655 7.920688886111458 1.6483002735469154 -1.8009263811092273 -0.01894183120982544 -0.4843127889541529
Ni 8.746755564982923 6.498420217582297 11.406375291421634 1.462674106092984 0.9162781746548413 -0.9734394543571816
Ni 0.3094039638783568 1.0389509902700338 8.73568035890738 0.08525572394571124 -0.9642737286975136 0.39497286763673917
Ni 3.5319371028772775 0.21444069172067015 13.411081103535498 1.2548425815948647 0.3438241126770659 -1.4943318422075813
Ni 1.925504478447238 4.783476127506574 2.2150708428125876 1.9480729290224643 2.0731720102173585 1.4535122370880582
P 8.625096805718053 7.273758712130154 6.666405595405593 0.6101595469483492 0.8251662490386692 -0.4558020831089699
P 3.574147322320851 8.104713962150162 6.194560337801947 -0.2372313178164753 -0.556787301974796 0.91124086934125
P 5.515835934040158 0.47660883687623246 7.960103916862332 1.2786479115445786 2.379487327315689 0.28350783228551174
P 1.406167863174396 5.800660014045122 0.2558833684592919 0.30565171537240265 1.1688144982595032 -0.7493858115732449
P 1.7590430756448698 1.3763179514643544 0.006195893584478822 -1.9389126026794348 0.6771599242282983 0.49150570715816644
P 3.8302880814580393 6.746552238000755 3.013168969173603 -0.9452102843081592 -1.285732586305502 0.10102609940609053
P 3.3142938415348633 1.6104971750630135 11.491570679939713 0.8939018638421702 2.1849656325525983 0.07505872880805138
P 6.218660623217964 4.298952064352142 5.69168283792828 -0.42018356257441186 0.4642949510713294 -1.0741670486862467
