# total energy = -381166.7881827631 ev
CRYSTAL
PRIMVEC
9.25021335116940 0.00000000000000 0.00000000000000
0.00000000000000 9.25021335116940 0.00000000000000
0.00000000000000 0.00000000000000 13.53862226532901
PRIMCOORD
 96 1
Ni 5.104314003855491 6.904581285080473 13.149048841682344 0.3751344927545733 0.1299731214577439 -0.22283005478948073
Ni 0.814514590425766 6.500753968995416 3.688056381532575 1.0377800254167804 0.009480685796925606 -1.3816321631183044
Ni 6.684833215607397 8.958785424496014 9.678395600526557 1.8632715190053522 0.4764963782335277 -0.10358666104441516
Ni 4.8818186210033305 0.2014048963056616 11.290439539537442 -1.077972795585582 -0.3005385625155534 -0.006330055983085873
Ni 2.1623298838199356 0.12443479564567998 1.9771803875178535 0.41257849653364426 0.5991588249624713 -0.22950386726523056
Ni 4.89424165759629 2.143255943794111 12.897838946401395 1.2381784906756226 0.12638360433427268 -0.5722314044440081
Ni 4.093987196144244 0.10631362759980706 6.014953111823622 0.9930705983245478 -0.3168172450709189 -0.47796370680767364
Ni 0.19348671363732714 7.531320243620582 12.908792124085478 2.5260895726896817 -0.5244649356930065 -1.6494248986614044
Ni 2.558812530467309 4.523317350566449 4.70119155403133 -0.42843628950150736 0.19964744602543036 -1.51183694097088
Ni 5.1125189431391505 1.3519094378439416 2.202517435925752 0.8959104096317667 -0.20592942237940018 1.4612057490775736
Ni 6.650635176676518 8.970949455113841 6.90559048336215 -0.483241153156529 -1.0698396249554865 0.24241980399595026
Ni 2.868463423951534 6.039094318748644 12.660290691287342 -1.355822401144052 -0.891094219190046 -0.6156593937206558
Ni 4.244118159587082 8.181823000379094 2.666499814756658 0.08283220210588314 -0.11942799895204591 1.2856965908612437
Ni 8.879825602934213 2.7305704928337047 -0.011784771868525829 2.087815471162146 -0.15704118131912953 -0.9127254243065764
Ni 0.02157612274987166 0.20145022235130977 0.5981076980318979 -0.35046630058393186 0.9542001465115955 0.7552507549944542
Ni 5.769062089246285 3.8531578903380668 1.760724468992978 -0.37434876362848435 -0.11243279858113538 0.4357045410281464
Ni 5.278874780881354 2.1121197254978332 7.634984610103321 0.05781845367036494 -0.5713587720310677 0.5167251438465875
Ni 5.892626439811251 8.287580690153705 4.6006269340581225 -1.0318117236484876 -0.9549015434539941 -0.0019167574067386341
Ni 6.830644329393561 6.485565118596578 6.070027957371515 0.9834708704512548 -0.924875429405549 -0.486038256285692
Ni 6.063894140867576 2.89860986941427 3.9457368010851366 -0.457181994175632 -0.07287843332728094 0.5197227930223307
Ni 0.6747928921192338 5.258404058632495 0.2672007391813581 0.35918156896974274 -0.7958813840316229 -0.13446201046703293
Ni 8.030998270931438 5.353598004707062 12.591514429654943 -0.953795711984325 -0.7862793421654846 -0.0686289140223076
Ni 2.8681304162692203 1.575265090542077 7.374528201510143 -1.4334830863513248 0.020969403162815498 2.2998738892574195
Ni 9.22113072666498 2.2073414222125938 2.5995643455903785 -0.16089860739200676 -0.654011511136293 0.9867006902424621
P 6.593764864708153 8.460975940291473 12.353532339532544 -0.7046725278262702 0.7537024366707278 0.092751260991808
Ni 4.642127091445056 2.9217076522680445 10.521919785188496 1.22210549637316 -0.761908626630604 -0.18398120024308315
P 9.016904515273055 4.277048919282491 9.684772697642853 -0.19912114120831514 1.0839446968983009 1.0488295983627227
Ni 1.7280786158702142 7.088799284893419 1.2151616831447334 0.2034033135234368 -0.06175661238250654 1.326062139162484
P 9.193703843941133 0.7126475404061791 9.426306009951498 -1.1940478189049952 1.5146682397720883 0.33799079382474045
P 6.8603560148266105 3.4236889827148977 12.924009650145846 2.100427760609518 -2.4788877181928988 1.2471930354694067
P 1.4667323367481888 2.1670659930795 1.17791384885667 -0.7800891541943726 0.13613039930839135 -0.8853616875816429
Ni 4.970010155535926 5.186613152453822 4.674954248750413 0.21763616929336713 0.1689379327567155 -0.19858609464045154
Ni 3.2057447048543506 3.754430362745621 8.605094265025878 2.48112637771543 -2.207193333602547 -0.14294253713421834
Ni 1.7515649076866875 2.1128782429964357 4.673897874380409 -0.15631381623480176 1.1397741451630952 -0.4525506660512077
Ni 2.169952059659547 4.737654045201938 10.063948195023341 -2.063722177658368 2.7424011096343546 2.834591613026686
Ni 2.9900204782092246 8.256157715242102 13.113211664937413 -0.5329133235706758 0.461086985656993 -0.6352864239229639
Ni 8.229248844468522 6.713083367323628 8.167174362442674 -1.2865581675305906 0.2844907650240714 -0.19096997285609046
Ni 0.39503961335735016 5.516503512851967 5.66515536717253 -0.828898976608224 -0.5907698295678278 0.8646319112334593
Ni 6.845879430859386 1.2576590135359276 11.865302376322543 0.9908080275426162 1.238075903659487 0.09271963642292419
Ni 2.8217220956535267 6.169920086830717 6.270481006718565 -1.8576618861280587 0.5682899032977569 1.0893599543766013
Ni 8.69843816842093 4.334992256004976 7.550273005850899 -1.8656356483621548 0.10924154533734735 -0.8425618188072973
Ni 6.977093707904158 1.864991024367899 9.383118613640844 0.6728458702339768 0.9190233415001463 0.5673982447214228
Ni 8.647737748788755 6.348014445374459 10.479637984769466 2.2489444493974045 -1.0564734880612257 0.19082676241000684
Ni 7.5439467849082895 7.316095528498926 0.244591367594976 -2.4267197779400917 -0.13523025609162515 -1.2173900931753614
Ni 4.798631451918831 7.26463659136815 6.684979368979079 -0.7657544827392554 -0.8062483290882437 -1.1526970238723504
Ni 2.9442596725313614 3.5753092305147463 12.280315975469302 0.7324391564165773 0.8298489992263192 0.86385749496128
Ni 1.793505375231347 0.03240534757442676 5.873027087664445 0.5365802308993017 2.5954350531630395 -1.0873370104093014
Ni 3.4897910076540546 2.2712973976435102 0.9748143134565703 0.48525869780719016 2.138403468522343 2.4259368770274805
Ni 0.6965651193931343 3.7237844057594147 11.771114853465631 -0.597640331435416 0.49599433905713936 -1.2291215226796768
Ni 1.9762803417542683 3.846173979222889 6.834540519276624 -1.4385646146392903 -0.05828048090844802 -1.8864003917133318
Ni 7.36959876279057 5.050126253772426 3.908613844677941 0.025338992985420878 0.46790426568914256 0.06129175693094606
Ni 1.94775268363611 4.3197479043257525 2.0608356174002713 -0.7477727014498541 -0.6541521504792153 0.3800859232225776
Ni 0.7457744046256176 2.798337556184427 8.56292161712494 1.1240109687915674 -2.721957497068022 0.4827989234127878
Ni 2.410013597753725 2.434175155148222 10.405934134460173 -1.3458359793553016 -1.4813595983176295 -0.269074173358685
Ni 4.864613224083819 5.2541674608964 10.116843690294765 0.8939987944313507 -1.0444250415371237 1.0832147607108118
Ni 4.833338252586577 8.939322975507492 0.7298214866001391 0.8329186392905785 0.9432518750302079 -2.216860681488982
P 0.4562575256225809 1.9411665316970281 6.428300747537476 1.126321876312931 0.3267486452520179 0.8665432693235592
Ni 2.537712793707413 8.393615886330245 7.925130503617393 0.9478340950842516 -0.4123031313850706 -0.06563769260446761
P 4.1114515990388885 0.9859247447684121 9.286736940166026 -0.318017178916291 0.2055239594108654 -0.11174348582359465
Ni 4.094995469404581 4.718006591945463 0.5281566592980053 -2.3760459057343084 -0.030169838715160945 2.1877671065571356
P 1.4189642347630496 7.112008070307964 11.19187851578615 1.2002254084706168 0.181911462198248 -0.05012211346737174
P 6.066086441442803 6.091025016762698 8.095907018342306 -0.08758720029236529 1.115249934769486 0.05755902936139119
P 0.889601347637999 7.581752407064227 6.135581444656195 -1.0031266970089692 -3.8016555028748273 -0.18816875596186947
Ni 8.054937823204392 4.020984512010488 1.6657516030186126 0.3374868576051284 1.4773116535005009 0.663997161594095
Ni 4.925988389976808 8.025170636490957 8.754045826260523 -0.340151291811169 1.2049189572915442 1.0604877514269413
Ni 9.15880278879204 1.389076795275446 11.498744170016362 1.0984986834530759 -0.35197039593328416 -0.42750297905396056
Ni 7.158370139856671 0.7676557844176096 3.6608024777992645 -1.162763664079733 1.4317031116327665 -1.0066231401980017
Ni 3.7256159480121376 5.804148148663333 2.6676505413033174 -0.38150028707160105 -0.007098815828310355 0.01504892391332247
Ni 3.7203525765889105 2.942169124303507 3.350619697044679 0.02515515910938894 0.19614611774039123 -0.6223365486305152
Ni 6.623393298220625 7.050595903561384 10.802006071632693 -1.8941471255382862 -1.6008716723430494 0.36285490405627185
Ni 3.9856024457647177 7.089826058580551 10.9100855649701 -1.1206322821273216 1.5449650909834167 0.49268790039172566
Ni 1.2003169406842857 5.89566050980566 8.067434861504532 0.3398594716023631 0.26029539872479046 0.4178418018151126
Ni 8.418887469332452 6.402960712956126 1.9801728315519729 0.7680592196130321 -1.024772814523835 0.9521046974351474
Ni 8.31462831412825 2.7757855359211097 4.858388755488583 0.24732983970305794 2.09305717917706 0.2870839796725443
Ni 7.198173808106488 1.849163909244628 1.0558582080968493 -1.959698686186851 -1.3050212593317845 0.7710676674220527
Ni 4.318758131492211 4.765386184967904 7.016567143535681 2.3629440782450275 -0.9598154358158437 -1.0157618692744765
Ni 7.130230990701211 8.360712877275027 2.1241015269117276 -0.9179010549702449 0.4549579899411197 0.7797135160225087
Ni 8.198639888335906 7.7598560158213665 4.538444224535524 0.587615343099246 -0.767913180953471 -0.20283561394542488
Ni 2.40470397526351 1.2890819884475306 12.95034223262476 -1.4621493439377657 -0.8630203437719653 -2.072713068303069
Ni 4.026534640049039 2.4839135525870475 5.695657945851073 0.8345116948093112 1.5485360961641266 -1.6241733231834674
Ni 2.5475642709758435 0.14543555512222175 10.812092504321422 -0.6556323345691677 -1.4826572340831305 -0.5723969834875949
Ni 0.7248393216641987 8.043689563712926 9.304810932123571 0.5426182095632656 -0.952715848656585 1.3774317518837116
Ni 7.032345232527946 3.9091124311800707 10.633409832205594 1.2254523013582057 0.05598037202036166 1.9696002615712789
Ni 2.838742488305087 7.413241269600385 4.513952434522732 0.7138338826105641 1.3624314218201374 -1.2163300273419633
Ni 6.561564871871153 3.9162350954962126 6.148281062629741 -0.2971634753957334 0.06409400226643155 0.18920568186681608
Ni 5.463139031761288 4.679701458266055 12.481512741973516 -1.2434489950459422 1.6285735091336921 -3.0359321304838236
Ni 7.710913136734734 1.7587245728564198 7.205051341767593 0.18598126139224747 1.1994638477142439 -0.6177676983129102
Ni 9.026487736352953 8.8978912696997 7.384627584497629 -0.2509864626190387 1.0816957529631241 -0.4063286589691905
P 0.24778176619580375 8.554236591765946 2.6642927138399934 -1.1185502027873122 -0.8751505513765961 0.31921916964419217
Ni 6.138682116187066 4.117251482839175 8.657353345615547 0.23494766398862119 -1.4550713540450617 -2.0561451366420584
P 3.12382481500532 0.563506349796884 3.936787219622971 0.6212782825693299 -0.19807650199388468 0.25479863727627733
Ni 3.5189754309234416 6.229731966659514 8.703628463158315 -1.22437346647173 0.31506066739112837 -0.9381088973766876
P 5.81128931340627 6.374525556971944 2.7107435854373163 0.8650049783021619 0.053417496389191875 0.5386463693997111
P 5.95281757838935 1.1987629048334913 5.510638877557897 0.4130970880412756 1.076109002903966 -0.11060217313029984
P 0.2387100819167902 4.269028984266783 3.6922125024121106 0.3400415057061821 0.21699699304747144 -0.38734209056435875
Ni 8.897539761590592 0.6415439250829471 4.875352721838418 2.0141855043808214 -1.5973652018516877 0.6379629423138626
