# total energy = -340857.7595849193 ev
CRYSTAL
PRIMVEC
9.39485529331446 0.00000000000000 0.00000000000000

0.00000000000000 9.39485529331446 0.00000000000000

0.00000000000000 0.00000000000000 13.75032036828641

PRIMCOORD
 96 1
Ni 8.003458177530034 1.591413276716423 7.259962506301461 0.2322590614128645 0.04918777457856045 -0.1985362152391226
Ni 7.180187034626825 3.3720107483962365 5.893882008099138 -1.0873444666084693 -1.3191906088536314 -0.12057856761672138
Ni 5.211589119712548 3.4794597049337694 7.559980624055814 -0.5507284973752258 -2.051004472981384 -1.6598846605421478
Ni 2.0622082500493635 7.6851510955637705 10.616512141838221 0.4190797879872718 -0.3253556215592332 0.37453028351167117
Ni 5.527246852571214 9.03707072883744 3.203618307014486 -1.116800309975741 -2.058530349044784 -1.5712705616471647
Ni 7.6118994111952185 7.690910141673546 6.5907209504690325 -1.4523488129075761 0.4571866221613223 -0.3467482283023964
Ni 5.530149862763581 0.18878491362625252 0.6823952923059967 2.6529136069954826 -2.5891379073004184 3.6141125534224146
Ni 6.494954496113403 7.327658073428054 1.8860218369666826 0.3796125831305849 -0.5052127723316138 -0.37326812896979583
Ni 9.217715000613577 0.9544890825691795 13.60338362831532 -3.853440091646286 -1.5828803779719514 0.032602616526369664
Ni 3.071403573233918 1.002252525345853 1.6387633458734718 0.12497361136062347 -0.4089085038812248 0.31805908789781995
Ni 4.815746299501619 4.566660509112565 5.3698849104349575 -0.7287969316782997 -0.11750687066993311 -0.9147437402881858
Ni 2.571334231747533 5.181685296274674 0.8317734866704952 0.28480829626449017 0.6413004913275278 -0.024306180845532335
Ni 5.058941515811015 2.353448754785178 1.391587529504186 0.7982303438797737 1.229451652325586 -0.06990443830062155
Ni 4.3834044676487975 6.53104013413567 2.0548342283665524 -1.0553830832105244 1.7227900418171167 -0.05022624314540382
Ni 0.09359906130909595 5.976179998338985 11.190546237187014 -0.1910414495239742 1.19280957562252 -1.373277620506022
Ni 1.7259569950493778 5.197919605699948 9.469089377678555 1.0107101657831818 0.44345101774278467 -0.056593837234644465
Ni 4.07148588707674 7.268263800171931 9.158139406656119 0.15973029811551848 0.5242276228712198 0.8494953127023369
Ni 0.9832655234080763 7.947586974895715 8.534699647878142 -1.9377802888472049 0.3270198966355336 0.4094476642141464
Ni 5.799857359858928 9.264294691661323 10.197484698479323 -0.6237704528635645 0.921513969132484 -2.0233113779414893
Ni 5.66669468520972 9.171858713400173 7.758783271559479 0.41560777027827134 2.0057180903397587 1.190862479198478
Ni 0.1899686653551787 3.642704705265689 4.779019932368934 0.41028018741777084 -0.23587788911237442 0.42457654943578493
Ni 2.38975986932724 6.733085885582393 12.95461627996582 0.7838133971234953 0.7631155024545115 -0.784238914696688
Ni 2.495555331386272 6.911353259045686 7.358813291550793 1.300156989260948 -0.8822529667493322 -1.12295681649544
Ni 5.787099146780501 8.636962644460379 12.162117045101697 -0.8648160022198073 -0.4930265146780671 3.306240433359925
P 9.378902527702364 8.48770658321077 10.58311249285802 0.28388527022958854 -0.059036128127549936 -0.7774835982507255
P 3.795136227502418 2.5271032544476553 11.29465062534758 -0.2905601111466028 0.016354272988307317 0.8355000268645095
P 6.288972300425249 5.5000205628059105 6.635340874765558 1.648228307250142 -0.62235017547727 -1.1615056233029157
P 6.912349113674783 1.6853524317762105 13.546828480237622 0.12402024630841865 0.34823561148120025 -1.1281702423755797
P 4.327561449579453 4.502681546620601 1.5639474181488375 1.9784219736279671 -2.147335223794334 0.283678296425105
P 4.690691384710056 6.800099386236605 4.317119068256425 2.352276828339168 -1.0577022182620042 -0.3322646899742407
P 7.689143908935149 8.929997566499566 1.0882859099303117 1.2666794263287928 0.13703337073863497 0.36628861232816917
P 3.3714940313717054 5.736094479031768 10.944457405540241 -0.5911534381594915 1.3903718569841474 -1.0454164589161157
Ni 1.4276797439249462 6.763027288440233 2.4461957027465466 2.5015424794779366 -0.3012849537632747 -0.11188463938714924
Ni 5.43656771219347 6.33143704498673 11.49632621950764 0.1806541927523792 1.6240751070427062 -1.219568845994235
Ni 0.6038759127437219 3.0555920322832613 9.664714685224101 0.04622560662644296 0.4460393472952512 1.5505690674337556
Ni 7.278767248052404 3.732932892603843 8.52798984244323 2.282081084050373 -0.4419893455955936 -0.22791132596713007
Ni 3.14655301831075 2.8988482716054444 6.353830621344416 -0.1276061638874641 0.35459806336411837 -2.0773757638860615
Ni 1.7549119381331129 4.623987914270563 11.925005936884784 0.61023719426382 -1.7540847381653404 0.47072065209201513
Ni 2.200462936103952 9.27507998519154 13.100094670023356 0.33104727262737177 0.10307835394942892 2.2477632846051097
Ni 1.2648199326476772 4.669092613084649 7.047918750172807 1.117730020878862 0.4227186702914397 -0.23209193970738096
Ni 3.2967579599144985 0.28084697665874264 6.765005844901438 0.1851842194122488 -0.7976616158604972 0.3992041321092673
Ni 4.882196108856342 3.745521998292423 9.886383470291525 -0.18950135873036397 -0.726948051395019 0.9013601198924283
Ni 3.3265772296574494 0.7377131379813177 4.501937474105276 -0.004785594314101436 0.20781172700377762 -1.1663385259151848
Ni 6.276364405026687 5.2405064833763175 3.57201687682431 -0.8441451041340172 0.6663864877618781 -0.2218080412828696
Ni 3.3750358917034924 2.149495847775184 8.388437726914317 -0.04763045739376958 -0.9452624777023335 2.6294702883708783
Ni 0.2382507041273819 2.0486702640066436 2.5004547482643282 -0.7217911897844279 -0.6572834970193454 -0.937036233137799
Ni 5.665266667251016 5.829667234746887 0.02347022673971007 -0.7201282002597081 2.234138237622507 1.0607716012159474
Ni 0.20521087809335245 6.730539879879703 6.462279190453043 1.7850133094233969 0.5634086639460555 -0.6239936246179641
Ni 7.879342748237619 5.362940233625257 5.32555434767217 2.0640124552052774 1.5660388809345804 -0.5752506508863061
Ni 2.9158059848650617 0.5536989317197376 11.185073734154479 0.6839846604596157 0.7507302414162813 -2.903151364373955
Ni 7.951664341962016 7.3437514600284555 3.9458334595077202 -0.5157396400048667 -0.2661605992563158 0.6154508772542755
Ni 0.4269858250221796 8.009452095014597 12.561205787712183 -1.456171786198092 -0.1980145384076977 0.8300480026110026
Ni 9.339077737393488 3.499226479835839 13.691688688836718 0.10827866720344577 -0.2320816552947358 0.46188659874015286
Ni 5.297148064119937 1.7817812234087396 3.6815928285319135 -0.1877452952712057 0.7400285387280611 0.9679421786880362
Ni 3.1946640707221086 3.125132748930181 13.705150576554006 -0.3699436925822532 -1.3378655595553153 -0.35083936765263446
Ni 1.248050116487889 0.8431412612101835 8.171471066770128 -2.190124293935402 2.6678023511818574 -0.1976039332328403
P 0.9477717612502727 9.017444876760242 6.458483669036485 1.0429548847495007 -1.6597795024228512 0.29683283152919204
P 6.393377323945543 1.9678933007899169 9.324765615299471 -0.6384342255233263 -1.2703579036216444 -1.2429753978436335
P 0.5824030321752001 5.4585516728735275 0.7328973353126861 -2.981035478445943 0.5569636796516602 -0.47136317077202045
P 0.4920959280551179 6.312327909934065 4.371061507160994 -0.38555260276410375 -2.696438526861311 -0.14114790712764078
P 3.694724017353502 5.071474252369647 7.199007747631254 -1.4165418305112958 -0.18321424017007157 0.312580581281752
P 7.642470269337487 9.221754788259911 4.788974720717903 0.4293909401052928 0.2432273874989101 0.9952735195131374
P 6.717584374846455 3.0694212588307166 2.9342086268223686 0.4139252403695258 -0.25773843663089163 0.5904772380280734
P 2.8776534787446697 9.247787931441298 8.91286135099511 2.0786451175167877 -0.9146105571444312 1.6900406153002379
Ni 3.4441914192957612 3.113821343520441 3.1769838931136465 -0.5439376997056374 0.3314599346847582 0.1561613498173375
Ni 6.676773124763474 2.603389476978456 11.28864167609503 -0.5238602122294721 0.983511750991519 1.7184603040935114
Ni 5.672294018784641 8.990152823009998 5.440534219970871 -1.3050904220068233 0.5876703647068976 0.502137732950716
Ni 0.08393927140685836 0.9544702928591965 5.109783652568396 -0.9655199423997888 1.8577883844035943 -0.4087385539622638
Ni 8.140660639825576 0.8337078873132404 11.219834697622947 -0.1000051143407439 -0.6798896644546355 2.228443244120259
Ni 7.89555826795291 0.16981951985495608 9.151044412166554 1.87211251433575 1.255433421101328 -1.132456014235127
Ni 7.46271850878554 4.491078900706126 1.7426742000212139 2.6598980087331157 2.1742405328256105 -0.6392878317728732
Ni 7.14131112467209 5.074273919157108 10.535701357143527 0.8700021744064371 -0.11260351983104479 0.4936731471231304
Ni 0.5542278620557579 9.118195301688852 1.776664785380381 0.507386640054481 -0.3672206372241353 0.17639207504191556
Ni 5.073954494087396 7.227433760378968 6.880522163420152 -1.5819756067694948 -1.4056143849655147 -0.8023073421626247
Ni 5.661969073149007 5.4205588792879915 8.557195628155236 -0.3411504224996447 3.160521361921834 2.1063569816097596
Ni 6.399859773889663 3.818651549546087 13.717401467462896 0.26616394169042545 -2.630002249614948 -1.6793206577795723
Ni 8.064393207004759 5.5671374068650294 12.982597916072438 -0.2418459337703512 0.13739641050500853 0.8996323385680441
Ni 1.0844011373913358 4.148232457502123 2.574086924260036 0.14587076652460684 1.230599906997416 -0.0567344765775668
Ni 0.7700643211444718 1.8284736527163847 11.728280491819733 1.1824418592349508 1.2185864274763076 -0.10385071333907922
Ni 4.47584984076494 4.497627114635186 12.265037681533338 -0.6231608443040235 -1.9639857435979788 0.3099410867763759
Ni 4.485357434016316 1.1301634760548245 12.949363616540085 -1.8260550578560553 2.1570848469819306 -2.8654322525566265
Ni 2.959059897245826 5.537787879871652 3.675185537427726 -0.12994843886739557 -0.9907105827328034 1.1591962584434488
Ni 1.0395782842269947 8.333020295776086 4.253249086082362 -1.4279014784984891 1.2796933220899573 -0.3666295406073557
Ni 7.490066931665732 7.583977902160545 11.199869691280558 1.0915919290309137 -0.9312900746826412 -1.0559348419489363
Ni 7.465518175573001 0.9073616714754289 2.9793368127739326 0.7900637489085813 0.5189949137173706 -1.0159773277193922
Ni 3.0304701900360493 7.745165429249332 4.9926589348751405 0.3887019470263628 0.3444833435276196 1.5246592895465292
Ni 8.786331443969885 6.955358759825769 1.9195173134677987 -1.9006412179030625 -0.6144538034483289 -2.4396899649475143
Ni 9.028596569635127 5.95593408583235 8.631392434935933 -1.2009031512639317 -0.3451657143066249 0.3333432677504001
P 8.842888471018583 3.9075362726204594 11.569505563492758 -0.029397993546142916 -0.5182266680927785 -0.6847122826542594
P 1.7031556819850613 2.0244785124035882 3.9894631660881434 -0.06797174005428293 1.438542503152103 0.6641488566806111
P 1.4688292087876198 1.8387516240770616 0.5098249589095359 1.1987668216472191 0.8598673999652803 0.4735100419116942
P 7.096892250272383 7.798265149661165 8.696953491008461 -1.602280379765118 -2.8676660269831515 0.47060649511165403
P 0.11823612903874757 3.1101103757988073 7.7029289796641445 -1.4046484215078197 -0.9665491549952515 -1.464917393601206
P 2.709692261207028 8.473379429348766 2.6816561349414596 0.27605857509631815 0.8363217514348564 0.4554249022752092
P 4.149077994451356 8.106764003016325 13.663197851589562 -0.16917061759281188 -0.5566985989157316 -0.8180988006689265
P 5.344084759657361 1.7975833695044054 5.813539087183017 -0.6093481067906473 0.3571516830239075 1.6712409660952314
