# total energy = -340861.0608543634 ev
CRYSTAL
PRIMVEC
9.37211580823234 0.00000000000000 0.00000000000000

0.00000000000000 9.37211580823234 0.00000000000000

0.00000000000000 0.00000000000000 13.71703883333472

PRIMCOORD
 96 1
Ni 7.585528042632073 0.9801733502155161 0.8545710670021825 1.8553800320724174 1.6693347502114542 -1.780089389759218
Ni 0.7941743416828808 5.595584200764677 1.8469581584209505 -0.26161386042589785 1.081377964612389 0.5223340053929327
Ni 5.229949850271697 7.991546839752441 13.810314855371134 2.4904155163268396 -0.879709117281556 0.10829357960178124
Ni 2.624436075952824 4.991092109091472 9.13557476348291 -0.5285997837969864 0.7046005369377543 -1.0755883545138056
Ni 6.030300416212514 3.8832424264543044 10.46711529243442 0.364872705817249 0.3341742482921277 -1.4107432215516478
Ni 0.7427158031235093 3.133032679602956 9.326969299034202 -0.14601680518416787 -0.5126314333931881 0.34960112437015917
Ni 3.222836292409552 2.0113310099350903 12.448638288329498 1.593860788242855 1.4282830302076241 1.0432212510370098
Ni 7.310615772286019 8.04297163869523 5.957858647772879 0.8358314420619992 0.21106777204723004 0.5248156341642057
Ni 3.9700188458840975 3.145385128118829 9.451863050299282 -0.9891463235694771 0.5374171249783002 -1.7633674490188471
Ni 6.462055043093571 6.085427200863777 1.075837346980364 0.3353307304940741 0.14605974260696136 -0.2426370622130789
Ni 5.480607085140453 0.22976491451095343 7.007857071719661 0.7585859900152743 -1.9325015569467685 -1.495021154965122
Ni 6.23534356388343 0.4220516754785653 9.110788329044423 1.3583042870256414 0.39255963020955614 0.6216878593029228
Ni 9.18434537925446 5.548948552953613 4.534166791027502 0.3973750493203285 0.23373641728933942 -0.40651609238964825
Ni 5.289650227393176 7.683344814377267 11.556440051144063 -0.16430249086723317 2.9643626457759527 -2.8197324365266665
Ni 2.353647536522539 3.8415927442050335 11.229851809153988 -0.2586308665381739 0.6228561685794112 0.2354667697168848
Ni 0.44583529353526535 1.544365344302794 2.1796373384159313 0.7977868285844518 -1.3996597100439767 -0.6773381016773754
Ni 4.917736559369365 1.6415260679477517 10.61187136853993 0.4592177936587381 -2.1273562095692458 1.1670854313835384
Ni 8.067948327082787 4.767932661738324 11.727821370791867 0.3071151872918066 1.707550084938911 0.12436014614634067
Ni 2.7302753787523324 5.8461664587076925 6.41057588587962 -0.7964426558517316 0.1931070738037513 -0.030210462145109265
Ni 3.8462975462952977 -0.05951480923027013 1.1750083894467593 -1.4242787941442374 0.6939520560849726 2.712334629266277
Ni 5.357204437486053 2.6067602657093216 7.081640927130064 -0.38126554535297563 -0.07303604195106776 -0.3321816433421311
Ni 6.745289752196904 0.31023202563961916 12.023971792565705 -0.6430706958540732 0.6448871802375216 0.5680294505475185
Ni 5.724150884179506 4.860950910236077 8.002932085926252 0.2646930135718539 -1.6074727225993348 0.9929500135862833
Ni 1.8950043096475226 4.005867188504139 5.209621731280097 -1.284045428411066 -0.016916316139364417 1.2758402668924542
P 7.879981174249444 3.2223395702765165 13.310588959247763 -1.7577860982763274 -0.3941025492166439 -0.7887440016558933
P 2.469102630048365 7.241393325595399 8.054178814670406 -0.4196415740280128 0.3750653300795347 -0.1679218327873753
P 3.707131000003798 1.1780093408995533 6.336997279803433 0.7800606149492824 1.7589176407776095 -0.07679268078002259
P 3.834132540093778 8.92646224316739 10.435333510824268 -1.0048984441974114 1.5097034395676452 0.8092485493671482
P 2.5452885587172047 1.0511671267767735 2.6417922970503542 0.6677792543443467 -0.965068456684667 -1.1915006270031092
P 0.008909133201205439 0.9309875497176767 11.042161133734316 -1.0516020189015374 0.21248213589625342 -0.30954873643396363
P 7.303408615299141 7.854104762752991 8.248205977526785 -0.11644166263021236 -0.2927059538450121 0.25958834535543684
P 7.392125062682489 7.220409158503564 12.297819390566236 -0.3568169253923081 -1.3123062230289722 1.8874288329778461
Ni 3.9588285397172136 2.7301722854794384 1.056074366566539 1.6240967043092611 -1.6639835132018697 -0.19223007051543667
Ni 4.800378926352855 7.816663160460949 8.986690270403772 -0.043867905027543806 -1.5543341909031425 -1.2707420264339406
Ni 1.7800646824861681 1.8119954807362282 4.466062437741999 0.304630730307056 -1.0130043611339972 -0.021966219858446042
Ni 2.8509038801543056 5.992493301407483 12.282674988778073 1.7180566408971896 1.1759832480938006 -0.22640980172093908
Ni 1.9264946184588525 3.5553402138406134 1.4453920534780411 3.608173305119844 -0.31497222144238013 1.6155475291876693
Ni 7.641957551368091 8.200516903909056 1.4795749711350543 -0.8963804072896498 -1.3437243323289374 -0.7002288902326199
Ni 9.314711508887077 3.5855465427986246 1.0664567963585603 -5.19495713191126 -0.4364460471798612 0.35632918712261213
Ni 5.846831878923647 0.9827131935750014 2.167292387592633 -2.1271988580557752 0.0028559813915563716 0.2894535083459854
Ni 3.0496958266415435 8.55133393945242 6.113656950616933 1.9122860012308422 -4.005520843636347 -0.16450200847254898
Ni 4.6573510683856805 1.5596418929225762 4.482138427832497 -1.9780033980333096 -1.1491208764853178 -0.29460882729467974
Ni 8.856443166640767 6.134049737206985 0.18198961742862135 -2.71567037850773 1.6698327728937954 -0.6323705358277496
Ni 3.889887256498124 4.0065513529515275 3.9792719357321413 1.9137278758836913 -1.6990052806926932 1.2902106766815133
Ni 6.5681005324388675 6.218248824814422 9.712952387173363 -0.008651762137727035 0.3254206704692138 0.377753161324343
Ni 7.933795862700234 5.721892204291551 7.384746395977976 -1.2162330967527828 1.6857306750709744 -0.29967415763272903
Ni 0.5449772824429359 8.645711144729233 1.2676489416810905 0.32748809452120375 -0.5012627865449303 0.13558995342388905
Ni 5.00466293265064 6.206280633042973 3.7858342789544004 -0.2470886702265293 0.681766055541742 1.7787187346639364
Ni 6.439018382659568 3.246041650926473 1.4044462171191665 0.47379929101733886 0.18090384686934005 -1.650133751802971
Ni 2.3808829047980526 7.060548980707476 10.244680309626244 0.7846808873301132 0.6484784971332057 -0.8482935790847519
Ni 7.556858740651758 0.14893885135030138 3.281773779311615 2.1848260216509403 -0.5804000562977294 1.2673705388585463
Ni 2.3324665550006327 5.394899086902472 3.2991674888720155 0.5258713291222298 1.6898156437736254 1.2698683655797356
Ni 7.895173373827768 8.059944540259908 10.494096676373982 0.2900698017737456 1.8152170867002866 -0.7223992556820721
Ni 0.6443779417444139 5.014138141641192 7.699140578207807 1.2313743232695955 -0.8319531900535155 -0.6130337831723507
Ni 3.319706480467263 8.638672685825272 12.649044113143317 1.588030297604007 0.7594701923924404 -0.8459186510946721
Ni 3.5648622834097536 0.5956410655894501 8.445663334735828 -0.6237226303447646 0.4227045292240527 1.004616137070302
P 3.585452821641448 4.307405639604058 13.34944949985946 0.1508211685513467 -0.7293384060040664 0.41459758384620204
P 4.549562365516898 4.449758705239561 6.18997877496368 -1.2784818182803594 -1.51004513917778 -1.2062235350355806
P 8.728120158234598 4.007825960689129 6.033247009394145 0.8494305209026726 -0.3577749184302032 1.6019993581895895
P 6.928317800047043 2.776854793869092 8.563725750854308 -0.482369292074537 0.19022846670437563 1.9768975665636404
P 4.313028909034653 5.306210755866277 10.517251425466029 0.2199529903520018 -0.037481798995541896 -0.5887432860561023
P 1.8086121469621539 7.606634047228239 13.577838587783061 -1.9421681335022551 -0.5966124043915338 0.0871935643983724
P 1.6326225580159768 7.208037965756255 4.747480830819251 -0.19631401077682317 -1.254287480422343 0.02033768311608755
P 5.926410513482279 2.789582127013671 3.469724999548238 0.6355188516487442 1.3903518023794894 0.015824368626766293
Ni 3.267916169011486 8.02516461883168 3.56671796232185 0.09463176584397251 0.6796135279751134 -0.5072038346197135
Ni 4.930566985786839 6.415569349133988 6.515167760077109 1.5070788574606044 2.6083949557578174 0.33324530871995506
Ni 6.8746436933320165 4.928992470346271 3.113012903218467 0.7331899185396729 -0.6396701548129563 0.6850359845422654
Ni 1.2031078667914408 4.823303121398245 13.33409984873708 0.9858319144842633 -0.5366524788981338 -1.0267926731673414
Ni 0.7251280907677529 8.908280338675134 3.668718446523406 -0.023324790768869504 0.29327262498175943 0.629471874123716
Ni 6.848233071239657 1.1786279005369187 5.199786633045988 -0.1535617074109613 0.09308370463056226 -0.7353092788755208
Ni 6.740153832783628 4.460002427718962 5.567965512956312 -1.0115771417691675 0.011024890355593916 -0.6427696196738866
Ni 5.5654153602695375 5.777787502431662 12.287311374423597 0.5170555306028127 -3.7274532085298 1.7258002893983504
Ni 8.081041172740354 2.656526200170084 10.925950647681647 -1.561285425409995 -1.5643370677521253 -1.3355564518061644
Ni 5.598227137397057 2.9799954020493233 12.52126937350663 0.506640763027392 -0.06722714857877454 1.7335436807891953
Ni 8.901335600928348 8.740350769246142 12.794280041573572 -0.4897162193579114 0.6201986763519061 0.7508685667663585
Ni 1.464983524174233 8.858626869602983 11.408776744742935 -0.1517861035677773 -1.3329714646878077 0.026340694777057864
Ni 2.149532228307671 1.470709886877722 10.687013243517821 0.6630787635448837 1.2637632811232622 -2.020834891376539
Ni 3.302855416406914 6.4155506049025535 1.0713771571103305 -0.7511971537503708 0.9146342112935151 -0.3766046495421966
Ni 0.41371236691299346 2.6702094891178643 12.473726504894096 1.44353095750563 -0.7126393480818307 0.08576917324702003
Ni 0.49665933986055144 6.722084393679984 11.842810670166525 -0.2614397967418788 -0.7781209747244083 -1.0866993768253026
Ni 0.6036907757793463 7.438517035484894 6.721102195952773 0.2546968215910904 0.37888444671530874 -0.475802951710929
Ni 4.67131552080499 4.8626660074124075 1.9416193388040086 -0.24959883824289275 -1.213936330298806 -0.5546067493837094
Ni 1.7269435305984844 0.7620804686193338 6.58305374306639 -4.401859224162045 1.814070117580037 1.6490577451299726
Ni 8.070853682955262 2.5269379561420307 3.13667562098241 -1.0695454907538355 0.9308337038715131 0.931105469475661
Ni 0.9829849849308135 0.272788548924433 9.071571648035455 -0.4669272464878539 -0.4023061680733588 -0.6483435142172382
Ni 0.14707661195720276 7.16372660264317 9.107949515193544 0.1459119041751874 0.30487832754148786 -0.8281405011756447
Ni 1.9371694582612646 0.9644281958098512 0.17132414974192686 -1.484404041570908 -0.30588465731881515 1.1583223404789276
Ni 8.024714757277232 1.918790739338938 6.940217575373752 1.2234859216604543 0.8503180657139485 0.6398946121189367
P 8.339964613672086 6.505822823495032 2.5886383427576587 -0.1755184141877106 -0.25779345823854316 -0.3192993880628243
P 9.00635952966042 0.4997793171829597 5.440232010628784 0.0326075016223761 -0.6229034768775787 -0.12458306079042415
P 0.2289551637129478 5.232555298441206 9.921602862184004 0.13797645137819464 -0.8692138741771868 0.8883616507502314
P 4.902375661708124 0.9507636510935061 13.315705197218033 1.2794511241721642 -0.0419424058700568 -0.18006463879749635
P 0.7016125152205778 3.3844959164234307 3.386627135537626 0.2709744757051914 1.6248775483393436 -0.12613009356256988
P 2.1925689836831554 3.159208998802374 7.620693158016297 -0.07335717273591238 0.5480915739730109 0.28669060088886755
P 5.318347645720644 8.008735299978625 5.180637526211669 -0.8282286900140768 1.0761177446547143 -0.6897416175480507
P 5.004044373013275 7.614825276365472 2.2469741154241585 0.2834481826921699 0.09347399809044547 -1.7042068794982907
