# total energy = -381166.42435091425 ev
CRYSTAL
PRIMVEC
9.22345083376797 0.00000000000000 0.00000000000000

0.00000000000000 9.22345083376797 0.00000000000000

0.00000000000000 0.00000000000000 13.49945261591092

PRIMCOORD
 96 1
Ni 0.3282220304131132 1.6510530320165948 0.32006019880952735 0.8249471910493276 0.2433304887356777 -1.2421495595082286
Ni 3.9259157112761778 5.11909819920281 9.242616197847124 0.14610499402259997 -0.3617393023945899 0.5528959373401897
Ni 5.832670469528743 6.34665648822173 7.630066461151095 0.6909664910940875 0.04647808895688124 0.761662829168385
Ni 9.170203808044217 1.800371476847029 4.842996044510731 -0.8461004280881751 0.45227632934389844 -0.20274999621015408
Ni 4.894571736635187 0.023718103705075103 9.971384103348676 -1.9989815429468738 -0.16429426333711705 -0.20086589181356374
Ni 3.7772613549025844 7.398259006530278 8.7821769227123 0.5651948093122008 -0.14261677836368344 -1.8501534935661557
Ni 6.071825325048437 5.639466845842098 0.9114060663088824 -1.1765512047821285 0.48839724343617175 1.2741001442728959
Ni 8.151897947085589 5.47456076917749 6.888311936937993 -1.3602089602475218 1.6105858143070197 -0.48853068369024255
Ni 6.083336191633673 1.0547384915769622 2.60694656851824 -0.45145229078070637 0.15277597828487238 0.7847256245251195
Ni 7.882471726074915 1.7653039169455333 7.143518363866569 0.01337539286564148 -0.3110667157403868 -1.1741829616602681
Ni 2.6202901347753396 7.286249420143176 1.6055841866598346 0.6788967044137469 0.5327161199582051 -0.7519566576242146
Ni 3.706065538258807 5.050669417795868 1.921471696332214 0.6221272608331867 -0.2120666456253896 0.26921712669445247
Ni 1.0239044955878251 0.9524780926743109 7.075643911852072 -2.43624211560823 0.3092540880116803 -0.6407579885604965
Ni 5.242932249501989 0.6704249675328773 12.350959697075828 0.44292419870503724 1.4600896331952595 -1.0883824209546804
Ni 7.330549654284913 3.9071644358212225 8.364760433784872 -2.0239605814897144 -0.8737261602252436 -0.030585328986024743
Ni 5.950952002452672 7.464981449541171 12.60044297278955 2.090500731303793 -1.3109995884024066 -1.3919497429942287
Ni 4.613560861432961 4.263069731433797 7.212339141932063 0.6049299231182936 -1.748747385112827 0.4297591220779889
Ni 7.13107408406144 7.355702004587748 2.0935628411618046 -0.0797903299557658 1.3907323256473596 1.491200238557135
Ni 6.1502984443650925 5.289031056547668 3.5234384455924257 -1.15591938746439 0.9088754544328669 0.061516728457558574
Ni 0.767665964515909 3.4792147660922415 3.0269151862791084 -3.5982311063054677 0.8876625678006778 0.06001186177725794
Ni 0.41909515697110733 3.7016751756830275 6.6858202983063695 -0.8942312221571309 -1.025980204568375 0.5958829824246771
Ni 6.665621863422549 1.5306593288618815 9.826670005152337 1.5322998368109224 1.4086868532432515 -0.43308407268616383
Ni 0.1367653283059901 7.563570915029621 10.4295147487509 -1.6048067457313975 0.6201994476828545 0.6753087299521725
Ni 2.8001013079157007 6.135780732822495 6.761133463382558 4.072282879653245 0.41093813271674384 2.215815013833287
P 7.407233424148415 1.406382552924809 12.272945905608488 0.8445209994161972 -0.07609334072015282 -0.49526388864901805
Ni 5.178183624960038 8.458937400415648 6.523394407559046 -0.8214070391065531 -0.8364281951057336 -1.26088775934768
P 7.853297951227879 6.765456494767574 8.994914892825923 0.14958858169582623 0.4633356724818537 -1.4650986563740767
Ni 4.603378171761407 2.6117307724427286 9.154141168494387 0.15071395354952108 -0.4716894437631876 -2.5894418116940825
P 2.0770104363750543 0.20774623854637375 1.1815526388262128 1.116885670600696 -0.8031468073447846 -2.3726412509281327
P 3.3436946036428274 1.3686678626467408 10.649056858511905 -0.8573698303544073 0.36372265137320586 -0.13767948896306612
P 8.33508490321489 6.9495842428774 12.672516861948482 -1.578087070348366 0.5687030795757755 -1.0024718370337897
Ni 2.798736237198862 0.08164875342346348 12.317156672277566 -0.16045483498636884 0.10762612122111141 1.1742732073812292
Ni 5.976897569523399 3.346775236206504 5.150837938059472 0.7078180154337874 0.3760449203839846 0.7257437466742727
Ni 8.30074599592576 5.6683085764607135 1.375377923096067 -0.40974616929117175 -0.51565042272517 1.4094610124051146
Ni 2.7198111687935236 8.820635023123996 7.391072093675137 0.3496564030881269 -2.138471859866433 -0.0667268119035883
Ni 4.553230269819157 1.5013656491545828 5.018097723677998 -0.05928321114134951 -1.6636423278123673 -0.7358286417141006
Ni 6.969599131090509 5.183321087049763 12.427042097947856 -0.10854811881474855 -0.627122914275565 -1.4314542288467542
Ni 3.9334236002187914 7.199936367655487 10.917628065634398 1.9203813766444668 -0.3198650307583072 0.7723215944338119
Ni 4.852780281108181 5.72791973891294 5.668055853909083 -0.1467549689017731 0.781787367832402 -2.2887330421492518
Ni 1.432724728379483 7.949028146971599 3.605326086391336 -2.48200569499659 -0.5918450649098774 -1.1285564220704047
Ni 2.1061288705173533 7.0676259660808025 11.906072082317095 -2.7718944911077807 0.32028026391885484 2.31806161591004
Ni 3.181048272421636 7.441766023904122 4.625412073352328 3.237493248592198 -0.7179520185439958 1.5074750644577586
Ni 6.836108127814774 6.902950475685931 5.221318014921988 -1.2348268005945702 -0.47517328854673 -1.0689690494250752
Ni 4.138433240915935 2.989274283607356 3.4875158718027484 -1.2372096990044499 0.4423174183589737 -1.2191374148837713
Ni 8.52364913115444 5.71127141023798 3.81258255970079 0.7816984076630216 0.48257575165838823 0.4705288477961832
Ni 3.9653736337534524 1.2650885102811982 7.046673975267484 1.513751898605406 1.6927153339189234 1.4994835616118498
Ni 6.798725481765127 0.6523387028798414 5.140240193102392 -0.22180289907654707 1.1000084352293829 0.20003002617582968
Ni 2.1566457104911803 2.9125720668422748 1.4774068133839031 0.9792735445404552 1.8636073050782163 -1.3769195881339835
Ni 6.9938383597651885 8.72888935812132 10.843934538516837 1.875122504806667 0.30868638843366836 1.383678504124372
Ni 8.430114116698611 1.0816894147837401 2.1891795884608136 -0.7703089348791573 0.4936916590658917 1.206040215380181
Ni 1.9822671498658062 0.47706546752789036 4.908981533803548 2.1550719303169594 2.1737509947837017 0.9956162475645368
Ni 1.6249967835363939 2.875954967208152 10.727299391558825 -0.15476601213170765 1.5533831398437827 -0.6347107539251521
Ni 3.7996005527146366 0.24629472877580827 2.966760762575383 -0.5402623077365792 -0.8074598328978416 0.26425232649000946
Ni 8.057468257903182 8.28680013833211 6.344553541441735 1.9234037084105584 0.9876070041068153 2.18168079115374
Ni 0.3248923646781211 8.165557877704767 1.6626469096589358 -1.3481237469482137 -0.5485865113315584 0.9271248875613582
Ni 0.43941903078566424 0.974162425480312 11.233488827299487 -1.2772196637384843 -0.01423748375562064 -0.8802117679495873
P 1.2840058078503636 8.041834508815063 5.859977417935993 -1.1896255214675835 -1.2214516648392448 0.7158298299946705
Ni 2.5749937679483423 3.216374088945236 6.438415066055511 1.4338486972208597 0.2071383550858368 -0.13688604652749328
P 5.9170281504490685 2.398512260542973 7.257225065198929 -1.787303133898838 0.25357710616435036 -0.3453032683257537
Ni 8.271101825088463 8.544171309160971 4.0216625092313185 0.8488185983502865 -0.40812817407177454 -1.3099387512380603
P 6.17909405772976 4.037565583082491 10.185809042611693 0.21442614699650167 0.6813469657264524 0.561890170419
P 1.9574283968898127 2.7999168388999114 4.451349877089032 1.8311823517802917 -0.6022498051829693 1.504196393706487
P 5.691653130408816 3.6103353425150875 2.2238191802456786 -0.8997935467362568 0.2882384049919616 -1.142639125415716
Ni 0.746551640968696 6.206478483123642 0.23899436747595723 3.308338710649851 -0.071252981908716 -0.743319807884823
Ni 3.938109113219833 1.5247563203566323 1.0030742543249274 0.7595979762195563 -0.316223577350978 -0.5144124365530108
Ni 0.0834869871658012 2.68051004497967 8.860189791834559 -0.2236124414814601 -1.1038941434370342 0.639055661157409
Ni 0.9797426132079302 5.860294704643151 6.025858413349047 -2.8836300065115754 -0.11697336676396629 -3.1540936040186196
Ni 1.5759095784349317 5.449915708668075 2.520658419347682 -1.7042019944022844 1.8100144594534244 -0.8967084800530298
Ni 3.9841156857576183 6.297228015441058 13.050352756503134 0.27650337594322055 -0.1356192639999277 1.991463380192957
Ni 0.8796331230293791 7.359096234478266 7.960776056242123 -1.0623093780167123 0.14554603619533643 0.808870082981807
Ni 2.7167582065822153 2.594897974751979 12.72000748771829 0.8424972841179491 -0.9776450077980967 0.05475267026084764
Ni 8.351733231889849 3.50229183996745 0.9972920730250201 0.4298370265037758 -0.6648535960571196 -1.0579264184576682
Ni 4.6662728826946775 4.039825328525907 0.13418276208494365 -1.0977044696865548 -0.9791619586632556 -1.3678662196824636
Ni 6.449285825155959 8.62274588643631 8.404732102471119 1.753970066964347 0.16268552408910045 -0.03104967021695298
Ni 3.086019058937915 4.733567179654519 11.639767999398654 -0.951608217414703 0.8266564604309505 0.2116555262299
Ni 2.8812400045105075 4.956580996292671 4.236506193160175 0.4225623472192336 -0.4767444896885918 1.6145597113531032
Ni 6.976867210312597 9.159357029915821 0.6248878686402752 0.6063298887896138 0.432928520944906 -0.8715039557629443
Ni 2.3174842453576394 2.0187182273857194 8.538957292429693 1.1991491446873026 -0.14692106216599213 1.4658327063266239
Ni 9.146342740851905 5.053196643312178 9.144704655991697 -0.609803192050195 0.11909272709981426 -0.19690870693802864
Ni 1.4926956054124982 1.2246897958233998 2.831996000745625 -0.9561241030071858 -0.25686991798300923 1.015821004647186
Ni 4.635927729597381 8.460975783040116 0.4203901294619463 -2.01525816861971 -0.07127252229274177 3.0803052572825593
Ni 6.204587675711805 2.4116556779179414 0.5490065389954558 1.179875384059355 -1.1202355609095351 -0.966708049170619
Ni 8.159405836028203 3.287754374604803 10.976755919265257 -0.856837354889705 -1.2199701951977118 0.19282888044170016
Ni 0.05589780116439321 5.140920883770653 11.601578301404928 0.9902125600504624 0.8492065778173246 0.34157156919746334
Ni 0.42708727708016725 8.70904049202242 12.997853796954654 0.18042639301228924 -1.1494044691640075 -1.2197961315136927
Ni 2.1744100767116645 8.700038404051915 10.064179397051195 0.20967783367823886 0.6630453392037872 -0.9405177639284964
Ni 4.593859570546693 3.0795626433852985 11.263565577978811 0.8775015681072759 -0.056519018132651054 2.797502678594189
Ni 6.045990439387182 6.819727279212708 10.062708256650275 -0.6534227285123585 -1.5229435924070032 0.1934719133423378
P 5.360743386435655 8.56236917756856 4.213746405992125 -0.1756657383988523 -0.6181137687984193 -0.193944224993066
Ni 1.7521604995705646 6.031408163689059 9.987097174113588 2.3598656964300195 -0.5708386378615394 -1.2302538365119071
P 1.8558228629932125 4.169922101911124 8.607669233775871 0.99514650701697 0.06921101177802273 -0.1707186788062221
Ni 7.565978235685668 3.5698905108033414 3.139122154513104 1.2250787200688709 -1.9846625552210402 0.17806894852370622
P 8.143061881229293 3.940414975917196 5.165336280355411 -0.021409576024027644 0.4051896602687409 0.34638981652171313
P 8.719435321062132 0.5318859696400756 8.666594171489363 -0.010071268193072977 -0.7619993865721973 1.2576129452511504
P 1.2505154580338644 4.075123474697138 13.108913367910445 -0.48436961033401743 -0.14563988146072337 0.21085077094041751
Ni 4.864152795931575 7.013189159521458 2.532646138338732 -0.5454798473817767 1.5414719902284937 0.7501774542366049
