# total energy = -381166.6344056545 ev
CRYSTAL
PRIMVEC
9.28032681786351 0.00000000000000 0.00000000000000
0.00000000000000 9.28032681786351 0.00000000000000
0.00000000000000 0.00000000000000 13.58269636775408
PRIMCOORD
 96 1
Ni 6.792363955841647 6.466643047366383 8.31096692911605 -1.3805286456414805 -0.42586467211958906 -0.02553131150188506
Ni 8.401080757980273 6.759687925334455 12.260596969674822 0.24059997717839204 -0.37897314977437313 -0.232263946508871
Ni 7.705529547959403 5.650698158342447 10.402117805524526 0.12418094025599903 0.18168571934068709 -0.9907249809105066
Ni 5.286241165988451 4.673377667361808 1.021263766202054 -0.49992632712169377 -0.07229736401283032 -0.06603441382225402
Ni 8.32201237402081 8.049996716481393 7.901231222520479 0.3515060547023559 0.410986469456176 -0.25373497189845334
Ni 7.419658362573568 4.1952923542097285 8.599951664128456 -0.3402322815607495 -0.8463701368097939 1.1822595680208154
Ni 5.248414554131787 9.211216162455075 5.0444506046600175 -0.7231111941474321 -0.5747107192224361 0.19105970435641934
Ni 0.26246898540571956 8.83149303258778 13.071266920970759 0.6056176932139377 0.41000507937951325 0.4169611989823722
Ni 8.487981737721636 2.6778568460412053 4.829463483067702 -0.21776138201732173 1.127847054708206 -0.44346567303080403
Ni 2.641023229147413 9.057246261249505 11.468576763027352 0.2602987411589001 -0.12775477365018645 -2.3553783500826277
Ni 8.425033281337008 2.6665719687061458 10.030821212351501 0.422541264173311 0.6486972980122312 -0.3057329622322993
Ni 0.27621593342909434 0.6061027805850389 10.929588377507624 0.3533215106445399 -1.2265349928994234 -0.9633159927699345
Ni 6.387259132297223 2.1091027404849063 11.421051281678196 -0.6881938134449568 1.8079372652094217 -0.15961588402484125
Ni 3.023929511091951 7.445773202064404 5.326862084231287 -0.41378897190197766 -0.16414951022913665 -2.9514593074507234
Ni 3.8991292864517058 6.838468619164489 11.004673645223496 -0.38109225299990496 -0.942722227778983 1.6998334330209437
Ni 7.651026188922557 0.6589143360543017 8.99963677684749 0.4758818845779804 0.6215557046004327 0.9289480568130261
Ni 4.978589053706741 4.32560670251475 4.589484441522001 1.3488575397904448 -0.5383663762654469 0.46883011993752155
Ni 5.953440977770335 9.081347269834332 7.652002479297266 -0.7478611473986023 0.21075872544724347 -0.6998918186081753
Ni 3.1541881774364375 2.9532783835000034 5.79315581420744 0.013848475847318084 1.7509153392984234 2.239186855790008
Ni 1.846757183425039 4.579154509810113 1.9695451867311022 -1.1590317078411263 -0.0685450960592497 -0.4896257165266342
Ni -0.03852913259207794 3.2031511814000675 2.517553121824798 0.08756251770201695 -2.4479457771984032 -0.848205647356636
Ni 8.891926520421585 5.111492613176633 3.6543022022087728 0.2821425765068689 0.34160782175203747 0.5084078822301438
Ni 1.738158799728602 2.673866305536209 3.8787292721770936 -0.6683171291256877 1.3959488368512925 -0.14934561244708472
Ni 6.251970528851088 0.44502600514987306 1.300425275343441 0.512107442568918 1.5787876959598166 -1.5807309357291162
P 1.753972476520495 1.0634419232745147 1.4345770387619883 -2.2035631930491277 -1.4009393480873487 3.490424493642434
Ni 6.154239407785701 3.642119917276427 6.587267806505668 -0.808352262805124 -0.5023382789972961 0.18365801257570952
P 3.9565837893968983 5.81835654151283 8.519284279868968 0.6901583933704953 0.8134286488867668 0.6076390945193405
Ni 8.695545525941984 2.2510917398487313 12.346616318374384 0.510112009405444 -0.046091395041423844 1.7745296362832537
P 6.939763385704107 5.918639752436065 0.3247826674402515 0.2897872375363203 -0.9838961309141312 0.013703208518705432
P 3.485208152489266 4.11570427195194 3.2821230499612706 0.5969864999015009 -2.19070227792606 -2.6397847829230088
P 8.683778071615622 7.720953451027551 3.92973209196165 -0.1074335455943311 0.3989076839147711 -0.25186192324545653
Ni 3.088975321323392 0.6035970923609715 6.09349595703825 0.20365296764039767 -0.5331074418593529 0.023317591680017905
Ni 5.02518557434764 7.403130100621477 1.201753129145014 2.6965354574504916 0.9243262417702984 -0.5770013150288257
Ni 3.731535865568613 3.7060335276436596 8.421176377537295 -0.2268270917640158 -1.2171383821758717 0.032877724564627245
Ni 4.82271668551623 7.825756181080863 9.329954231164903 0.06198415501228034 0.3279436940013836 -0.9730087945776662
Ni 5.813521491273055 2.2228795465110824 8.806327570524061 -0.3389482726420034 0.3086917877503071 -0.7048458201793409
Ni 6.841391922092567 8.005646034915399 10.22480881056078 1.2503961157877368 -0.06620024997615695 0.48720399445901896
Ni 5.194959872018347 5.91973483099325 6.35815509955834 -1.126685430299937 0.36749831636555413 0.7557315512856145
Ni 2.730958875737925 8.284584816214647 13.50151214969666 -2.5213350887238324 -4.274251003392051 -1.1979792927489175
Ni 1.6758414055633677 7.712322747144652 3.0845077720231475 -1.0728408736756556 -1.6332534311078644 -0.062381133340382894
Ni 4.879939180292528 2.080008916105456 13.472201165671125 0.6879552150715893 1.3658623018785574 -0.22749866390974366
Ni 3.850138441507808 1.7953348928711201 4.067487406259477 2.2182369930112187 -0.7737585839906546 -1.4943896920287103
Ni 7.967336846067433 2.3481082757539227 7.163269847258252 1.135567306170599 -0.9293537768918769 0.5085513497865435
Ni 5.389967378138089 2.440837300697932 2.2254566932511697 0.44172323641840056 -0.6818773843086255 0.8618134679480577
Ni 6.891162314483953 1.4147301319620227 4.062693189457428 -0.9832389569461065 0.15869131532804281 -0.9066347380278063
Ni 0.8647724002169317 6.794006573677425 7.452839242856275 0.6762034738523001 -1.5086325751009697 0.6717189557183851
Ni 3.2833239242434717 6.396919952450016 2.0091935267299306 -0.7758368066759219 -1.1816149924582813 0.6845999254461113
Ni 3.281597783466892 2.5133259329875286 1.6083817823427415 -1.5070343773759143 1.0422414036222438 0.5995046383376643
Ni 0.20646221343443302 4.555229827433648 11.784197891894273 2.230584715943294 0.3140008586680463 -1.3617811898306482
Ni 0.7520832484865361 6.440667412776883 5.259043312365212 -1.9563626798350824 0.5380712136225314 0.5827626429926351
Ni 3.7073606143697395 7.810768453370237 7.263578115063727 1.2162665210938794 -0.38346152456302995 2.0801219591726308
Ni 2.3654346458070115 7.460334034744264 9.450527948507034 -0.273159142061336 -0.2983713796609055 -0.9747507169694374
Ni 0.6624408602215078 8.660493731785305 5.73125974687692 -0.6378649832834176 -0.38174119943781354 -1.714538343331286
Ni 7.064843629718854 3.8465933566870905 2.425366995996004 0.5667719239913336 0.6738997654197878 0.6326075915392202
Ni 2.119849358868129 1.337387888779139 13.06845498196375 0.8804128282167998 -1.4131603156335728 0.584337957899555
Ni 3.3544205075196984 0.697632787312198 9.180856501506133 0.8750731611714412 -0.30240672607254365 -0.21767859249552832
P 4.978477689785671 1.6454576157648604 6.4976903805279305 0.26405949375291293 0.41429290812158975 0.16515172624140592
Ni 3.83305335995037 6.042522834299313 13.236704521948479 -0.14978218576387106 1.3801584067862551 -0.7530506620193418
P 0.12793858465553543 7.811176787747493 9.872542455433212 -0.556347643334216 -0.5296590782994363 -0.1318489983242181
Ni 6.624640610383973 8.56786679043561 3.1118912321815024 1.0361879983393123 -0.8260723057927063 0.9736094042761426
P 4.039642713861357 8.185869980513143 3.076412542994058 0.08078303288633829 0.3299617528726769 0.9388185218492026
P 5.460200891026026 0.6297518372568582 10.27727885000543 -0.8770935340355798 -1.5703269667869728 -0.9096203030186916
P 0.3747126814518366 1.2285203756067842 8.337915141949559 0.41153668553269124 1.2912344899603374 -0.14672334433288922
Ni 7.330131050360312 4.203115669664872 12.253968960305826 -2.201536906647718 0.6255946505564969 1.089311617637169
Ni 5.503939071026138 4.541801194617996 9.976558213777631 -0.22832990156178742 0.8345219792219563 -0.20698845977153385
Ni 7.284546085335795 6.7638826330280795 5.877504704090957 0.6015610066460607 1.7638870689677428 -0.545768582266789
Ni 3.8060754500712433 0.20007827665911437 1.0828081091485298 2.345168756539477 2.5614525255700076 3.611426007729187
Ni 5.48391212588711 6.61878472420106 3.930655484473853 -1.18445220479676 0.058198719827919125 0.46097874221390284
Ni 1.7234866031276734 2.317446076152741 9.913249680714877 0.03956670654902863 -0.04681104681626777 -1.050874139596577
Ni 2.968897173430024 4.054231387521484 13.33424168418467 -0.7819730014806469 -1.7433668375272038 -0.6198361508061647
Ni 0.8596775008279945 5.337682017195881 9.460266723404574 -0.7958800984800422 0.8334511147552808 0.4204188185136694
Ni 1.1619247508071235 3.6167289432725425 8.010775271513332 -0.27259761313091113 -0.8062267318216889 -0.16278631133302288
Ni 5.888989108451266 7.065567495205807 12.368036240559459 0.10593150712750787 -0.5213955527390634 -0.9630413989523092
Ni 3.691992393262126 2.0068335396359287 11.355297382515287 0.7114831229902004 0.5387034478898916 -0.8459605600762012
Ni 1.6884904909315308 8.847297429052917 7.663045140104 -0.3784015935416193 2.0346149758797667 1.5572534214324665
Ni 5.007924166581843 9.267705511417663 12.396695745646738 -0.36951380413368623 -0.3198927986724491 -0.1547099620827916
Ni 0.8585852063688361 3.9869118972348705 5.7681908072016475 0.2585704456138837 0.42914102887801575 -0.4330714742806735
Ni 8.482237215459792 5.057908006488611 6.9489481250943275 0.5999203857188442 0.40772219688260747 -0.7391235104152883
Ni 1.326891839218323 7.04533638287815 11.522989174861992 0.5353617851111683 -0.9099959411905554 1.0343231772164314
Ni 9.026630463282103 0.3524055600289068 2.669963928135393 0.022965607657237867 -0.09273814836568545 -0.32415620193449335
Ni 2.71534936613466 5.233566031322499 6.86265686282082 -0.3225189234413865 0.5581368740241549 -0.7486131950732785
Ni 7.412670276526446 0.2036465622967216 11.964223238499443 0.6261934604827603 -1.1384289439891102 0.822426481510003
Ni 7.538845599098379 9.159580424385773 5.842596754998994 0.7134335618483519 0.5170352188878387 -0.5623951350798766
Ni 7.244631399959075 6.293964007421109 2.4715885914359688 0.23238915923282555 0.45552106153344124 -0.8374756625336415
Ni 0.1155641969593443 6.919829243832636 1.0976946812975175 -0.8325615130614757 0.623613615570726 1.8397865485095346
Ni 0.870581884766066 1.599844809760076 6.053631385426012 0.07074261793120074 0.47575512919212903 0.8204976399184063
Ni 2.1995488050469874 5.277109324460738 4.271499613430377 1.0782430185278333 0.2830555752394416 0.034467694759566445
Ni 2.8573290851717297 4.604267074011323 10.657445579491654 0.4507583500374753 -0.41227356369871576 0.38953729844346463
P 1.5134264070100147 5.898148790959246 0.1379390647675915 2.38858646140348 -0.8489021592030283 -1.5894348912610177
Ni 9.138968818661128 4.35959125909451 0.49401035386504155 -0.8382269388773693 0.40775844943718165 0.09370462604401282
P 1.6319640206619193 2.8428610557594283 11.954511376549492 -1.5828014451049 3.32475391878308 -1.8344738780473697
Ni 7.47319656762781 7.960237396099242 0.3073440054334174 -1.1594973346236352 2.095856596299068 1.6851709459127624
P 7.691414170963823 2.4738103016613087 0.8170965775743319 -0.10988637801019785 -0.4163515904228313 0.5393763055872002
P 4.904606288809459 3.9169103925158293 11.89795335316891 -0.5392696048060067 -0.25857867314399985 1.3407475090888006
P 7.161702400069196 4.855364875043155 5.021033556157093 -0.21046253436306336 -1.1948944831760067 -0.6756100632426751
Ni 1.9331199042145653 0.4559563740028608 3.854823150454139 0.2701429809428315 0.18772858310065732 0.02715881980297903
