# total energy = -381164.02727643563 ev
CRYSTAL
PRIMVEC
9.28948202445488 0.00000000000000 0.00000000000000

0.00000000000000 9.28948202445488 0.00000000000000

0.00000000000000 0.00000000000000 13.59609593803115

PRIMCOORD
 96 1
Ni 5.772725672830396 0.7184987050032281 3.836287620902583 0.15213911603182184 0.5904137317799897 -2.3988934997564426
Ni 1.8573390412144155 1.8508921406712384 9.996474803222531 -0.4051994304607538 -1.3143919019134074 0.19153253022777983
Ni 1.3980484696643347 6.390578413503658 0.11441855041831527 -1.9437354779893752 -0.3054840794462868 0.37187819060080474
Ni 4.519648860049087 4.24558127110766 1.3124375320334059 -0.10793208249730445 -1.7372476120033438 -0.5343058330428282
Ni 4.0811481493284445 0.7036383205667437 11.203169232124758 -0.19334310107395733 0.881002896392315 1.1462057597210518
Ni 0.7784455905727233 1.3608162256051801 6.049773327613683 0.1444772286111899 -0.5351437555630912 -2.647807653227485
Ni 6.156659965985301 8.240160737205748 10.1998995969613 -1.663680380139154 -0.5920893197101996 1.4104442022539903
Ni 2.351056433244343 4.565761848948698 7.468770508250523 -3.6290987424186016 -0.0762126399068365 -0.2649820055671824
Ni 9.062019793194155 5.7545089985289986 1.8902656103430766 0.513179078366542 0.28681684205408664 -1.2586686402091742
Ni 5.278070043113349 7.491149799458833 3.6840525180041253 0.47427597354344125 0.630449921766269 0.9116190786162752
Ni 1.6524595145865073 8.998507604413605 4.533087953731816 -2.3146659599649295 -0.7703649849280733 -1.0086900500293594
Ni 5.232440107280373 3.880337415838737 10.765660638087128 1.1410738378111251 -1.8049797252429944 -0.4221013484224149
Ni 0.4513852223249458 6.085428217620631 8.545146509256478 -0.29467876130066667 1.5071752738291526 -0.18359733454110316
Ni 7.545864848737382 6.186181939942386 4.0390742272244715 0.15407489960195403 -0.14862056135560212 -0.5437793197509022
Ni 8.240866737841602 9.17157994449996 12.776890167901435 0.4819208916832087 1.5056639793909488 -0.13087197912292944
Ni 2.486682871184377 8.930424990464118 13.559930336296427 0.618755001926844 -3.2836592056253 -0.4362455011332809
Ni 8.686771165756642 3.57139711127903 7.8635744243529375 1.3987053165505072 0.09164491530150669 0.5233843010343179
Ni 0.33829971258090413 1.2581117120527816 8.210383302492271 -1.109278290567083 -0.48804603074434016 0.9805210437943113
Ni 9.06898690473217 8.075736904908585 2.130372710803601 -0.4471845166432879 0.6386625394840485 0.5042144129740865
Ni 5.817082949622428 -0.005772484146297078 13.228213150696641 0.8073091662525904 1.2883214300786008 0.2891426619737859
Ni 0.9501282241442953 8.540712639473686 9.42282884973208 0.25945979019737253 -0.8292615021539654 0.7975142916493555
Ni 2.2114169390584117 6.293363983843215 10.414106692516304 -0.40486801526326405 1.0115953966016127 -0.19962764853108847
Ni 4.01325132501997 5.621511484009308 2.95241941432943 -1.7343173257304259 1.1368101774387647 1.233984764309249
Ni 4.3949561424827115 7.894229715120205 12.382481054786174 -0.20058744134119647 -1.642141477626114 0.39451572549466246
P 3.844229199107716 8.025471517532315 10.384765863459208 -0.3740140059968849 -2.0446818731974656 -0.8702672551423656
Ni 4.10069321956309 5.588821796672939 11.397865628528702 -1.7492821745703746 1.6912541759923647 1.5349079638577308
P 4.185088163993584 8.400311407759599 6.611767483767957 0.23525156838228514 0.1210573070253528 0.6779466817956519
Ni 8.095254106697078 2.0194683714450608 6.179969134346885 -0.6923003794141626 0.7958505307936875 0.715744983590348
P 7.358282337687853 8.659348614743012 3.659416811605702 -0.8958304483234507 -2.9927018590402783 -0.793718314942033
P 8.404194411256785 4.700162075258042 9.790562286190585 -0.5980275395715056 -0.1494746818257813 -0.06665019302938198
P 4.292363102714921 5.141923394178476 7.4527136385259105 2.65806275529659 1.6631239934150517 1.5503134997795236
Ni 0.785198115075368 6.097225859825004 6.2558762790276665 -0.9340717511928365 1.5046838748658666 0.2549487897008964
Ni 2.5686346818355403 1.7194924170642667 7.021771779349911 1.9740724384100197 0.9657109753646722 1.0959586906400416
Ni 7.088701568576909 1.2821343126358589 8.857571298533397 -1.2248558054247873 -0.4091532729021792 -0.9626886435985806
Ni 0.1471212430295548 2.5359357050171214 12.265744778596213 2.339833974590125 -0.8929785806969525 -0.7471813477227583
Ni 6.523715270254108 0.33071299259010783 5.921820001847517 0.2752921292439388 -1.2681292714014418 0.631065700973397
Ni 3.4749815770749466 0.11210639833589921 8.836878048317287 0.2704455997849149 0.3155193521951018 -0.6383974587481199
Ni 6.539312310617212 7.159877580049274 5.995143741570001 -0.3570053872540303 0.1762208395713739 0.5764094470810976
Ni 1.2589384759552926 3.84091285401562 0.24698781981546844 0.19823771016209732 0.6614661676421253 1.0118314238718185
Ni 0.8988196279337343 4.821482710840018 11.745504057415161 -1.6133952587313567 1.1450235664874924 0.4966880226900543
Ni 7.973060259802337 4.63119696051374 5.78859210817297 -1.3093309424507322 0.09879386764146211 -0.09670870297765925
Ni 6.155814623118688 2.370982372243067 1.6756507065260482 -2.487441778410497 0.966210026488278 0.11009540869721039
Ni 2.521648481623165 1.7499526287084703 13.285656520853475 -0.5373453912001004 3.0190476960236587 -1.7464025390297344
Ni 7.438134725395561 3.68817519013822 11.754858565840204 0.4782637545465957 1.3022220993200928 -0.6396387873543887
Ni 7.591197521144736 4.190903379757315 1.7333523242838924 0.050931753852860674 -1.9796419620779975 0.05176633393901407
Ni 3.8051947955307277 0.3511721478585415 4.818660566193019 0.17457790465131223 0.384579440217557 0.8913395024316326
Ni 6.2046865881873545 4.777682802971027 13.392372232755362 0.5428274973605941 1.0672795775377941 0.57836579947652
Ni 7.263799015750313 0.5383459216978396 1.5366577602908449 1.1223037562924736 -2.4182631625323063 0.9910633380865318
Ni 2.8137562447070263 3.5869291252677797 11.152306531052629 -0.606611938806407 -0.4201871621188376 -1.0924121109393639
Ni 4.014328904937851 3.6487413388330525 6.080106273353793 -0.4004593446726071 -3.030077985695891 -0.10658225333762933
Ni 5.225770259167979 5.417393694909556 5.3655360903098 0.10287909345442926 0.5115993925842479 -0.43236596357321666
Ni 1.759121347492499 8.783251726335081 7.225114825646636 -0.20685450529683083 -0.8518432441092234 -1.4535754862258257
Ni 6.231170901513863 6.088707404784524 11.472154545436252 1.8675115252286287 1.0326923264812278 0.6885134015679045
Ni 4.279924486249051 2.736281964404294 3.861576377889169 1.197976207425124 0.6098160475660014 -0.8697039264397279
Ni 8.553095519047252 2.33249604810707 10.21176969712567 0.997279494199573 0.6928382541955036 -1.2541936351569563
Ni 0.8049577723453849 6.564180254066901 3.709015214170732 1.0606217059016443 -0.2125379288348533 1.332262611546241
P 0.6467216640421828 3.895841561381334 5.8937035265247015 0.15243376445410523 -1.1116035962661501 0.18422519793308917
Ni 4.941447082042593 1.5544276105056045 7.2730271872194665 -0.03731930527574863 -1.028842099497202 0.5824533392823323
P 5.840483154908108 4.61201418007907 3.4172836751099234 1.010224741506331 -1.0783034394521234 0.02563826939339455
Ni 8.251623958056296 6.828577492193563 10.484316597855399 0.2706885690336564 -1.0224441663906583 -0.1581866077774824
P 8.607559752310431 8.296436419468813 7.55902154216577 0.36234711118191787 -0.06066903574528261 0.5669102493414108
P 1.9590402907053397 5.08413352634115 2.100964068527535 -0.08391309387488775 0.2810184902047547 -0.18785919514125066
P 9.084305260633753 2.1546210458005097 2.0751309478927786 -0.3835633402482168 0.5598392014272423 0.6888432741034975
Ni 2.325631120871612 5.013858594627701 5.097734257011561 1.200045431249327 -1.2251535391708641 -2.3724093374229853
Ni 0.6593321359259908 0.6577761476825007 0.8459903435114757 -0.58697153886766 0.5204121057798715 0.21653393736812385
Ni 6.017949420004438 8.382977234253016 8.006727200650438 -0.0020175446506610416 0.02766455579480397 -0.9730280778513758
Ni 7.058074146255793 2.7342011204249403 3.7117751192879913 -0.9793931008374553 0.3169869378795638 -1.255824743002476
Ni 1.1947109970568408 4.19530659424934 9.54096505086708 0.6344824399644298 -1.3629415286873365 -0.08242905313019352
Ni 9.014708461110004 3.5536077531519643 3.8051669270845756 2.9657916649129956 0.6753133579378627 -0.05625650849988376
Ni 6.082743557307983 2.5902234381213383 5.558288198120535 -2.0743937984396017 1.031264850006082 1.2437505854467612
Ni 7.959423300151929 2.3188590884566613 0.20258874035420854 -0.972094510293513 0.15831002072922415 0.272855237667672
Ni 3.51949677506184 6.20422211408482 0.2972550650881475 2.034670511708051 -0.5843068475513034 -0.12819468940108245
Ni 3.6716213331238956 3.1719400936174265 8.63587316465272 1.0169941990196807 -0.4114338414062398 1.2470500821336394
Ni 7.3529873329189614 5.686732937487183 7.922893340935806 1.0340496118400706 0.7302508905160068 -0.1868649495487814
Ni 6.421726046819612 3.411107098494421 7.848387050148268 -1.5189164735254808 0.41829945817782155 0.066588229443195
Ni 6.460286686812014 6.114736533490549 1.9457238181856795 -1.5274047135021502 1.1431541173789215 -0.5434185939773739
Ni 8.646250445051542 7.867113717014249 5.350091397452328 1.0264355469382387 0.9828286088815654 0.26963853050258724
Ni 2.5184528997977282 7.506821155678343 2.0600531895763083 -0.786560106630697 -0.6390718591073252 0.6191890041404691
Ni 2.1478583028676095 1.9092858248418587 4.133185969879984 -0.8838341951935229 0.48225847752828555 0.4339996425218977
Ni 0.7563607759454194 7.650761680053743 11.925176574498531 -0.15622177074162774 0.3815175134627816 -0.5265817249256931
Ni 4.1341074864994125 1.0962796452477583 1.1331012942002725 1.101307870767097 0.41036451960146103 0.4721242173077611
Ni 7.4461422589232535 7.517262533503316 0.2976303601629952 -0.430049142514582 -2.1223207040278673 0.1898577136285182
Ni 8.680342844177567 0.8308652088365466 4.0720713964167174 1.3940963570235863 1.7487216740812144 -0.5068734478634884
Ni 5.492787131232935 2.599540788618177 13.00809237086817 -0.10900268985366389 -1.399684392634325 0.060856212055424234
Ni 6.745566680588621 1.3133562618082189 11.517075693788762 -0.8608500755935239 0.49367006179933687 -0.917099385004556
Ni 2.517588977967014 2.8841519396871345 2.114601028177944 -0.32515327574044 0.388812247351982 -0.7632494569292145
Ni 8.149188839483369 -0.13472071344009232 10.432175664053094 2.0288415637310995 0.6685315591293389 -0.38407704665984177
Ni 2.8455820102126808 6.784796163288673 8.219669068750138 0.8655220271478964 0.813978864963282 -0.3766391023245578
P 5.10953097026773 1.9241397066409078 9.829514942325527 0.8675071758987253 -0.15023624258215418 -1.443545355683333
Ni 4.808375251666498 8.070878505796076 1.389711159523843 0.09179301084359676 -0.2926100516970961 0.0777964394541886
P 8.436735466880343 5.4105194781920485 13.049111007811184 -0.3605612229260887 0.4083714004308322 0.7789185309250392
Ni 5.610354816066433 5.8680914955627514 9.262163541872622 -1.8652870067734844 0.15288447883827863 -0.5150115035895905
P 2.9727550194865895 0.15995837827539955 2.6153041107099884 0.016854352553177424 1.0821865765566137 1.2748226242612175
P 3.8427428819796057 3.85104767893292 12.846529699042616 -0.004728515823920888 1.057639740455185 1.7833888864460963
P 0.8132662850915195 0.5184766485396246 11.808726414355728 1.2503611487847432 0.10268497516575219 -0.5174049435224315
Ni 2.9403904640219953 7.266771650006533 5.03627968850524 1.367445072984645 -0.6435751462943174 0.6953929022965573
