# total energy = -340886.6353792019 ev
CRYSTAL
PRIMVEC
9.06643909801010 0.00000000000000 0.00000000000000
0.00000000000000 9.06643909801010 0.00000000000000
0.00000000000000 0.00000000000000 13.26965006964875
PRIMCOORD
 96 1
Ni 6.390706295248895 2.3586160117700437 11.41838770155812 -0.12372482655518692 -1.9423555669227126 -0.1822955850105441
Ni 4.826718342705082 0.4997321528174418 5.838752359576331 -1.6329032468572977 -0.7864883728524972 1.169744209162624
Ni 2.7217812983279295 1.5958292868355868 4.814069753448119 0.3489951153550441 -0.4751120962914914 -0.5230107197449831
Ni 3.4815398325865736 4.64154538952308 4.967958051702104 1.6324638453270337 -0.07925939715296026 -1.2231704473025644
Ni 3.454721305583423 2.896201454679053 2.757499441999875 0.5382159667305119 0.0826303705077222 0.23589922926861312
Ni 4.98310535158857 4.6597145335779535 2.388815413931909 0.9413492586908562 0.622316236915541 -0.09180226681497738
Ni 5.4110412794278995 4.65207152537523 11.019011057038574 -0.9375609952930176 0.19047529260785906 1.563218637876966
Ni 5.92051169453543 8.022864803755079 12.288903669750466 -2.1332185818872937 0.6397040933746854 -2.168233664509898
Ni 2.2784686896916604 6.248789323247432 0.3107422287536529 -0.6723560750817517 0.7430272163450687 -0.6003163356056823
Ni 2.8742244061815416 2.129670290376002 0.19890135534162698 0.7517111172723119 -2.566517341687425 -0.31428907933242645
Ni 8.194338367382732 -0.08031595784655698 6.48441338371873 -0.9772364595057687 0.9997593231986331 -0.10466292482772942
Ni 8.807229653864486 2.1719652290067324 1.1635559745073087 -0.31372857884326616 1.2527761859841393 -0.5197829568363048
Ni 6.632326898573432 0.8638258427441993 4.574366702003625 1.8333677894673843 0.4760379505398704 -0.8161635313194266
Ni 0.5391711631161936 7.256134177790747 1.986506682991533 1.8529045739487313 -0.9168828981183759 -0.07373383934904075
Ni 7.7278519402812655 3.868459189715202 3.3716056313276117 0.6007770772921847 0.30963872504460865 0.1770014264911403
Ni 7.661313343365739 4.066569951563024 12.34971862363114 1.317572099413602 -0.21536100010594522 0.9068548244584124
Ni 8.198409198560697 7.26630672251608 9.40685492658322 1.679661328948443 -1.4098387074595073 -2.1268291334211824
Ni 6.761650586596741 0.686446400654797 0.20035198560548909 0.9750548784734175 1.573438515832761 0.05529928679293702
Ni 1.6774091062995338 6.742819592483981 9.262640518901364 1.1483503168678804 0.13766277679251776 -1.35587433742791
Ni -0.10075443162045958 4.937809421599474 1.1012758840601327 0.8140200026138626 -0.6234138408550941 0.10202651564614687
Ni 6.4152400795864635 2.40105601342716 6.826982440461517 -0.5755825803044281 -0.9209308429355042 -0.08183692807214939
Ni 3.5090836747216567 4.274563132083407 0.45102361513261097 0.3739543564035431 2.1947610213764652 -0.26615674260157385
Ni 6.266205952852927 5.763644164377039 4.51465332047957 -0.21536819919479686 0.7841574107264753 0.6111257675163604
Ni 5.32601621308728 3.10951663497998 9.265214480975805 1.2962684528398192 -1.084232403342049 -1.6071477351597483
P 0.46985370260145637 5.88232385283926 12.421679857801768 -1.042895235156159 -1.2307284621554806 -0.15700338610265865
P 4.290166473859075 5.986207112610087 12.26306794475108 -0.36398516100597317 1.094722247129779 2.1561008858021062
P 2.3609370201922233 8.326916907060584 1.3592233310044382 0.7960806445266226 0.089770066876297 0.2947954893841891
P 6.531480895917566 7.951865518778177 5.599805449156875 0.027116910821450072 -0.8061614258013922 -0.6598070347721475
P 4.695372838751515 1.2503344901793716 12.286979771363018 0.8705493051591587 0.30684856389398124 2.06797246829429
P 3.9305733643259493 6.247955210845712 8.139139165911033 0.4527347570375557 -0.34463015351812903 -0.03144690565537165
P 4.611064021103677 1.258820677222965 3.594483184999135 0.532231981232935 -0.3104745906823427 0.6171208087575308
P 0.19054844495352583 5.754641190301945 3.559437771112056 1.6464678729156097 -1.6287629994366788 -0.39465533639632033
Ni 0.7849251560488228 9.019592858054752 4.231625382917003 0.02896039178809206 0.4033744614368731 0.2525160118896877
Ni 2.1705145987428702 6.812912233545969 4.682992616093366 -3.0243205143868237 -2.491513891597341 1.582608098147171
Ni 5.86316646691713 5.835586359025451 9.105236255545343 1.177814130654952 0.3389387595603066 0.54180368408177
Ni 8.53631538564908 2.2507344523344464 10.30900551425474 1.3503960879221582 1.1115030661325438 -1.0020668882858872
Ni 2.4096691306188416 5.365301093920496 6.8664332371311625 -1.3333427319842974 0.5240967537203102 0.9668237488128768
Ni 0.4857589568007898 0.0978069322530747 9.267258056360019 1.2766864169428334 0.34860559322610934 -0.8650103776188006
Ni 1.4946387594920536 1.248530268788693 11.2659989923394 1.6897467382089029 -0.12535464884912606 -1.2562497463550366
Ni 4.159301491180411 7.047225286916301 1.472294520209002 0.8531509071770533 -0.10004522355005996 0.2794609159096477
Ni 6.140118983605859 7.967985647585344 7.857172001728916 -1.7998210638601906 1.637904556726631 -0.5422927079030467
Ni 5.418575490360833 3.414167123269327 4.524844904727116 0.14019865584049404 -1.2938202484096428 0.2014814139103756
Ni 0.7048938843915488 7.57849142173836 7.152580029761033 1.5091141427230785 -1.0343810270375604 0.31686532470003487
Ni 5.40345266986007 4.9015073992463245 7.092720678566677 0.10495448792621925 -1.1447456302357575 -1.411215790312692
Ni 1.296419200374442 7.6047931617100115 11.49633369221109 -0.7601160535065554 0.14150400491547888 0.13487133009030966
Ni 4.7620836980108745 0.5769346954601847 10.294249884539518 0.28131879505399293 -0.9883017161809946 -1.188356939167805
Ni 8.749494569362772 7.10236736982136 5.025999581847058 -1.6560830274078706 0.5832750638526794 0.2026427812083284
Ni 7.37132328718055 6.308301429822376 7.113594341419739 1.9210012696166527 -1.448529439161486 -1.2149902254846172
Ni 2.369250944891983 5.353442191513423 2.768314797260882 -0.6678628151970885 -0.20250317030667062 -1.2836127117490217
Ni 2.618287895440515 5.353623520296407 11.106232921585029 -0.5676013618711644 -0.9914826850121377 1.1613333593911097
Ni 1.0985713652619449 3.330039634404472 3.719881104870868 0.007767559760560817 0.30512206812117776 0.111660182081169
Ni 1.703393520900964 1.2058182739571024 2.258334848273169 0.23592956828591627 -0.46298728800349936 0.28566113118308867
Ni 1.251803253321532 3.2030097554858945 7.874886917182417 0.3015857728331451 0.8719433572932079 0.5658437557501094
Ni 3.9180435454218396 3.0811024146865806 6.925854679314616 -0.1537977346811674 -1.3032579967837747 0.15675553175791068
Ni 4.5075706182162625 6.791415706323362 5.858497250755325 -0.39834101277802364 1.31385377002175 1.1684116063941297
Ni 1.0065651407764888 0.16334096771087653 -0.07643098867115121 -0.28260434663463585 -0.6480344676172516 1.975366731741411
P 0.3840117500934996 5.397432554265042 7.94951549775072 -0.03146670314971355 1.5388841748966595 0.37132463209017985
P 8.61642644197087 1.620172675951023 7.8293189940188475 0.6950362902880869 0.44537677401058784 -0.20760012521360371
P 1.9763024057291776 3.3578282703965816 10.354599730091843 -2.158664532764224 -0.881512746149198 -1.401845661951702
P 4.124613294995808 6.239985810833619 3.7874369562589276 1.19724061481068 0.633794926979102 -2.2645867839203513
P 7.237303183677986 3.946512164350134 10.166104833605596 -0.052348688805045326 1.5757525086779185 -0.9812826045506843
P 6.360623850152054 7.916751199953564 9.992218690520357 -1.1187510059442087 0.24216089390760873 1.8724174471706785
P 2.5803085818447746 8.497030504815866 5.8645481922434595 -0.5274245325419625 1.2726413003391823 0.9042808930836491
P 6.79238581531232 4.197444000680837 1.1830578851171054 1.5962601417129672 0.17676179967650849 1.6592539689366843
Ni 5.377912510776948 3.064810023535579 0.20700131207746716 -0.02878118589775043 -1.4807391911248111 -0.19110906953711604
Ni 1.4217355222938322 1.0652794007063089 6.868105088510265 0.5422343438612854 -0.8085906040681752 -0.39630598462586586
Ni 7.1030020205618 0.8523558905766244 9.061790785786586 -1.8790305816118218 -0.09205012115972534 -0.03024671469968339
Ni 2.7792081238985715 1.4224336381083158 8.967935007714708 0.21678821947077503 0.8733464082883218 0.3020210605983508
Ni 6.336697517237478 2.1628715905401465 2.521937033314792 0.2744606344815789 0.02899175924665975 -1.1231028551550013
Ni 4.046913911487692 6.988873684552446 10.312163355010384 1.6177437655080398 0.700429179168884 -0.3572658400042686
Ni 8.133466294935417 7.514482361345444 13.144769178921722 1.4585153467296044 0.24026033445078618 1.1485408356121316
Ni 7.938138929906381 3.7710946996926054 7.992893875859772 -0.2580865639989297 0.6865179684044306 0.7271100308941799
Ni 3.4306317767641623 8.634958243591706 12.490907560568928 -0.6471191548918338 -0.7865871032138906 0.17975893463161946
Ni 0.4200943646192404 5.046706422219775 10.306988231544056 -1.9832258227745134 -1.3662698217296212 -0.058720139549027904
Ni 8.453819855831071 2.276863929962263 5.5742879561716245 1.0652432638340559 0.25606593402447514 -0.6701315566266072
Ni 3.7801611388417435 2.9255041860090683 11.141132365801807 0.9735237865408719 -0.7146530360777499 1.329367549386633
Ni 1.1333592922771887 3.3024957922693896 12.394649176122526 -1.1089509891346516 1.5777618257984634 0.5436901024712056
Ni 3.5405714178866137 8.347660919833812 7.997883137323543 -0.4058062108068173 0.4167364845660758 -0.43277785429965465
Ni 5.586767003016498 8.02810520558328 3.3283596232301367 1.326636266498399 -0.4215213075492289 0.31828483075538083
Ni 3.3329046291756 8.329401111387448 3.7682750371172236 0.5613132148696075 3.1568107458394663 -2.0729213276591336
Ni 3.362851077685204 4.2604194870107515 8.972247006174037 -0.22507359940801883 0.8835436605362976 -0.09860566289005598
Ni 7.3308325699404975 6.231880414234289 11.359497552708804 0.8951624757221486 -0.12814172467595997 -2.3364727714273763
Ni 8.201781913924174 -0.1638051693953124 2.138151944200021 -1.2905559758360743 1.3864049019165996 0.42025632479387626
Ni 4.757722740780139 0.5547672517405414 1.5261156229300321 -1.156928802565511 -0.5516350683498951 -0.5282498566567354
Ni 6.237057350988447 6.027541008691009 0.00449423388622788 -1.185273672256791 -2.4046311735711683 2.3265629685128317
Ni 8.145189200755253 8.86663296316964 11.153167157128372 -0.620698241696144 0.019426484155727834 0.5749369763006291
Ni 0.03244969235868107 4.811731518791556 5.774142194267826 1.9120018943315198 -0.24845392600517213 -0.13668421492933236
Ni 7.432893475442349 6.208289539568232 2.5381786524065584 -0.9625819428173874 0.45758951402669584 -0.9784232807250183
P 8.709339310371238 1.6685058630550798 3.287476329174927 -0.9514495803496517 -0.2321351342404905 1.3941246391583602
P 1.8177303850107478 3.50736105128332 1.4929687214007823 -1.6190025776158052 -0.08075552208251253 -0.29767409648356474
P 4.908343494364775 1.280181207858335 7.971623102971979 -0.4708237533287827 -0.34825360920332926 0.4964054584526289
P 8.633335350984012 1.5261537019744587 12.310612351649162 -1.307391302225858 0.9220155913592508 1.0602882338216257
P 6.427080849115239 7.761434030889674 1.2701102072514723 -0.5231906969662731 1.3951605366220423 0.544282741749882
P 2.1301689445292045 3.4075848884470528 5.797682296874649 -2.8343381022549834 -1.4818979873196025 0.7689776176622434
P 7.156729738959594 4.147678316191216 5.654303814882346 -1.6653207439560547 -0.5725437934781042 0.670061108399988
P 2.6774917430843885 8.571873959992002 10.20063255381726 -0.9958975262503815 2.212199528567887 -0.8471913471595086
