# total energy = -340897.68066127686 ev
CRYSTAL
PRIMVEC
9.01953067849532 0.00000000000000 0.00000000000000

0.00000000000000 9.01953067849532 0.00000000000000

0.00000000000000 0.00000000000000 13.20099485611791

PRIMCOORD
 96 1
Ni 6.410487178504828 1.9250474706366434 11.237611064472196 0.028479852607247724 0.956618783255417 -0.043447529660673556
Ni 4.71578048453661 0.4897280502114287 6.0510453482361415 -0.7846585187326099 -0.9189683198924947 -0.14561931263543307
Ni 2.681596691647326 1.5731053801987884 4.76583617442136 0.09060336141086976 -0.2927969708969215 0.6262945048369988
Ni 3.2351252946758025 4.3793790456063 4.867735225188421 0.3551238539606013 -0.010877823254768363 -0.48966068352962766
Ni 5.092625499415749 4.500736832045084 2.6831282079711687 -0.007564185500503102 -0.14168038259234308 -0.21922305416451277
Ni 7.163482704394227 5.9997467670120175 2.5716197491274166 0.4952872856877857 -0.1688821398181156 0.272901260414259
Ni 5.2192777504134 4.575887562376407 11.303602461311984 -0.18435632419431475 -0.06765883679955444 0.3146986560660193
Ni 5.480492380889329 7.723821053150037 12.437898650278274 0.7324602394624998 0.39682329058191657 0.05905361162904669
Ni 1.9388473527066052 6.328616897753818 0.48925903461166526 0.1073597549336022 0.7192411696690646 -1.1417410390814788
Ni 3.0353787663611755 1.7280158210821854 0.48811626006378017 -0.2578045139821366 -0.4868954620796647 -0.3987500752909843
Ni 0.5671553101077568 8.811738814924338 4.552917523377993 -0.3123700079328427 1.065229894097617 0.30950708456275083
Ni 8.644309265339563 2.2885525995148193 1.287034726841552 -0.02190014250720099 0.3734331937927505 0.4595692634608859
Ni 6.804081462013981 0.8549973993071763 4.746932139891665 -0.16098936733360014 -0.44291262874081133 -0.32511085253827876
Ni 0.7895967817324739 7.367874291052664 2.5913689136897626 -0.06065283779536651 -0.3318121758178544 -0.3072702248124321
Ni 7.5399038013274255 3.7574823993815416 3.8132258053664994 0.14679636366266977 -0.2978167927090161 -0.11101946317337653
Ni 7.592478646154752 3.7508350052079713 12.627214091263548 0.7977220367847874 -0.2784273324388108 -1.0503367790358684
Ni 7.829773481042745 9.010177511278085 6.787265448856309 0.7310016526391023 -1.0271824524065922 0.24516651350315197
Ni 6.7938623336575965 0.8211687472211635 0.22477572618661668 -0.6136477626072657 -1.0561538999382778 0.7720112622822447
Ni 1.888599546816567 6.55777611589207 9.409418021045926 -0.46699409517004736 -0.08981377563003887 -1.0206731905331647
Ni 0.04440314995452486 4.962744256404342 1.3649039437453496 -0.4248408588407651 -1.3199629682432816 -0.41947316677094854
Ni 6.355810783009331 2.037358667718452 7.096380101364228 0.7689264527093338 0.34981349749128143 -0.36928754705549305
Ni 3.3891878996673195 4.253899333608057 0.5401769916375192 0.06089066483778546 0.35032977500606766 0.11984940276018068
Ni 5.819590659518278 5.526284538581614 4.8313928298782916 0.05289119157207665 0.43919867022433395 -0.32329771058893997
Ni 5.238462292349877 3.0371465943910527 9.161636177737838 0.9338262108409336 -0.3418646749578499 0.2596130279457851
P 0.27568736954093537 5.600488218182645 12.249823394773145 0.35747152825717143 -0.40250157191361646 1.102095913886031
P 4.056858664522835 6.010849809383339 12.563347695871917 0.19133455528436077 0.4217030845427318 0.6641773959257012
P 2.3528708733977597 8.41718846115413 1.3056059406860303 1.2017511010865238 -0.44520296743688487 1.1111888773262348
P 6.241830972736056 7.779092737676002 5.860780150661347 -0.05589912516046502 -0.3129901580153448 -0.42894768192028704
P 4.816095705701392 1.0095019613061629 12.480339150338406 -0.6819092659878255 -0.1678614118630851 0.1739731811877778
P 3.7656270356620483 6.279487513678601 8.081635760068776 0.10861368194536132 -0.3645060665064497 1.9610621421932803
P 4.671106748659144 0.8689884954293496 3.7962230879219994 0.8510068642508569 0.8841075034595678 -0.1606985755660587
P 0.26056161644856524 5.340283775152362 3.5479262294072473 -1.0706513222235043 1.1591263244374617 0.8725712206851941
Ni 1.5060902666172078 1.071917114197756 2.442170541639638 -0.14140476033345323 0.5735457523800574 0.7546241771540488
Ni 1.7101751892296464 6.630220986993987 4.838652650190784 0.23050814016002882 -0.47236127301923164 -0.11181033450578809
Ni 5.851384505463779 5.563724610785806 9.143643115815376 0.2911668914926663 0.6557266940551868 0.1924894948244104
Ni 8.603919806575322 2.1928824366938473 10.193399242924311 0.5229276731128736 0.9203878259478406 -0.11348258000188842
Ni 2.18997814778762 5.2133338796394755 6.9357503760229475 -0.6234554927263068 -0.12316638294855561 0.6573302910968809
Ni 0.5875277242459419 8.964168884847448 9.112276795628121 -0.21602023095649897 0.4884311819979007 0.024631425395435
Ni 1.5578262950834185 1.2408078277664087 11.601390387085619 -0.163530388587899 -0.18485974619329454 -0.4915396457198954
Ni 4.228536413097775 6.643154994110541 1.6601041661425957 0.04116670404629685 0.7266711435845485 -0.5098721254804961
Ni 5.453163202672345 7.883899685161596 8.026693288415721 -0.13271108921419728 -0.14846706649687336 -0.08751880894827507
Ni 5.1053971549785375 2.8466541046409892 4.925423242006245 0.2739793239697862 -0.17571176114543932 -0.048203556288420206
Ni 0.8594034400857231 7.49468889360408 7.115349076515429 -0.3924117917777823 -0.41750807262477774 -0.619884744655913
Ni 5.002881168307173 4.739077932501781 7.049225994526475 -0.6854741005209485 -1.1164316137824128 -0.13366908225209237
Ni 8.041975981343397 7.131472389710373 8.928545346139263 0.18171708679925477 0.5776392057231406 0.5597191309096102
Ni 4.775138016498976 0.28390686792678926 10.344906614850194 -1.4759934489097095 -0.18923602088411925 0.05033834324323589
Ni 8.019409115370165 6.987592834952181 4.765479902956155 0.07156948470787029 0.49723952431815005 -0.341678784199289
Ni 7.08911667323943 6.067023446985773 6.9670625790256135 0.1334032301852154 0.12687159971428472 -0.09992952390780209
Ni 2.1692061684365593 5.255238619572184 2.5717911202119454 1.26180358629373 -0.7181620776722728 0.9656968342972853
Ni 2.523502356403996 5.158188468544216 11.335522580688192 -0.9312152555806479 -0.5754835928327187 0.5901352813076223
Ni 1.068291262830354 3.2297225957477584 3.9138440827649754 -0.2561325255963524 0.035562727595958105 -0.7330456796523246
Ni 3.691405316999488 2.5786207089069624 2.8571708775126075 -0.5393022578161552 0.5688192934386656 -1.1135635482059985
Ni 1.1723225306701854 3.142034717653529 8.2525360250918 -0.6267979268359787 0.5115461707488093 -0.2806305107377167
Ni 3.532454126333514 2.680144547194212 7.042150172641584 0.6259674605148833 0.11581637034138763 0.31405253784158815
Ni 3.94231964334215 6.824321289049924 6.026385951125503 0.5491632097706349 1.2700622267580965 -0.7080645842269548
Ni 0.9333861411830193 7.590764935309462 11.649495152465969 -0.2027530815339476 -0.9725583373038088 -0.2140366248675669
P 0.22571285543306704 5.5618395288559865 8.077688813406152 0.7671871014207239 0.12518058516510697 -0.6485571728899411
P 8.442885104302706 1.6552642859342679 8.05593370520174 0.022885132128289618 -0.09349302425383899 -0.4278588197314825
P 1.7673770533392537 3.058441706526465 10.392879695081378 0.3486300187061415 1.3013273554199651 0.9948963386793769
P 3.85946623373779 6.22308838780705 3.8165792669048084 0.05063530565836441 -0.5156648209028732 -0.31599397783867517
P 7.06310434651409 3.9779828679856992 10.261753756824445 -0.4787329808735304 -0.007974533565044331 0.22573617269268217
P 6.351697876980636 7.7384687711118785 10.150469884296735 -0.7826885394904326 -1.06338872712382 0.7729597422384429
P 2.4984010022858887 8.654257807773005 5.794616480783952 -0.5624236743249668 -1.289311819016328 0.21609427872754394
P 6.920776151047424 3.806494529556818 1.5468928198904723 -0.33179957741236404 0.5862408313492227 0.18339473161199382
Ni 5.250963361989725 2.971881269777821 0.16094089915266296 0.855897873794571 -0.21422791494276652 0.7158771382928381
Ni 1.284859216021111 1.003982008478178 6.838973516777148 -0.10590425343399826 0.70541171998514 0.9328669322514579
Ni 6.8529943773508455 0.5792135207870589 9.20704680927878 0.3335561550921546 0.9253755089704193 -1.2684511735172348
Ni 2.7884961702703257 1.5591611856365912 9.28196303181022 0.31469839895570323 -0.6520194204069287 -0.3587719922361498
Ni 6.2895893881350435 1.9023633507634703 2.5114495574431532 0.7212000931676482 0.8394248158402123 0.30915278654712564
Ni 4.083358045909468 6.884066660835172 10.429168875159998 0.4551500513472677 0.27688415632140706 -0.3225369211635155
Ni 8.279974339631035 7.069436057110897 0.39176331876392184 -0.19143919918302513 0.28457432587681314 -0.3477234477314721
Ni 7.779787241544883 3.948516060977486 8.106903073552953 -0.4093661602439337 -0.5944297949179181 0.0077364494123092565
Ni 3.118538840011535 8.364090483542451 12.444736356550981 0.592149997744806 0.22878138727690922 0.10801204380562042
Ni 0.24818772219249932 4.758154240069081 10.2571330512137 -0.6258980407295285 -0.5558694181462168 -0.4695482290504688
Ni 8.572098902037526 2.368429563966835 5.8284767012276415 -0.18504358006932647 0.5013190937041624 -0.18067810401177914
Ni 3.8001537994292476 2.709719588571601 11.28171566795841 -0.47361314314846176 -0.3758999101656881 0.4461146806178769
Ni 1.118070053120629 3.4356294635746627 12.720293844848904 -0.12573671477889312 0.3861195310111673 -0.6767580608041893
Ni 2.9973434051265153 8.51813504947244 8.066970003045405 0.6431257174617246 -0.6668117482247548 -0.3310683556732944
Ni 5.707026915575058 7.7386672007887025 3.5815753928310428 -0.5586014723653994 0.5727656796809233 0.13702205788472532
Ni 3.038652856028755 8.39210514609755 3.6427350270401924 0.46981716644113924 -0.6477169363768329 -0.87060766920092
Ni 3.2942122407152277 4.281363804786511 9.20927824118996 -0.14125640768104705 0.7462377528625663 -0.6275692577843643
Ni 7.2673335816187645 6.135147962851409 11.350598726361355 0.5340695486623059 -0.33279279456356875 -0.3925997394188723
Ni 0.6130593099815245 0.04023432283508927 0.33468772808502006 -0.45299263868463274 0.3146590610773355 -0.2644775551269381
Ni 4.838455122467036 0.31449480260905216 1.6331610238423406 -1.401382092051722 -1.3257456363633298 -0.5917147099796003
Ni 6.212661810243079 5.499018497079983 0.2970158539401767 -1.0954460126696812 0.589964560057713 0.4049441199168381
Ni 8.048749648947672 8.843974617877308 11.173110596067808 -0.36088543903472686 -0.9565840733627397 -0.0907242032594502
Ni -0.09094032088797326 4.958874877706293 5.741944225024368 0.255285861325341 -0.8884660375385797 0.42034657051483737
Ni 8.040731286097872 8.898425525103686 2.1820580978231536 -0.38077754997296354 0.013969831916530779 0.7326016501363705
P 8.486756101942113 1.541302514722523 3.5151609799983907 0.14799269796361608 0.38790053417099 0.5407960687528621
P 1.7529007064619404 3.233664130691924 1.6618602687824793 0.21173420198663534 -0.4786561048890079 -0.11297530134816673
P 4.740259491031954 1.1481411686900753 8.17455767186575 -0.5459845549323371 -0.6810497462010077 0.9290678702203418
P 8.424602515442697 1.5064690869093247 12.33378169689618 1.1973871676908734 1.8673012089900358 0.3944571043425852
P 6.399086491618272 7.68937546515972 1.3255778876582636 -0.52651153380939 -0.22335147451058954 0.10228953949954642
P 1.7285479733973017 3.1825504498484767 6.06399559050807 -0.6517016320561937 0.016936370744022447 -0.6896351738771735
P 6.768625686578019 3.8825201543723145 5.975443641366585 0.6148980900745991 0.6186704126328376 -0.08593989449692942
P 2.3250005233348956 8.5644954376029 10.329276669988078 1.1484050813652156 0.15117778055981704 -0.37143981751180544
