# total energy = -381171.2488246458 ev
CRYSTAL
PRIMVEC
9.19424186164904 0.00000000000000 0.00000000000000
0.00000000000000 9.19424186164904 0.00000000000000
0.00000000000000 0.00000000000000 13.45670233273095
PRIMCOORD
 96 1
Ni 2.3186222843674273 6.258235368416827 4.4788342185748435 1.0471303562834289 0.002284682269118646 -1.015846972789115
Ni 4.773264181851301 5.451468233623746 9.885239634312533 0.18772369800465089 0.16895515914789613 -0.8917357094287868
Ni 6.793505737242924 2.3992557849102987 1.515130138501755 0.2664740167316766 0.6942032528638302 -0.41101835113537605
Ni 1.7205092728719427 8.996602373455143 0.3489904329368338 1.2883818510028908 0.9069206446993413 1.2024722955232645
Ni 2.665373919427158 1.4182393796168193 2.6841145424780746 -0.7706192670307244 0.48952518639302794 0.32411557850454503
Ni 3.8906169695234065 8.768640342387874 1.8284156528515663 -0.5221972227047522 -0.26503702717483385 -0.5652148639168588
Ni 6.474870093592555 8.279221657393853 11.161998021186626 0.33334583885356145 -0.157452043604303 -0.03424478011548296
Ni 0.168104758708745 3.0986525640204086 5.125604077074083 -0.7545673557741843 0.4729166313020694 -0.570091989503502
Ni 3.3974102569098106 2.788107853149711 12.020481846652865 -0.9679293231722297 -2.117523025528908 -2.0153916088737804
Ni 7.387104376017023 5.5632794080937416 5.608524271967341 -0.004129705897657404 -1.81530784664188 0.09142457176058448
Ni 1.7142296057259017 1.3503582924437272 5.548198093277268 1.3755687305330437 -0.8337876721590931 -0.8014359953012649
Ni 4.029486797596329 0.6715373070468316 12.885384172316252 -1.4403584733149195 -0.7901300833701423 0.8786014860396739
Ni 4.862181694251541 6.177721393017292 5.194017510847111 0.0032794420822201587 -0.6955075734975505 -0.6506258824935117
Ni 7.588577796472661 0.6329168943865886 7.604194216161607 0.3497456203678235 -0.02776277193556509 1.568191408501209
Ni 2.7516802671575955 8.042001024838935 11.97425779602809 0.11056874878920313 -0.9126274652761316 -0.2257354013617338
Ni 0.3712837110173697 4.489548268538654 10.091234782882992 -2.1511826225648827 -0.8375206568389639 -0.5057542466573807
Ni 7.189225904103264 1.9265522314997356 3.9687174564517327 0.34892800956253456 0.9704094092816061 0.6553004051510456
Ni 8.198836401379449 3.7925236038116745 2.8817659166194955 -2.3655540050640482 -1.7938324503769234 -1.7261687284813625
Ni 4.113706052439282 8.144994921427447 6.546052832994261 -1.1217275720740296 0.07774913115602093 -0.5957081474097096
Ni 4.93530349924783 3.7797344134747153 5.80900287546075 -0.22021087199907882 -1.4860845145971247 -0.7694478724304425
Ni 7.367042540420154 2.9287981410980595 6.465231769918771 -0.1306997152111233 0.4472516224357974 -0.06172344515172597
Ni 0.8219256812406326 0.48845696730225663 7.509014505674736 -0.6296132847975867 -0.4766028219044049 1.0704399775436468
Ni 0.4606912765052878 4.01787447020914 0.9053652643793628 0.9626603614638067 -1.4071295360584606 1.387257736835198
Ni 8.310849849168935 7.553961476114176 5.098892046386831 -1.921003326499182 0.23846107645851838 -1.2604280461024422
P 1.940895248700064 1.0851687763481705 12.165033716155149 -0.8092842877010902 0.09222598461595728 -0.6142015782282068
Ni 4.7360642795483985 3.1298486264311225 3.236942235436061 -1.0648707109859856 -0.37803546845145214 -0.8225192983341253
P 7.386138980628539 7.801985342778314 13.091258876319195 0.2024401782792191 -0.11200676678731034 0.5147101702990877
Ni 1.7063593347493113 8.89944682040651 9.86341250429101 -0.44068451074124104 -1.4894619157097897 0.7180594906561375
P 8.605608046877476 7.813671224099864 7.363144181899039 0.19251417741475876 0.6726239840311576 -0.279577386882854
P 4.071228655346002 1.3585135849159653 6.625044241952531 -0.16829618540765856 0.4146726600585116 1.4409397997396862
P 8.54341819537554 4.564499727652164 7.706855281197137 -0.5615155606884008 0.08884884061360827 -0.5417836294771121
Ni 1.605250257728792 3.275945128554979 6.893289924020772 -0.19739618809740844 0.4721992935200707 1.8573415266741626
Ni 7.219566902027035 5.442853229061755 9.546521008309165 1.0439571007617698 -1.852811242903977 -0.3961131518887694
Ni 2.7384037820054967 4.618175711251854 2.4040266769777667 0.011256546750425776 0.15554865593400305 -0.5135122933362446
Ni 4.499606769062473 2.4269488411970856 0.7843331848130798 0.48244951049316914 -0.30095173879357195 2.3106583814674333
Ni 3.1631777529382954 8.555389098192737 4.400409174911152 -0.15868308779792673 -1.335009578163759 -1.2705715622943472
Ni 3.3003742290045124 4.517590706013654 -0.24758714017887187 -1.511968581452738 0.7576123132480952 2.916425198664726
Ni 5.006705981028439 7.734996097059345 12.883352244879537 0.07191067009737293 -0.7364647326362026 0.0949752652263203
Ni 2.2757587291187535 2.306531856406894 0.5994084801644115 -2.027385290900547 0.39117329138499085 -0.2529379299184547
Ni 1.102453950922925 7.9367361505270395 5.663871768725377 2.77412466598988 0.959234109391077 1.6415251841983536
Ni 4.340105062401387 0.8514088564049228 10.631400166040791 -1.1199715086148714 -0.1442658839313322 -2.5671045816494624
Ni 1.6646818366922034 7.291658951942275 2.036766366169925 0.414287508804951 0.006457325589569525 1.9185471516492059
Ni 1.9085774887903497 5.295497115811972 8.793537429744777 1.2606725580130804 1.0491229612334256 -2.4417152229076593
Ni 5.723617790758181 7.870758271405529 3.9894146141566424 0.022767889824134985 0.7379261476730775 0.21605236974601502
Ni 0.48253219788950563 7.717297181603812 12.234860304892079 -1.3914373221341843 -0.38258066461997337 0.18971887405780874
Ni 7.460777835521018 2.9991248965886435 10.816685284967827 1.1891971756809132 1.0999994363683185 0.27876003318788123
Ni 1.379402902274392 5.96337603404854 13.805499758807466 0.7458253479154963 0.28122366423702533 -1.849600192165847
Ni 7.505765260624355 9.050241580087654 2.8252075382170476 0.11924313663474946 -0.24357705752884504 0.6509688676552272
Ni 2.5683378915218604 4.870162296129672 10.97731788336971 0.3980900731094822 0.3712462134437606 1.0044927241185604
Ni 5.770250985142837 5.301703229023651 7.2993462575071435 -0.3200624914810939 0.8293458343376555 1.6769254180745186
Ni 4.039287859349886 1.3572999449990144 4.5666125644166735 -0.14675085513671499 1.6794682391010303 1.1830645804206141
Ni 5.419904401541229 0.09915897833578236 8.075851464855889 -1.3315581292800487 1.9270161083521653 1.1595731821668933
Ni 4.926955127697895 3.1712502972343777 10.40729236113402 -1.3969695648063232 0.9063909974481164 0.059356230471130034
Ni 6.381640481790421 5.459439641260083 11.840538582208772 0.049540787042605006 1.733935774021291 -0.9234469244891387
Ni 8.579266544134565 2.6383428485496165 8.683111827513303 0.26397156202479694 -0.3220867209999743 -0.5946056583741501
Ni 2.077898645688584 7.455702614050132 7.82730628468197 -0.5685536984821047 0.5582345759442837 0.47304724334266274
P 4.336822718080542 5.8355117134043315 12.019042028387755 -0.4240872685041922 1.2722057554636605 -0.33131106781171976
Ni 4.418927297310627 7.840812625878947 10.471359676810513 -0.6381930560467977 -1.7966089846807962 -1.9850538771221875
P 7.7668909218464846 3.944145845254375 13.389903480034517 -0.8496516357745433 -0.40629317774556484 -0.758547680578171
Ni 3.7724157970058294 3.6946784826284094 7.987279655947145 0.2674662054416168 -0.8045686273929756 0.7096293576109134
P 2.260928417103286 3.2399588661690273 9.54823021785887 1.4117552077559299 -0.025508428683749616 -1.0049629788867596
P 4.046036432827477 6.736280776310332 2.979663444980993 -0.345465762045547 0.2590499563534635 1.331092759607856
P 6.625067227557017 1.1382287457475901 9.87384153275917 0.0016179952193972134 -0.3922744948689696 -0.7159596707043153
Ni 0.768463923474768 5.6323189697330145 6.2236843271750875 -1.2402274027848512 -0.7743021151989503 0.8480719499922491
Ni 5.468394832768493 3.784965937056117 12.814413819900011 1.227804860750782 -0.3135493729529245 0.40123633204794773
Ni 8.376625454970954 0.14537107644622468 11.194173270348518 1.0122016627270438 2.195038443407568 -0.3815794770489686
Ni 8.92816043753255 8.513849513762556 1.1091013877407696 -1.5481231769964243 -1.000954371947999 -0.6348344239872099
Ni 0.16498974958857113 5.301730811749038 3.7877793750454116 1.5036495200640814 2.9647506252429907 1.3409639959749808
Ni 8.50982243585631 5.656361912027154 11.786926958301649 1.6834501065669136 0.04995344909999138 0.6753832919438497
Ni 0.9898612659003482 -0.18289185778777575 3.6170542574250684 -0.9662293097619875 0.7438579397764803 -0.4085038122436384
Ni 8.897479252662363 1.6855711540506302 13.218464889250876 -0.6404980500308903 -0.8276728175106068 -0.026063272745955112
Ni 9.055528269119826 1.489549918979477 2.083124652724909 1.165771083447489 1.3738656317990081 0.7744242425991115
Ni 6.404506561134791 7.7773907459764695 6.3904127078871085 0.6531836159183589 -1.1948366333548777 1.0692575271997713
Ni 5.874237859845218 1.7505100838492962 11.866563803033932 1.6876700581855324 -0.9901894201220108 1.898728060040749
Ni 6.420532124583619 7.4582678075109605 8.966362512191118 -1.0627549501945632 -0.2321616166030518 -0.8028393034066947
Ni 0.9760055435151591 1.8524190599059875 10.338003635542101 -0.8697574053854827 -0.6443187093285614 0.20082166883918964
Ni 8.613533483304838 7.518536062477724 9.534449888256402 1.4838283715730962 -0.25020021927231745 0.38048341577131245
Ni 6.115926893912544 3.2483899858951175 8.655660579785724 1.4222995589306795 -0.23223155060903874 -1.7590518523626284
Ni 3.665532736137999 6.470254584211424 0.9454530780301009 -0.10737646710415055 -0.13724522963912492 -0.8802377360915162
Ni 3.0670335664871207 5.433622210299492 6.506261993353505 0.6852457865602263 0.06755085046678044 1.0745789394126848
Ni 5.5547563459497 4.734731114488111 1.5827096545439683 -0.4214693712653709 -0.1958841223282562 -0.33996951481766613
Ni 6.1129479595709375 0.49762730406867167 0.36214371524887845 1.3115929990120314 -1.3424984303416363 1.125715867297816
Ni 2.6080018506258456 3.5856623576641193 4.690885614215723 0.04298215998848081 0.046007834188682054 0.18999938141270503
Ni 6.919411684384781 5.772880538296231 3.114957632419807 0.7839743481813918 1.7096761301429781 0.6863562460155858
Ni 5.4355530010764594 0.8070834167108313 2.9609724708357703 -0.20102787131272473 0.20398206884504227 -1.5188722505511068
Ni 5.828928636279052 7.275615000009856 1.6222862683508996 1.0403956086627566 0.5344948091251828 -0.34340990795778276
Ni 8.631673722366534 0.7867393178908528 5.583131614977683 -0.0900757710421739 -0.002408609441492626 -1.0829802761025027
Ni 8.316789329368557 5.967145673184524 0.9620900585583022 -1.499143918884244 0.7566252667444776 -0.015788630292824422
P 4.117944597906814 6.7526373324637845 8.194714622782714 0.5388973090682525 -0.4677744249794976 0.2291958491065085
Ni 6.116432577211274 0.775912178752964 5.764891661600485 -0.8350598540032973 0.5670424040439008 -0.610207369467149
P 1.0316766775843822 3.405841376635901 3.171717364717568 1.8806976849015997 -1.463459578108757 -1.2098053388495682
Ni 2.8482290002477537 1.0606937046896616 8.482863080064769 1.35577406440462 1.627551238516765 -0.705613808693617
P 8.85205050395286 7.314773275815112 3.0385507248301358 0.08520353055153713 -0.5006508639925441 -1.1836672470016194
P 6.322107766167264 4.04920844624678 4.117064708967026 0.9790223477615977 -0.10688281529718366 1.4667094525046223
P 1.4695340545915831 6.752609749738398 10.515941635850687 -0.496293615465113 0.07064285912854285 -0.4291240595971513
Ni 0.6494812404046088 3.3928315244958593 12.091816291044191 0.7100759582300288 0.9205536621017437 0.4110517754764727
