# total energy = -340868.9423786341 ev
CRYSTAL
PRIMVEC
9.30415413585498 0.00000000000000 0.00000000000000
0.00000000000000 9.30415413585498 0.00000000000000
0.00000000000000 0.00000000000000 13.61757005613342
PRIMCOORD
 96 1
Ni 0.36858778308333406 5.967879774357831 9.674861287334721 -0.48264414300247843 0.09058999167443109 0.7263402426076909
Ni 5.236480227005515 4.17009391839035 4.781591763328537 -1.1145397960763386 0.7958050222677326 -0.35951426971881306
Ni 7.8615635457884885 8.567590665133809 6.090417343605248 -0.26709442392449484 -0.746724719801314 -0.3647156114140945
Ni 5.182339354774972 8.09837287385376 9.755899538415804 -0.533767701151171 -0.6662011112239494 0.6240324482756995
Ni 3.0396019885913974 0.4420068624391045 5.455116681442897 -1.3377786562684637 -0.07450362763552976 -0.06530447763476496
Ni 1.3934459306547102 1.6144102844273869 8.255529339371225 -0.5413506557047516 -1.792018022876004 -0.01012551846977611
Ni 9.130687370455135 3.4187369606694977 6.060949226999545 -0.27584877307835715 0.47700185711503656 -0.7948693978273407
Ni 4.514384833671167 2.3247452270830262 6.7996199707169005 -0.17124061274796315 0.2571051739222669 -0.5559995159661779
Ni 0.7677620420853298 8.38510829237944 10.224984280293397 -0.1056725970391664 -0.516694290608652 -0.7178124076423379
Ni 0.19432190874223088 1.1379166447052893 6.017059671665996 0.7345703438269672 -0.46005391640678833 0.15901553143668098
Ni 2.980734606119726 3.55916455726266 4.146372977721545 1.004114257733219 -1.1997644096737983 -1.5510125827290775
Ni 2.83588753636803 6.321958659665548 3.3536674291294504 0.13908202573754755 0.20589394115577442 0.5848218395145091
Ni 0.31897245136712804 2.0140143953450127 1.6487882031083698 0.752655226353136 0.7603423105847487 0.11811622211915787
Ni 9.00985432222381 7.72276417614847 0.47873501042502564 -0.16616216978379125 1.2488344277275718 0.1194979329580329
Ni 7.8520453962281085 7.97852606594834 11.991387224758277 1.9511104302972075 1.2821335561003337 0.4830935718350712
Ni 3.7894330650533026 6.957962715871656 11.493487517887045 -0.6524300255817861 1.2362936149480839 -1.4814436733910035
Ni 0.6520267398404478 8.276352036063434 5.075908206548055 0.8794201252862274 -0.7537276334817083 -0.7531907871416319
Ni 4.15078779880307 6.886292817471263 7.456994738286875 0.8532300971544209 0.11597192208264542 -1.615659372175185
Ni 1.3923852570966622 5.996555177041203 1.5217771966091147 1.0673718801412844 -0.3861593831101672 -1.7653122314500436
Ni 2.8761000900336793 0.3614068370122678 10.253812271102662 0.8363469482458369 -1.1270415280877752 -1.7251384874446354
Ni 8.261725905947191 2.1391831793487106 8.14844038745524 0.25811536035433613 -0.9771086756786527 -0.561368236477259
Ni 4.0298803173396 6.282909125252145 0.036439719211364206 -0.4185537402804727 1.90739550590776 0.5013502040524139
Ni 4.782353773542608 7.742284291278162 3.210777953383134 1.8076225621824804 -0.1583807260661595 0.9059562239035429
Ni 6.288147363964259 7.021333308888024 0.4260306995748549 -0.8146450377923712 1.5808170676850193 0.4396954073550944
P 5.598365297534307 0.7048259530616018 8.890938860135586 2.242329000963416 1.1354179250769285 0.47433330914393795
P 3.003492566847671 7.4028687527027595 9.169594551312063 -0.417112636958572 0.9784369075717729 1.5480537572110693
P 2.1540046966993307 7.175447316041614 13.003200017981063 -1.2230529478880936 -0.8357810484400381 0.7115700262770519
P 6.7780762020883 0.741018181776088 5.119797761881605 0.9187358921667144 2.0535357240436696 -0.3847889851252018
P 3.71172477069525 7.398002680151363 5.1797016271108784 -0.4524748185079498 -0.13312400838189975 1.115839745834685
P 6.881817519388623 3.629224837017945 3.7451722739744366 1.527962128667517 -0.05245050449023225 -1.5967229402819985
P 5.2809726915194295 4.831600660759703 6.938451904895982 0.819471255536421 -0.7744527818442016 0.7964238867986543
P 7.091374980335273 7.451892340223423 3.9938564938128396 1.0797347725820114 0.5413105464954355 0.20065403291307377
Ni 7.6912417023356 1.9676890124895596 12.667880168004368 0.7292854412789441 -0.36358818267787063 -0.663762676985786
Ni 8.00578723722098 5.34011919861164 4.8084593688862185 0.3431936781819186 -0.19105301948819997 -0.29340837922867535
Ni 7.4929422677506885 5.157683346627361 7.448484228606641 -0.1523399191887183 -0.013720177799569919 -1.1692469578112314
Ni 1.9836177241683175 9.196104877355454 12.347513954365349 -0.02722823958833375 -1.5229284228983513 -1.8186618507157775
Ni 3.95257210160432 0.07429180900265568 7.856916120856514 -1.2613533861301889 -0.2454321084597128 -0.3348370786871072
Ni 2.0645545599706048 2.9012213058821876 6.4163269722081715 0.29186417467000697 -0.5909207533233952 -1.3614392331101972
Ni 6.862762611959828 3.05258128344646 6.051729740783142 0.0494076038988504 -1.096381637110073 -0.12973298042247983
Ni 8.225942129594094 1.9261180523372872 3.9854129740415356 0.3596695643497547 0.13824127500380706 -0.39349551176026426
Ni 8.768616216845984 4.316513390171083 2.523758290281116 -0.25293098793991925 -0.18380842211064471 1.7532249612682065
Ni 7.599595785258634 -0.2278196544531142 9.577958523237603 -0.24870460856339752 1.2874297715022667 0.23760824153991983
Ni 7.071454786582807 0.11844560231031556 2.697191442837611 -1.660284467083728 -0.6570631534784233 0.8054356033789613
Ni 0.20078457412311013 6.219278015923274 11.982766926060632 1.6846952918279243 -0.490475209011123 0.8682255421219887
Ni 2.554194969320088 5.090405008923448 10.758901297783577 -2.007274121972969 0.6788972186343791 -1.2515996491775347
Ni 8.835540996697214 2.5887040765727245 10.49192883280746 -0.538576435393724 -0.10158351457145731 -0.30979736210966
Ni 8.8620485314944 7.147553462295751 7.707680281654542 0.6308469000943715 -0.2910378221139697 0.4683734920160772
Ni 6.22862869071133 6.4682478732900295 5.766169436909933 -1.488299262860256 0.8744990338355261 -0.7713088368985813
Ni 3.870909541788632 8.485890888702048 1.2392016653448683 0.2842552519744975 -0.2735905731717998 -0.5286566051768509
Ni 5.737843870417637 1.3876215302394634 0.35841182983388453 0.8762036752314588 1.0017336733161846 1.6570410204457655
Ni 6.274386520171687 3.2106030352875963 8.493360263547672 -0.8403732957964106 0.6010598986399261 0.2890120499331926
Ni 6.594700630548206 5.839324278291594 2.6303429570493284 0.6607915101726038 -0.9879232497956534 0.7030275360236796
Ni 1.256786516438824 4.884941375744703 4.57838996999156 -1.2416353388759713 0.4409411068367374 -0.04583325628403074
Ni 4.177546545758741 2.242794238492781 9.260574290961344 -0.1559345785185121 0.46368200007767885 0.7929035323502216
Ni 0.3852822266377706 4.155011884727227 8.226591559544548 -0.03679428601021405 -1.2288757252174578 0.20334623503325625
Ni 1.9854320342018208 2.599813236470176 10.369003280337491 0.2576962705390465 0.7814143007636994 1.1542617972563087
P 7.752853810242572 4.621764075192514 9.454161171536155 0.4000430830707949 -0.3888209891027304 1.3357883653113123
P 9.050876337289022 9.286113263325259 8.021361460631654 1.1483289767116416 0.7292867268305246 -0.8149548557233062
P 4.941278028323487 0.7531619636003374 2.3377831381084024 -0.3560065136758708 -0.17319413692990818 -1.7537430385552055
P 8.066068851103383 5.957905721250571 0.942636408099208 1.0668306629258337 -1.7357584290523267 1.6263181374406122
P 6.171008064878066 3.5304426338091988 12.225541147266823 0.07251179401648158 -0.36164725690141586 0.1902158682988853
P 1.0794772533184442 2.4614139454529305 4.055039680219583 -0.714491570799221 0.25036091321989784 1.0529266512502318
P 5.9279184328506656 7.450524629582781 11.870653730974944 -1.9689783117165638 -0.922085782475554 -0.40367810872022086
P 8.989115362917763 0.4953512990857113 11.42529086018156 0.08243368111588384 0.8239336621831487 0.08923219209495599
Ni 2.384412766800243 4.749519414013206 13.189610604561816 -1.1460275822719745 -0.6379490583567916 0.20039820814852585
Ni 5.1625680274867936 8.96886952377467 5.834924343856497 0.09523931752098436 -1.068936910635559 0.4204159903001921
Ni 5.655837056903283 5.409416537737451 10.924232393021228 -0.44951265055583234 -0.995756115576511 0.05177584702071083
Ni 0.05634595673280267 6.566453218949661 3.1474427161520353 -1.567046239153172 1.4761214898471418 0.8825838677261896
Ni 7.268628418531545 3.033721763252043 1.172688129101232 -0.4406019783297638 0.26921944068729764 0.47049645189635103
Ni 1.8499356392381807 8.205119432901887 7.29896275187632 -0.26624133189558025 0.2912525092279371 0.20909367903999473
Ni 7.328472737175103 6.776996920222216 10.076157823868215 0.48414489591772103 -1.0029369495956661 -0.8791730422724278
Ni 4.879163496099546 9.268481891461214 12.608902996515285 -2.056101684998633 -4.029604881168744 0.6537220049203322
Ni 7.326323477596953 5.411286672695063 12.647931131374447 0.1491815760653947 -0.7547851282119452 -0.7393309984404041
Ni 4.004051985785726 3.7846786423501224 11.808448948457027 0.9317302475438534 -2.1934001364731963 -0.7837354926977083
Ni 0.11706300502324582 9.205269469063152 2.688966570685729 0.5124558270472722 -0.5750796725260806 0.6841181007136863
Ni 4.911327956539655 4.318011358967975 0.26848439000403684 1.686250037909554 -1.1497646807169037 -0.875702053004692
Ni 1.618811149277885 8.947497881995401 0.8430884730147834 -0.5350565951659236 -0.18239534381320202 1.8614195533982778
Ni 1.2084142196994183 1.9100869949643315 12.815916701753423 -1.3837026724940877 1.9082146593749458 0.2486202763797073
Ni 4.662823306873799 3.081256686129832 2.046611498946957 -0.5120323663566085 -0.7035538408407948 1.823073606630228
Ni 2.149464269538563 5.690113560305471 8.141577643451589 -0.6603590506208756 0.07322013293741583 -0.7634392043425176
Ni 5.5198475417766915 1.3411751933817766 11.168845115061368 1.0598498607326263 2.3987271493819073 -1.9494664669358814
Ni 3.3664941358586185 4.800617827879877 5.983015772114257 -0.6956451275166793 1.8479256326769016 1.092833000526866
Ni 0.05148825792002257 4.257162191690476 0.33852606145128555 0.3244053418308219 -0.7907278648551415 -1.993378594937799
Ni 4.2358091582192445 4.890142397840746 8.978540261460942 0.526303531563642 -0.5753074722661705 -0.15946213205579635
Ni 3.267228116640938 1.4369242423806656 0.5961822770092134 -0.05469893420477676 1.024630632519016 -0.7260072847483044
Ni 4.958248805252258 1.6242168627623232 4.192168954213376 0.25696067792460264 0.8602942030900539 1.3520338806358974
Ni 2.732704468308786 1.4423950849432299 2.9576407654317323 -0.44135196912191094 -0.2526682211968358 -0.14850409038239584
Ni 6.516359653716932 7.4812376419960875 7.775319620534353 -0.04121684055794192 0.5428586077088456 1.0971367701085426
P 3.336348676840408 1.5269698449665416 11.981554594792089 0.8387550434666974 1.279924464264157 -0.08243445244683222
P 0.35383325564164336 5.602366083762033 6.4015110373499615 0.19683800160109324 0.020351567073158498 0.6073346759050444
P 2.619342655753887 3.383837078948107 8.39331176497708 0.01560093976205055 1.7617445687034434 -0.022530834112664423
P 4.575494517261169 5.6273756497623255 2.0111384813380595 -0.7278039716374111 0.25880775843567044 0.7798425854012052
P 0.6541192440790884 3.947464121048457 11.725094893440872 0.6239164915231256 1.1104504564983135 0.5054398007407553
P 2.352639080828889 8.55468580351089 2.998575321449176 -0.9298898519010049 -0.5470775308861997 0.23801833249414495
P 8.026470371602919 0.6563615451974182 0.8260116287302084 0.3682555062465529 0.10328944151897049 0.01972627478433377
P 2.1373316526991353 3.521222217177394 1.5065258273428648 -0.046953743041719134 -0.03137928564222983 -0.46351822080630495
