# total energy = -340857.443250541 ev
CRYSTAL
PRIMVEC
9.31447110571818 0.00000000000000 0.00000000000000
0.00000000000000 9.31447110571818 0.00000000000000
0.00000000000000 0.00000000000000 13.63266998438819
PRIMCOORD
 96 1
Ni 6.213031495624747 9.060800557505514 10.116940464547781 0.11920662696985922 0.5040771160652738 -0.974505947948483
Ni 6.118927396558294 7.258329358589675 0.26452165786283555 -0.8473538408793019 -1.952063538239096 0.5185010048000878
Ni 2.4004229700402653 7.517457937826413 9.262962764429025 0.7097363155024228 2.022058736481311 0.025308911078433832
Ni 0.6443098925788205 5.4029799086196695 5.531374300698421 0.21258060914733068 -1.1876863954633419 -1.0365047582487825
Ni 8.45060025720437 3.0430189999814306 7.566963418983327 -3.7590248126884935 -0.5815172006213081 0.9397276639270332
Ni 2.650646915137882 0.9313138887487629 5.275938909156413 0.7914608863664241 -1.2984626322776605 1.5555467231540048
Ni 8.257222527745926 7.794386470870532 1.0414472607127188 0.567812449440706 0.7192136588652388 0.16070680309617483
Ni 4.830084064100089 7.06595759198377 8.361338751536376 0.9268394951104554 1.3105432175912786 3.21480660562796
Ni 5.157599488367599 5.7468236002991855 5.986923647022524 -0.8430122760811545 1.6545329093119312 0.03865370781645601
Ni 1.4879587759644493 8.425572274012094 5.939168354939607 1.1659173792173663 -1.7444816678579376 1.5576951369555754
Ni 9.225359314132955 1.0094185212244569 10.684564318562401 0.3940974070103213 0.6041179687399595 0.8730404470121287
Ni 6.941246141681804 0.7213917961544357 7.0310627898128635 -0.5846084379521223 1.9398734239308073 -0.6515016002302457
Ni 7.781085406486993 1.8145800110297046 3.395761737117553 -0.19334001575016377 -0.230118618031094 -0.4214837694430741
Ni 4.0213923898401065 6.680990511471392 12.696269270676249 -0.8725604220519165 -1.173349152905063 0.32466939412548607
Ni 2.5075673283062674 7.900012570386873 1.479458389860515 0.7199885893580503 -2.3088167002730047 2.55623832835892
Ni 0.4997213614684013 1.4915169038317544 6.81794303937339 0.641388937276276 -1.886305003786048 -1.9282528089727435
Ni 4.958251183089934 4.802122022587914 1.4991026088975488 0.3030788124389039 0.6628607339968068 -0.5584500343891995
Ni 1.6203080923690067 8.33471892527467 3.749611033391465 0.14707507124535316 0.5255545692127593 -1.260353741221081
Ni 7.999016081124014 6.359687839265381 12.581154519698064 1.6430328790921318 -0.45071412706310116 2.380384899429294
Ni 8.237876371776311 8.215158377356527 11.43875050370953 -0.9310422203378932 1.9324892156515947 0.6103760338345294
Ni 6.7229894605647935 6.5825738123982305 2.5447693249084073 -1.0731532627097518 -0.459341463720796 0.7617777574796945
Ni 4.5448656519933985 1.870243288870062 6.78433922286324 0.648971120498908 1.2779195180189864 -1.1876141474645094
Ni 8.384411627295805 4.96892556669185 8.958613360629512 -0.18025052955605733 1.7097576341131906 -0.1725315636452448
Ni 8.024407328679706 1.329845633169927 13.336309409814303 1.9321274614368016 0.4576180532717861 0.25236354547222345
P 0.06296116575667583 0.6574209417568805 4.635584872350484 0.31166886810075994 0.19054059862815573 -0.5084395067990275
P 2.5452629918638183 8.413910556499355 13.17204871625428 4.968721393874339 -0.6092650601585379 -2.459313909826029
P 4.410690699300904 4.070423764430408 7.823993447936021 0.5965126455888758 -0.2629840013005471 -1.4969399692543897
P 0.7128895471563302 1.9598671274543853 12.392341812406547 0.8357298834871284 0.6928835056111422 -1.1425910457866
P 8.07138020521065 3.4679265315278522 1.4461395961585837 0.4259911703951244 -0.18703258547489723 0.9872017982485966
P 5.823025286378831 5.217631253039805 12.819917008406366 -0.3721209027392301 -0.9097316317855751 1.3669385656618718
P 6.762287213109719 9.054932440865718 13.062374547703564 0.3556948959727229 -0.7479570495465182 -0.97806718293718
P 2.1856964733779902 4.665823370540065 0.3750173627431217 0.2681542326475768 -0.7874769620180115 -0.07562874237890846
Ni 7.441582258226756 4.508846593190076 11.470991613133327 -0.0187274012061742 -0.8631098181619781 -2.2998414933575875
Ni 6.682825462230185 0.7930014481016691 1.646553476902269 1.4373893633842665 -0.06099222341265625 -1.144784711003809
Ni 0.542184171210473 2.9501630400097905 2.8019903005136673 -1.942365851335358 0.31679899023847374 0.34433524798552956
Ni 6.459250218253931 4.74150344625173 7.635889571876709 0.5649826933013947 -0.16628018341889425 -0.27385642523867676
Ni 8.732260541443754 2.825740338304387 5.136613054080097 -0.03435405199983761 1.1935292273973637 0.7639328561494844
Ni 4.78042861996238 9.161778736064301 0.2119917680187126 -1.2970444117738953 0.5122563094419565 -0.218121850680534
Ni 6.177468845893409 3.454392605372893 3.071795126246491 -1.4629451003661837 -2.34289127335921 -3.488566100277456
Ni 1.311719672882555 8.385659766390619 11.390327364066177 0.8500650691628779 -1.9244195512695825 -2.7947091750094515
Ni 4.135774091961858 3.1748094481345794 13.579883754167236 0.5065083512145857 0.7371082797574724 -0.5814400675264696
Ni 2.5430927201541795 0.7533394997462433 1.1560189780399492 -0.5801259767007363 1.8488915961345966 -0.262447926291419
Ni 1.6327056530794344 5.059359764240717 3.282815394954837 -0.7087446410131149 0.8532033576815434 -0.4741119371617513
Ni 6.543667267629293 7.791620073026057 7.233263186066887 2.6768647184944414 -0.9329466364494579 -0.9408836319083475
Ni 1.2003372303766997 2.0526206282466006 8.945825523590184 -0.39394956857854735 0.8364641905499917 -0.16962338885951433
Ni 5.851117730483001 1.6157533161200217 12.257691821700357 -0.7490939913644389 -0.9950212942930154 -1.6519139836318455
Ni 0.005778697719571224 7.297506023013462 9.648358310600816 -0.2517379960730826 -0.5909742322691499 -0.2839840005909819
Ni 6.233420872330327 6.758570739237848 11.428825935011588 -2.257887517523305 1.2226935076661458 -2.887592333593433
Ni 3.830194246562159 4.981984454833112 4.163335611227189 0.49058011002010343 -0.5604369829122413 -1.1594798511221387
Ni 2.718894043105803 0.4413475726087094 7.6411382762045275 0.9995839739630333 -0.03231311031040887 1.1142299781454035
Ni 1.7884994926306081 2.7657737749281788 4.511282327319134 -1.687231685096533 1.638896488326255 0.28939925806928224
Ni 2.3902515678646172 0.8639050631579555 10.51211061643672 -0.9163110847753059 -0.7136011977744677 -1.4505536686803664
Ni 0.604509158607628 6.603484799471792 7.477914283250868 -0.024170169488300308 0.21734871995993538 0.16778093633413685
Ni 6.7407521564887505 4.613299069378456 4.598558919247538 -2.411700421713124 1.463017862585648 5.785823120737319
Ni 5.694662563500992 1.1483345395830729 4.656224808322112 -0.4795025120497031 0.30850358299890096 -0.11224279405751637
Ni 0.7979893472454963 9.240849279167847 13.246483447212386 -4.523564449184041 3.7568609722679556 2.7208861183807143
P 7.400198064209904 2.049761085693557 10.19491935166691 0.16709290912817676 0.2840775887460527 0.18518524785351334
P 6.489419789359172 2.8750884049038206 5.937899724008908 1.1390570644914124 -0.5732541892815676 0.4246076597840364
P 4.980205390899459 0.3673943997939001 8.123598991728155 0.6923001223038464 -1.8096426779363026 1.1276197691887484
P 6.977293143897698 7.033319686101471 9.184016103787874 1.1300558894340667 -0.47470869020548573 1.0903953376196511
P 0.6499172040346263 5.787797957598337 11.24474404746825 -0.8225959172083317 1.8502576232441879 1.6728949567588867
P 0.8430667289570773 4.052623810623024 7.408824195670404 -0.2718756473632221 2.578801301261101 0.8778903189052624
P 3.7975935985632883 2.784011508865833 4.553053071876544 2.4535878059755287 0.18596763454549264 0.33728374045538684
P 3.7061348092201714 5.8917195089478795 10.274615827212033 0.023598099034914197 0.7197713311409217 0.08386681401798458
Ni 8.220346537623774 0.02379195290957572 8.935383070312602 -0.5155246957805831 -0.004240777554224954 -1.2283540483860327
Ni 0.03463213409274302 0.4342713690987831 2.335412620695089 0.7395976218382295 -0.39672995953716195 -0.3133812228061764
Ni 4.636929881942209 8.420384113744845 6.223817652876946 -1.6899999918702895 0.5949879814142335 -0.9069720667625669
Ni 2.9236074835969963 3.1585091241351435 2.0155490342364564 -0.21598654950508608 1.2834982976583444 0.2642384425329385
Ni 3.2450591873367167 5.97323975788677 7.637103247429353 -2.3448016030080456 -2.37059131037764 -1.3210487451082926
Ni 3.1158581620817642 3.544454224087487 9.354656278437735 0.22079554085795522 -1.426035628934344 0.1933374446470025
Ni 8.638994744754413 7.2380610700052355 4.047852938650161 2.2614096717439507 -2.8746743399801846 -0.35652407674223763
Ni 2.4881932289240813 3.044928466507079 6.82207400719839 1.4509892135558882 -0.21459686824641105 0.35146620260335604
Ni 5.4948019623262025 2.6514107017481408 9.275995572051887 0.29944764344421976 -1.2710839831543916 -0.8338509212968607
Ni 3.263734701404641 1.2903615912078663 12.635317236283388 -1.5014201165129304 -0.696252422083375 1.096765759922369
Ni 8.547591842236438 8.410883353470888 5.959685339895925 -1.1383386982681494 0.49050580513874237 1.2706618080153085
Ni 0.21455790473976658 3.89603824104902 10.569599530565013 -0.2040987969285646 -3.7474026550685333 0.45235500510063387
Ni 2.4345418767887974 4.30885558942329 11.458435706418333 0.3741322767423041 0.4294593314493829 2.193087490328784
Ni 6.899647714835245 3.298142356749735 13.26218857652407 -0.5115376861083771 1.5752609137534805 2.0025170669039576
Ni 5.049570255370199 4.228732511112923 10.87060876511527 -0.5753023300598479 0.759215653179473 1.3211834709139438
Ni 3.2840216189307956 1.1428017438941216 3.1737941708111856 1.4089791876726896 -0.4622141572829008 -0.20255304970799953
Ni 0.9042413792034152 6.9788672894725 13.32493923523938 0.02007003127699769 -2.8894185881688945 0.7024061003895967
Ni 8.288146570990568 4.931006355833735 3.3693822242039526 4.043791714192087 -0.14285563384736685 -3.153872489146749
Ni 7.244450797013013 8.724995254175434 3.6357788850502657 -0.6039585603439599 2.6337198076758512 -0.3543460952543123
Ni 1.678607365461844 5.352169470095715 9.430944589096347 -0.7319997548863135 -0.18312528000069106 -1.3870571907886176
Ni 0.8534197633144329 2.6381841531314567 0.7153019951082467 0.6095244844675115 -0.626918768684559 -1.198958111722419
Ni 4.451935176254905 8.526829886696586 11.361562415166148 -1.8551499183394826 0.7249096808087516 0.43017924033454297
Ni 5.090227920660219 8.792255048232532 2.5155004631350213 -1.4779616283796742 -0.9649432439607124 1.3299187939044126
Ni 0.07879949200161282 4.539314227362734 13.138375972659789 0.4603519072631814 -0.5630939609191141 -0.10704042392097049
P 0.6082712733866976 6.980152686450742 2.1805045873223987 0.009442376359822448 -0.3851587097597947 0.6583469052868532
P 2.704298267273166 6.199180877460656 5.586913696076382 -0.01393692179606632 1.097309805351297 -1.02732206330825
P 4.422510762818209 6.795446729359998 2.0076829635978717 0.3579672369466674 -0.20711444382643687 -0.04695220037982236
P 5.0183108911747105 2.0342804351295216 1.6254636519882568 -1.887288193634924 0.6134094213442145 0.12345563205420029
P 4.111621669030123 1.8191906741038308 10.893607125107845 2.2149570367083657 1.986025754117154 -1.7794039336564194
P 5.675512011419371 7.612456226095121 4.403570717777951 -0.8079154323780215 -0.2274007048792987 0.6114229870418051
P 7.865521084804068 5.968880585525778 5.926707455827353 0.016010773605959525 1.2858739969793724 0.46871544873652826
P 0.7773643144272394 9.022536711225698 8.024884229587576 0.26069597659731875 -1.7309178131305736 0.6838427355651125
