# total energy = -381167.72835022555 ev
CRYSTAL
PRIMVEC
9.26478023918110 0.00000000000000 0.00000000000000

0.00000000000000 9.26478023918110 0.00000000000000

0.00000000000000 0.00000000000000 13.55994237837819

PRIMCOORD
 96 1
Ni 2.0273562315433797 0.42307710785403607 4.593511306262756 2.192301761202695 -0.4930681665492799 -0.5892438798416045
Ni 6.70346675794059 7.327811021309675 2.5354784614673407 0.22590226595690124 0.47392836039603536 0.3908753005285978
Ni 7.604633384680625 1.358930144655469 3.2546162484840124 -0.47900731758083964 -0.4060098421771911 -0.5713813977388869
Ni 3.5788548297168776 5.266786579033339 7.912701218799207 -0.30334029363040665 -0.5744862619164558 1.0399446371682672
Ni 6.447230735859852 6.608484232779809 11.757839724570376 1.1439614437715653 0.6128399219939898 -1.4845904465501012
Ni 6.054830241257851 2.0103738896959635 8.81420601001138 0.7902187864292067 1.5561769005388362 -2.1548415594737085
Ni 6.110298479468697 -0.11473318328970729 1.0027466017805462 -0.8668793125067393 0.3675906189690444 1.2031760064585084
Ni 8.394279853855275 4.911815795868087 4.995808438923355 0.36876458467248746 -0.2605874760439125 0.025151045344330877
Ni 7.6623066405454185 7.193221561398374 4.920062376598247 -0.8044164180858275 0.16289609743800978 -1.0425049416962755
Ni 9.072118957282726 1.1651109458295288 8.349941395928827 -1.0151581742522064 -0.41411267378998357 -0.00844273145071449
Ni 1.3744023273533332 6.417083141549164 8.41209973181999 -0.007918483516128299 0.33181114737658984 0.12107324786495277
Ni 1.5090010520446933 4.05835352164979 12.717245685236785 0.08632093198543198 0.8419475822620661 -0.08633892970756099
Ni 2.0444404859714407 7.889423458901972 6.25350603779051 0.968695254803977 -1.089931510609355 -0.90640205319171
Ni 7.384928390370954 6.233047550465107 0.7484737865942265 0.4262184559145821 -1.321143361704628 -1.5627501828809796
Ni 5.422536796598486 -0.08746878853325525 12.228383080098643 1.434637768781058 0.791882547284875 0.6750248801631664
Ni 6.00072392571562 4.501367509711931 8.20634101093253 0.27692812218546503 0.6356759460518988 0.3005784146145533
Ni 6.931454465622652 2.4160044902216473 12.466088615584173 1.28478102102551 -0.5771995470825607 -0.7530259794289935
Ni 4.238312609508062 4.134954723174306 11.962702541226168 -0.2028309859597345 1.459954907389608 1.1139214457660491
Ni 7.944938021013111 3.602452224526135 9.390097326629995 0.7658470424530617 0.3215249349592334 0.808718387895291
Ni 1.1563557286741506 8.436073276699625 12.81551442788435 -1.5307358347579123 1.4118102293635815 -0.4056084929737144
Ni 1.406245376414746 4.404133642996909 4.194388287250233 0.49098300188547706 0.564423221253499 -0.6433365479209501
Ni 8.52176322746163 3.9464813024421788 0.03725368061563599 -0.41762762892177757 0.36989227051902746 0.207250712293985
Ni 2.56231389690708 6.469873858323075 12.11727242581185 -0.566644911495166 -1.1115413755696468 -0.7386285730567408
Ni 4.071240830711305 8.998028511154091 5.53892466960666 0.31903713554037316 -0.8642141069697504 0.5710448403350746
P 0.8668498814029758 2.5091525889308253 7.210227991673942 0.6010598986399261 0.5161073077569305 -1.6234459580991396
Ni 5.942948757270182 8.850162621418812 3.9650219802954516 -0.9813988184135743 0.47944929021426463 -0.07862433467212265
P 6.987756534038772 2.9596061953800223 1.733313421477508 -1.1584115577586243 1.2307731993504867 0.9820655054632957
Ni 3.0805856933852387 0.4189913398481929 12.199716924119324 0.44515514491808494 -1.1814812950938944 -0.9912515428379379
P 2.4049794019519117 7.703016084122913 10.174621298910244 2.757364415812406 -2.597418145031339 0.9199911047300543
P -0.026650139838566757 4.568259221735032 11.13975011421885 0.482693251072859 0.15786701965453456 -0.024249359465667916
P 6.287839459731675 1.7825622128350151 6.678230423538966 -0.005812492916719022 -0.2478965108398053 -0.7289303719323704
Ni 7.744485239665213 3.4093649433248245 7.116081149674447 1.1375658246578668 -0.4218676351450541 -1.4323772548816558
Ni 4.376960043085032 7.657173952392954 11.035433323149029 -0.16452437707005216 -1.3621390873906993 -0.7303367653615939
Ni 6.264464419643823 6.848349388496997 8.945738092503344 -0.35180250289685217 0.19213802502226263 0.30434456652520486
Ni 5.238816208036422 2.7191017698387907 0.2897606287227862 -0.45551669065806716 0.6563905528914309 1.5560534875870944
Ni 7.549563532012299 1.522768515211775 10.208521129144666 1.046219157323069 -0.4409159100257568 1.8325704903770694
Ni 7.348527069520708 8.479247151772709 10.6241197065354 0.40484693221734147 -0.2706304621022113 -0.582714820473835
Ni 5.074079153814431 1.8650928735970358 10.73487737270196 -2.137423363997261 -1.8237621480568205 1.6134268833002405
Ni 7.6888502354133115 8.44393907496938 13.189470598345688 1.600185187798986 -0.5020207477568773 -1.0120175717406958
Ni 2.793053244266546 0.6830162625241963 9.671561344810302 0.9964212599643354 1.9845460842478337 1.1752939353362597
Ni 4.611812952790517 3.897924590155049 2.7075680451438373 1.089447371884085 -0.32615292064954793 -1.5142650907963986
Ni 6.013981825979478 5.193594816570388 5.701643854731887 1.078006477036995 1.7752757704206585 0.15042598999545706
Ni 0.8417414009661603 8.661133313883171 9.635424070191728 -3.182108858284623 1.255574831775199 -0.4413339713997818
Ni 2.1579618360294828 0.6959063510197284 6.988387465560763 -1.0799096075969787 1.9945803285553843 0.4099153478791843
Ni 2.900589546406732 5.763221288913374 5.952461833434354 0.1368711341291578 -0.3294932978766906 -2.1314044114966904
Ni 1.4614634655640097 2.863724986553557 1.5903096883169845 1.1336613473971378 4.388957942719345 -2.6137397650094982
Ni 2.470259042244817 4.864000265985645 10.181726458737186 0.7508857931575391 1.3212181808066215 0.9523985745264822
Ni 3.498371685347808 4.979383836835466 0.6283068098001495 -1.2378267637631586 -0.7457906380228189 -0.17549373159736226
Ni 9.057147072708027 6.803229909611609 11.551335188888197 0.3648829902298941 -0.09156598243445521 0.8305917909296148
Ni 8.298370850688634 1.5449483986720665 0.9213925680859678 -0.0785798545874324 -0.23720303568170115 -1.915334815359495
Ni 6.571545554686166 8.742441023677456 7.213428046706183 0.15481563442272048 -0.44653428465379874 1.6648777428813648
Ni 2.737835155117282 2.725503732859284 11.184986329332977 -0.5661090935963541 -1.6956803300845182 -0.3012289037143586
Ni 0.7290668518054744 6.432471941226501 0.2402023937113218 -1.2337438519430364 -1.4759813647248514 -1.2525190756680107
Ni 9.11990669282499 8.315019660453942 6.537736519296318 -0.21083997230714013 1.6019458792438346 0.2102290781960186
Ni 2.6545818415106908 6.55879721732553 3.5353344518696037 -2.2996208927063493 -0.9816093917624837 0.33296223026189753
Ni 8.893892383295412 3.414701456638579 2.909855252943339 -0.8659094923943024 0.5066381919242307 -0.26703271744862395
P 0.6885779099933748 6.535459236357912 5.271183643649151 -0.46552008172768217 -0.8478762890416752 -0.3710083864013417
Ni 1.1268196098473293 1.6339551406950497 13.241446014474443 -1.220292097313505 -0.16908859940196685 -1.872590225303117
P 3.813374207340253 4.209925323408508 4.536465276007929 -0.42084459319717843 0.8148774655181513 1.082610808578226
Ni 2.6289739894287165 2.8491700170814944 5.7045187159840705 -0.7964971632387507 -0.572029315735531 0.9137386960624392
P 8.395150743180785 8.060719977405451 8.547686082065598 -1.6671277152578061 -0.8440363464702948 -0.02479520466680891
P 4.710770068596438 5.3463432453965485 9.661648956625605 -0.02471472913786066 0.24702259287528427 1.7719037686246322
P 8.615198534352626 0.705613061087125 11.877574036135716 0.3190672174473602 0.1352950478912896 1.1550526685887206
Ni 6.084801804747427 3.80935329279482 10.688204190200747 0.9887413748215745 1.6161404255766618 -0.8723855870369491
Ni 2.646086038196953 0.6982457079845252 1.2181833119172207 1.867521809641274 -1.010896313652059 -0.2561168418670686
Ni 8.150180693651306 6.324092544100981 7.016592235493163 -0.8181800475288232 -1.5777479418413924 1.4342094229943878
Ni 0.9320646682354706 3.8198595533812743 8.928353659201385 0.1264730787242854 -0.44197649007978723 0.19447438646492313
Ni 2.807812038899898 2.3224024172895983 3.222763934642541 0.38570172674745834 -0.2820790702587852 1.196654660400223
Ni 3.2479446803638137 8.40299801189042 8.243061966694796 0.29297360568410186 -2.5824463542128555 -1.4385450742552646
Ni 4.909527395193612 3.452575877518141 6.433460493258753 -1.337631074947006 -0.3779099986171814 0.49630364276744204
Ni 0.7887162852567673 1.130849789172821 2.425629670224528 -1.4755298790097298 -3.2162263687936217 2.2204944215868276
Ni 4.859414199856637 1.2893609111954312 2.4625396274999907 0.44562899923071 0.5837355484288657 -0.5862387744666936
Ni -0.03821721774173053 9.001252654614484 4.2405463479801915 -0.6670919984693351 -1.6407934482386517 -1.5651055704870334
Ni 7.402170146060009 0.4478196294785368 5.44352986173327 0.8359571690065861 1.5657650584479033 -0.6101975992751363
Ni 0.4793309994138517 1.9773542135671085 4.73332795508312 -1.126153469055867 1.7686410387129605 1.105441433319496
Ni 6.862802445388415 4.9175321651642445 3.162788380933185 -0.5902574087077834 0.4805499794776111 -0.9127107690185571
Ni 8.389360255644158 5.955669300290641 9.540639811324201 0.16359286639471826 0.025049486769460085 -0.8123287309543687
Ni 4.594024575078002 1.782914274477242 4.724745062836832 0.7544094900400814 0.17582643234643267 0.10679128402464189
Ni 5.222565783813635 6.870668243658168 0.08800985168867757 -1.3902787830497088 0.9486859015615856 -0.5909521207819629
Ni 3.6833800783380175 8.513739927930882 2.86238159344506 0.4542013142807532 0.18718993698836794 0.4349635490970638
Ni 6.802201519025104 3.1940421899828704 4.722033261713679 0.15014239731676723 -1.5608041148982021 0.13338806067656384
Ni 8.92728265062661 6.220104652723241 2.6121732372704485 0.0041531029364251055 -0.4022321203023137 1.1604226746513822
Ni 5.160009988857959 8.995777169599851 9.276464799211249 1.2088139214705762 0.9904676134840619 0.387976381714248
Ni 3.513630778104324 3.0417847944998164 8.965209880752507 0.13214570362903047 0.6863837568194114 0.1714876957617627
Ni 4.873654166806707 7.19941043447752 6.988265170463989 -0.3065338608670399 -0.8167687690035933 -0.43544691649138556
Ni 1.365387696356314 7.701811662715295 1.9714933137020372 0.6791059922110755 2.4890798282345523 -0.05008714646437826
Ni 0.971727191666343 4.626812631705392 6.690841642154734 -0.6113841633840696 0.07794556343754318 0.04180639451282477
Ni 4.6639458701802665 6.6760615385272475 4.495093400656246 1.446739951361231 0.6656611795600794 0.10765440335588557
P 1.2640680616354498 5.073263853169274 1.6634384502755366 0.9129740499822728 -1.445202431670782 1.069680473669803
Ni 0.8479052591391478 1.593023342396149 10.5395053967382 -1.1855922319384742 0.35120857806659517 0.3801833680323904
P 3.3010133405394817 2.1532275334195377 13.26809152192298 -0.5693777370452969 1.908432174702391 0.17922594494628488
Ni 4.478261148245778 6.305600043104014 2.116395400296568 0.8586741509881277 0.11389292806642964 1.3400990768715242
P 3.026368200482304 7.800787308081333 0.06892903715798812 1.2132812132133104 0.9591808875556384 1.873451801972464
P 8.561805606874906 8.814363511272377 1.7377336480434666 -0.5458706550622922 -1.280038621244518 0.9772804253698267
P 6.260406445978156 4.7996378389185415 12.67830210873846 0.3410275237685353 -1.5223344980680942 1.585830461739211
Ni 4.2917055369857815 1.4326036756814666 7.640227743187766 -1.113030558520664 -1.873923856512876 -1.751124884206068
