# total energy = -340896.4407221891 ev
CRYSTAL
PRIMVEC
9.02492542825770 0.00000000000000 0.00000000000000

0.00000000000000 9.02492542825770 0.00000000000000

0.00000000000000 0.00000000000000 13.20889061770349

PRIMCOORD
 96 1
Ni 6.526383681239168 1.8867598866399158 11.356436104975698 -0.3876879039395517 0.3859212989574321 1.0850924373494988
Ni 4.6438564845167125 0.19077157629476818 5.89267058125366 0.015992775883830523 -0.4259906561744922 0.38883564439074964
Ni 2.8204425478355435 1.634847149612063 4.623164136024703 -0.47879211624623996 -0.5134315606969803 1.699880484208795
Ni 3.5763341826474537 4.472852201881246 4.916877619088163 -0.826353584478551 0.03173358365785502 0.39246758471638216
Ni 4.730089644775414 4.7076717305857105 2.569406131044333 2.13245445002776 -1.378660224974174 -0.7539883433422627
Ni 7.166286977417396 6.22220760239466 2.527203775837453 -0.34221537342904934 -0.40784123895897506 0.12206492235426074
Ni 5.139794173950115 4.702085301888679 11.314259922051889 0.08192768801374278 -0.544476602928243 0.2653923536317236
Ni 5.636065785615813 7.9414468275252075 12.329442170240316 -1.167306289145093 -0.040921163694394046 1.2164727235674146
Ni 1.763280860092605 6.583159485654395 0.4785114613702395 0.04589779097337902 -0.11010183645511362 -0.22508131271750267
Ni 2.5797477928277393 1.7278399788434244 0.13907409728797385 1.0244665961373258 -1.5364141160896119 1.1697472944864176
Ni 0.6545985818767363 0.19577138485398543 4.756032694747121 -0.17649980426437345 -0.5798578106410143 0.4329614310653705
Ni 8.534321238501123 2.456783187016666 1.3508471935382875 0.12361863999462581 0.05616934810271616 0.4433623146837203
Ni 6.849096956438608 0.8760440739315541 4.990041785168882 0.1270739455330779 -0.981840019716051 -1.2739610475918703
Ni 0.737931131177076 7.543501775882383 2.6715375995303217 0.9878453453698663 -0.13869687448398693 -0.6539950560760608
Ni 7.688333775446134 3.9944589670310897 3.758920151788413 0.35108156557042763 -0.690735606030204 0.03182357226850003
Ni 7.677747538189886 4.004711282055044 12.721032772051831 -0.963625039369921 -1.1021054269677277 -0.5486456467042681
Ni 7.909697140681658 8.744439546941006 7.052094598897946 0.12767918321724464 0.3230053761595018 -0.19779393775645937
Ni 6.984461809470556 0.5781836377400067 0.34534508011631543 -1.0557533220657493 0.8006448668585372 0.4750678733171173
Ni 1.9161630929322078 6.237026529568368 9.282719477921846 0.16243561286182348 0.7556402771233889 -0.18186441101039647
Ni 8.917582736848196 5.001279622024364 1.3742921442154257 0.7211407006846225 -0.47633337029310224 0.4635444460585501
Ni 6.2171987689102455 1.9706285164969657 7.060468826988375 0.6211265874828141 -0.23378732513193282 0.14040485831402916
Ni 3.208685804891439 4.219026180711599 0.40176530247877473 0.9243568378979178 0.319210942114076 0.04220131595839829
Ni 5.923608927321986 5.581699636228223 4.6884296875728815 0.09731034111740015 0.12603753384876357 0.7608647587471219
Ni 5.438456023499169 2.7519794652900167 9.34461602489393 -0.19372748099656958 0.03648986739591781 -0.2589211440850831
P 0.23254524755478406 5.470945754208883 12.405076458347493 0.5947619814463563 0.7863186800438523 0.18366418322329658
P 3.890275230555271 6.017982570108511 12.539806859138082 0.38323963836021097 1.1784903307863703 0.500076479546313
P 2.333755406729212 8.630238143496358 1.336343236253959 -0.0017313808688099214 -0.14384036635813938 -0.25988556488088144
P 6.466521352406518 7.645131458527411 5.822557742382096 -1.2963167895792513 0.5868956913244021 0.19133866904941885
P 4.706372141357322 1.1658578868173288 12.597437323969478 -0.06627224086467295 -0.7365773469546669 0.061157802456243054
P 4.094419038514646 5.851093653362941 8.233074650375608 -0.5775206778674054 0.8036880245602352 0.8670832009874292
P 4.705442574062016 0.9547558615309566 3.7686679734938475 0.8367778651356685 0.34202614023637873 -0.32988282000562547
P 0.204750282932623 5.604270974146278 3.5211332276791287 0.547191944976877 0.06687130790125258 0.1865816139804077
Ni 1.3675288652726867 1.2858713420889367 2.6454898604263275 0.5139097858849795 -0.6764073623329899 -1.0940550458594256
Ni 1.847907583666215 6.603745340029078 4.770390448243256 0.7083286365216188 0.0036455671723872704 -0.23093134374037647
Ni 6.019444607990448 5.6327355882180665 9.286378182596767 0.2512975661015543 -0.23102981699145372 -0.6187511452721022
Ni 8.65313437872151 2.179708958539178 10.09871169959161 -0.976809399270679 1.2777379981357995 -1.0686018958936436
Ni 2.2453562644231964 5.268579856513346 7.006893261048055 0.15640740438987255 -0.957772437243886 0.2364553588823992
Ni 0.607335951111818 0.12286803911146414 8.743017218729937 0.3253759332742074 0.07734263974622163 1.148619254258551
Ni 1.1431331251709227 1.0585515262232983 11.255414702288956 2.711588238018556 -0.8839444955191423 0.48338307805103203
Ni 4.005288877267661 6.7042559319496595 1.5700355518012998 0.2980978142845447 1.5481805125969208 -1.030085227875684
Ni 5.693175512263334 7.750867482137138 8.067726288361191 -0.3648739913688297 0.16629329604501683 -0.2633724949882174
Ni 5.15206807221823 2.8131955329022373 4.890657503912903 0.7247860107466937 -0.07452033980607811 -0.2276603862985886
Ni 0.996432966091363 7.396079622787052 6.940360610002196 -1.232291435767226 0.39751388889103795 -0.24573524152242843
Ni 5.152817141009592 4.311576788608301 7.102935612503532 0.634808712955597 0.8665970053796301 0.015022184440445096
Ni 8.298247245194256 7.267239790672638 9.273724334977853 -0.44022428327537083 -0.38357079644738457 -0.232957887252102
Ni 4.639741118626815 0.35285562286537786 10.533812368271072 -0.33541197735397077 -0.31022930744075605 -0.32379804726412625
Ni 8.198675245494178 7.200915615398834 4.625912225747233 0.07626534752164285 0.273353003239697 0.5547869837153155
Ni 7.347336001797282 5.983489306005031 6.913031331520209 -0.6636480057847924 0.030746022933605108 0.7261101288747559
Ni 2.3443867686114466 5.220467980287377 2.672158514383885 -1.2901780236713651 0.2915803248810011 -0.4812313218153519
Ni 2.2919519532160457 5.033877651836445 11.45719307735416 0.2869250854971768 0.5221463148621588 -0.2769602609749811
Ni 1.1733666245813519 3.4228202050440513 3.8816437920967233 -0.6613101016802353 0.09268081276518877 -0.10424794877749789
Ni 3.5618130780052506 2.7033080437018246 2.6940060533011287 0.7358494676497069 -0.2700501641187091 -0.5727255704716072
Ni 1.1212025569418653 3.2647666900664856 8.326342739825481 -0.4222604997080986 0.4680693305120971 -0.9102545941685808
Ni 3.7710740185514053 2.5177194819477755 6.977702140497896 -0.9972108457451665 -0.5237691951775625 0.029965693124154844
Ni 4.033058572099271 6.720419572977742 6.2680803946792185 0.9634844000269986 0.11864175560532471 -1.6098216824474858
Ni 0.861984142966925 7.407848125244127 11.476491074903212 0.25279060570731304 -0.8269161418502403 -0.36051802839297914
P 0.21636626415386578 5.6617507227268815 8.010161705483734 -0.17338954077016588 -1.0447402587846975 0.3313730313979067
P 8.333787400620604 1.766692281817125 7.896433208119417 0.3583554735240216 -1.0829262829361157 0.5836928681163883
P 1.8488100761859294 3.0960818132066854 10.428497808668052 -0.5925914561575988 -0.36275643080519465 -0.18084908237200467
P 3.984179577231544 6.2548507568327265 3.761575284781413 -0.4158898202950644 1.0960250251016026 1.0085447827007468
P 7.071723811201731 3.8597529335385325 10.434587828191082 -0.42263228122522045 0.7676630126158779 -0.04662104229264875
P 6.345569304914408 7.67492273660318 10.408288293674088 -0.009494312643680423 0.507092762963146 -2.6100440613254663
P 2.5420145805784844 8.49257193453914 5.7682962821267925 -0.5609769145761113 0.6702554837989811 -0.19032616862450447
P 6.776699006507126 4.055566735540945 1.7872420364910195 -0.24458261597522396 0.2579461817663235 -1.3587498592034921
Ni 5.341131230173179 2.9056558915469677 0.4565348660226765 -0.04658607528965525 0.3866844023757018 0.07098584429025839
Ni 1.6096224836860482 1.2573796532415562 6.925579587514316 -0.09725480528911638 -0.1337649844000083 -0.8286819755014115
Ni 6.754651114250506 0.6422299218940517 9.29335264478912 0.46884143279143126 -0.5295672899165783 -0.8241316371265677
Ni 2.8011562826892487 1.4284741851289935 9.11026398731468 -0.4479373356489124 -0.1273567668808194 0.7285295369495259
Ni 6.30550766196429 2.052358239082293 2.6770193390950663 0.3623026310972276 -0.2487740283487522 -0.14163950205207862
Ni 4.010008913145767 6.846741450962154 10.366139185525872 0.678515152704612 0.11646531677929618 0.042486451298984894
Ni 7.992834751597739 7.196006056091588 0.22349956502968762 0.4583973546399718 -0.16931357092857938 0.32956734564773565
Ni 7.532608691169431 3.8143936594976924 8.231674884477531 0.6685338731221842 0.33099945010857185 -0.25147934309505726
Ni 3.0434484494569474 8.281848956111048 12.29376483595097 0.46314361107570556 0.26661774139839245 0.7412914646008846
Ni 0.23416702661271066 4.776703383418658 10.207209350311663 -1.1547405366649404 -0.43016509926715596 -0.1819088910950867
Ni 8.590672871432083 2.3722647625454214 5.8177637021173725 0.5078831200749252 0.6206169948362472 -0.4145230218545248
Ni 3.780748738362743 2.7564648531129965 11.34379489225206 -0.026101067962426013 -0.41327038039434627 0.260222636505326
Ni 1.0162246270486976 3.2863272363624603 12.596776699445048 -0.5624779246016699 0.37417804237857494 -0.05096852062806705
Ni 3.0658753885718477 8.135022448078727 7.958422711821033 0.37655991234719016 0.43739118470194993 0.8401123288255403
Ni 5.662120744659965 7.8524610650813775 3.734153049569894 -0.6967645858331032 0.675741703724533 -0.11335762438824995
Ni 3.1184185030696145 8.409786295705747 3.4170081532170906 -0.07386702249279536 -0.4154144233205426 0.4876040581109151
Ni 3.4112953755672994 3.932051609292846 9.117833192077523 0.08518836104288555 1.0081285210989348 -0.12969389965442826
Ni 7.329692273036868 6.0526743825663285 11.324021281145118 0.6163901012390932 -0.7096375851410295 0.5475891804152956
Ni 0.427582003497722 0.059391227737358755 0.33908539199957705 0.6583055105259565 -0.060597816187714995 0.45193565817502807
Ni 4.6198862831931 0.22759597857667083 1.5882505583266937 -0.7672485507862787 1.1615552455939286 -0.762656560540222
Ni 6.016737130431306 5.610019851496858 0.30705502998239675 -0.9867356572454554 0.29217116438746454 0.43793882967530384
Ni 8.098110504022413 8.799284017364045 11.329001234868903 -1.2028127095818186 0.07634659438153948 -0.24264914639793694
Ni 0.12817559761990396 5.029744236096153 5.713822736129357 0.13160654329610882 -1.129386631281184 -0.225435867843444
Ni 7.808275031316165 8.676337461403365 2.6172887741702953 -0.640815067050677 1.4322980649042882 -0.16743640851052455
P 8.465406909695739 1.6495216779826172 3.5205655598842283 -1.0063187215837055 -0.016387440219087904 0.7352694267765209
P 1.7819805051010853 3.307274087745029 1.6847017388936005 -1.2615050812167048 -0.6661131794958334 -0.9079735114438879
P 4.629858825535944 0.7586442369970389 8.204120885358133 1.2323762821715485 0.8268228108054857 -0.37033835691751055
P 8.45121972728583 1.6914244056729524 12.407744226235769 -0.0873023220620948 0.5531936710862666 0.40055241860704566
P 6.137607953596642 7.811749627517065 1.326661296502464 1.198146414454401 -1.7009294942985997 0.6655963877604151
P 1.9029415775183933 3.3565501793214296 5.918058598325744 -0.1009494805318842 -0.702852443898396 0.9523306974030243
P 6.916504122736069 3.891692143811222 5.847906049783311 -0.051970222419704046 0.4885147428506425 0.41701827747255277
P 2.3448921644224865 8.410038993611266 10.136251778441647 -0.2618755987277167 0.043396107597447844 -0.011877725274192447
