# total energy = -340860.2569025986 ev
CRYSTAL
PRIMVEC
9.36570877562620 0.00000000000000 0.00000000000000
0.00000000000000 9.36570877562620 0.00000000000000
0.00000000000000 0.00000000000000 13.70766149348205
PRIMCOORD
 96 1
Ni 8.06520535315155 8.365413788450164 0.5598109027903827 -0.15863963615450097 2.9773873401703947 1.3280364892800354
Ni 3.263247147592184 8.378244809737962 4.079537053933108 -1.529470080671611 -0.020346424866835928 1.9490969994116047
Ni 7.3827636034021 5.453942669740989 10.297907953168993 -0.14424197267193223 1.4252550420145778 0.5772064890610963
Ni 5.072271297828307 3.865677645617791 7.3880187027047155 2.655322216436975 -1.0070792538988138 -0.2858182255862432
Ni 0.5611679940200192 5.357063776163624 10.309381883227157 0.5562219163896291 1.9772595778887496 -0.33391919485852817
Ni 6.988598375724509 1.5734484725339302 1.0448010297676507 -0.6702763097345875 -2.1701571067848557 -0.6292011369608325
Ni 7.951383892048908 6.224328426711192 6.0231464420565795 0.05003289618767512 -0.22949383996290154 0.19127747679418025
Ni 4.744546409578193 2.6946830531991908 3.9326462110311318 -1.0755780701011606 -0.43117348592701227 -1.3437834677016471
Ni 4.264226025092966 5.902934757724255 11.622425247010657 1.7506263473030947 0.3260948137181029 -0.2732990100733099
Ni 8.609961815344846 7.2336989794483735 12.469887042513758 -2.485982934476783 -0.3085951142714427 -2.6795936873898305
Ni 2.7321084262400985 0.023605332885962088 13.028748262414663 -1.6917455138064865 1.260722180304093 -0.9499148888726803
Ni 0.3073760123727407 9.185943551241444 12.336908960285522 1.5372214424822557 2.4616772678518832 1.6951270286842097
Ni 1.414296980020379 7.366973018080035 0.556229455680562 0.2889966233142249 1.1428463563305156 0.037912458775057285
Ni 1.262778540316723 6.1064516136248885 6.905508615462491 -1.8626166590301727 0.34435041749418116 -0.5727890767196909
Ni 5.038507916994353 0.08826618760929261 12.213773301613015 0.16201909414969515 -0.3313943715541454 -0.297002781448153
Ni 3.138308589943107 8.979944782463972 2.041578450224851 -0.5855265788910173 -0.24490786052512659 -2.6277810735939133
Ni 7.467289126849096 9.365081466695258 11.846010944090485 -1.3176800857463757 -1.5571675465868795 -0.33289101070432986
Ni 4.371809924022123 7.653273375559393 9.15104317333863 -2.961451899887061 0.42411400797706955 1.3033266452381813
Ni 8.995229619501702 0.4139877507108948 5.553632212580011 -1.0308917829373794 0.6475032777041301 -0.48716825612507714
Ni 3.5613670297906683 4.145375178273866 13.24262921186061 1.7917436861686948 -0.3856215083288262 0.9129907621528212
Ni 8.794550573418734 2.359830860423519 3.6457445750359505 -0.22201912885241118 0.8024698358824179 -1.5184601027143527
Ni 9.297030225325079 8.04131342957113 10.415725762288792 -0.47198229241325806 -0.5781161453595592 -1.8155726702674926
Ni 5.512703127813727 9.437731271169314 3.025980022850155 -0.1338608865479243 0.30355446652374174 0.2468873528490006
Ni 2.838811948526151 5.564729641137611 9.660652939483224 -0.3517353971043426 0.5563113907796419 -1.3344591049769277
P 0.22714747620081224 5.820479055959452 13.342119265098585 0.27777632911837324 -3.715556971312846 2.2166097418204402
P 3.0329818268755266 1.5398817715883308 2.732800552132922 1.3299997836539934 1.1636208698737056 1.3689692229386554
P 9.132699495751563 6.682920366387883 8.640774997853502 0.049722306925791784 -0.7899963860057555 0.1647812302758646
P 9.371234737488022 1.4511229476872585 10.210741299792685 0.6477817281764974 0.31973056206297196 -0.30927619949886737
P 0.5128222043210284 5.682175631611332 4.665142055795553 0.2616783951152461 -1.8595722157768941 0.2718820751211253
P 3.918996626779425 5.738182571247124 0.8882944134670008 -0.005932306324034945 -0.16841677014592285 1.062136599884274
P 5.957658595231268 8.960005188068555 9.872038864059775 -0.6605508549167075 3.21876944693045 2.0728117986644623
P 3.0473488244342737 7.781827096870581 11.039876275984861 -0.18466048569829488 -0.06296683064052382 0.33233590953180825
Ni 0.5179321351346219 7.794133638456104 4.595616651833622 0.1902320662488014 -0.3097438831639052 -0.7570196739694188
Ni 5.536979045461883 1.3056734873956417 8.47114327700342 -0.22925112782447613 -0.005452281363822868 -0.7652212359436047
Ni 8.79237772893788 3.5552137589979065 10.433025163325794 -0.39767663972114736 -2.3272440537402566 0.4745341123008344
Ni 5.390518088601593 2.5796253185126155 12.634584907878867 -0.7959104374973454 -0.45455072720037204 1.0063002096409446
Ni 3.707846718068897 1.200665158433014 5.751104439911924 -0.06721043640822619 0.2832368380123122 -1.80102716835315
Ni 2.7461382582759546 3.9835825558310023 11.24490194760043 -0.6694430152000149 -1.6549134325798014 -0.8819133240217263
Ni 7.308521628403281 7.326700469512492 2.6750225569310544 0.04572861238536641 1.7977014464140266 0.7594419102576663
Ni 2.139221585654103 6.082943684112206 2.624633169534985 0.4976784116277816 1.6976695926004055 0.590248666957035
Ni 1.0285889875419723 1.6858557115822226 7.836642718325492 -1.2365070165104703 -1.5565576809170223 -2.036732793553718
Ni 8.090923589980962 3.777171695858887 1.2565597095611767 1.59416263575399 -0.09734068013470333 0.5901219115711837
Ni 1.3805991591492113 3.4634579082266916 4.019004603723399 1.0621389138771191 1.678056189244852 -1.1675729125429182
Ni 7.5016706444750145 4.036704857104283 12.62753908502134 0.4764040756300376 0.28039911145320096 -0.6241296359751961
Ni 6.7611989619524255 1.810082475349641 4.592670199791914 1.3695716324093445 -1.3412648150448514 0.2892642751533147
Ni 5.863364637329401 3.9547268064969088 0.7668530115470215 -1.5805201052698907 0.7567530505715934 0.5333951483031008
Ni 8.828594925521763 3.772882201150995 5.556510294946245 0.8411322854496224 0.423712915883909 0.875324615060615
Ni 2.7062122409402716 6.082690809970038 4.795255167650112 0.9956203613295952 -0.45406684558541804 1.1659356340498115
Ni 4.599799377459266 2.3838258068026 10.329710154544795 -1.8753832146672218 0.27815890926877257 -0.6056665441740021
Ni 3.244384609728223 7.000005809248989 7.038527906810191 2.1250476160407272 0.0360347821363702 -0.42569395086967976
Ni 0.29706436679765563 1.1087969191541682 1.094293182244471 -0.3697621726990664 -0.5696919258516059 -0.2648650203733438
Ni 3.46440384483258 -0.02093610582974117 7.629656803822668 -0.5361246314191218 -0.5718259414754733 0.42779711325561165
Ni 1.7521836625020701 2.7988203712276833 9.543315591233545 0.5947175013616661 0.056331841822509436 2.1462373627444653
Ni 1.8825168685174045 4.738477430166154 0.9257563127728886 -3.3213302378135126 0.7924954982785255 -2.6564396178708702
Ni 3.879286020750033 7.726400831190878 0.08647359091258847 2.0742760419148145 -1.3891647240499236 -0.09925846598270648
Ni 6.397153854319769 7.354863156382865 8.777454408266363 4.986138303799207 -2.6878752106723325 -0.572341447659311
P 6.543240182821291 2.803109865935575 2.6196300078036403 0.3155360643656501 1.4160466360424322 1.254457430341304
P 7.378717617127407 8.204613931158034 4.758847847174155 0.482043533304002 0.27425726022152125 -0.6762410119584548
P 5.792129054909695 8.930259696382386 0.9439613778672122 -0.1481215102319965 -0.5881128515609549 -0.29680480650473395
P 5.695437475511714 6.577115952162874 6.917708387965766 -0.42794803701117917 -0.05194528271903958 -0.5583106805978578
P 3.2255408032822004 4.713892444122014 7.590686088801843 -2.2638316509218814 1.3991938261511514 1.090123314905187
P 4.94055196688553 5.517788707784 4.077412911138894 -1.0083619772659793 -0.2721546120562216 0.9688101831152864
P 0.33573912541505446 8.224553525553453 2.2526899595286056 -0.0016979565277132048 0.279537534783854 0.06404797951984453
P 8.030196333024694 1.8338807418403686 12.918936261321736 0.9277553220565055 0.3934908837745739 -0.22978874549550102
Ni 1.3319817638901137 0.7218638919425905 3.7762688415142565 -0.013795511122195597 -0.42165423358266735 -0.13708453569154455
Ni 5.077057175111565 8.033146531349992 5.309018625722544 1.2656499566230137 -0.03945203534803528 0.6376973473573018
Ni 3.378332979405667 3.710946767737701 2.171636304396491 0.49128613494819257 0.847505793076134 1.5114474188419453
Ni 1.751415674366596 0.21643216856915487 10.455107631933364 0.8936506670633125 1.4699888945868425 0.7424070662625666
Ni 3.3259786662678605 2.3278095014578373 7.824374576146742 0.21524812867716478 0.9186335622608954 0.17357954529378491
Ni 6.396123626333158 3.9948120408850687 5.090093305425789 -0.3323325670976986 1.7746677045230144 0.6089714401775189
Ni 2.0033813427648814 5.975603293616248 12.136695389938325 -0.44439435549266054 1.2522689073304174 0.4432784967206624
Ni 4.747524705030398 7.108104822171453 2.504280062997226 0.2075438180543716 -0.5940441294437252 -0.19257614100094578
Ni 1.6690348982735463 2.5350820066551183 13.264424153202826 -0.5744993745425784 0.048027178611556 0.554643773269232
Ni 4.162973345426986 2.059613059415935 0.9094056580544659 0.4932879958695698 -2.0897365994442594 -0.8971239703238936
Ni 7.740486857480548 0.6563891571098369 9.12987854421004 0.6750184524052633 -1.2016096904126532 0.8387095349407427
Ni 7.829910646718433 1.6311037769483019 7.110671026429012 -0.7350606531998244 1.8532802121205951 -0.5876978755107233
Ni 7.0941030872625035 8.588832775910339 6.876009441922213 0.029453272264110566 0.11286705790507659 -0.22958022902912073
Ni 5.1218627268202 5.341713379163111 9.161406330313046 0.16554407658381812 -0.1846705130006239 0.9839645222582214
Ni 8.133799805641942 0.2927626966681039 3.011024858768143 -0.20801844369794498 -1.2212421199316 0.14161327679983352
Ni 7.26577653266787 6.257473670753177 0.5437468387664174 -1.0938043633012002 -1.8470856532741093 -1.2607602326308802
Ni 6.5715808181620785 5.231066893401027 2.7188737428957275 -0.19669504826532577 -1.5322679551317224 0.06458971095592747
Ni 6.7588107061652805 2.0332766857945557 10.96268878551523 2.1648292668140394 -0.4053601244083341 -0.853268406591524
Ni 0.23216843277919832 8.66968694144141 7.891925688657967 -1.5741131733022826 0.7139842921454994 -1.3634416082522065
Ni 0.7191918551736789 4.1809086781029965 8.080872311115222 -0.6149762516107021 0.1017920310378376 -0.5368674231224173
Ni 2.016156169798865 7.9425239313640486 8.956696283089737 0.7083620608627155 -1.813488276934638 0.37500465204492833
Ni 3.582570994896929 3.8108507853121165 5.635686125430036 -0.033195512915362185 0.8780425282124105 -1.3748148830861548
Ni 9.109163469111973 5.896996898237784 1.9831832548019128 0.734555945649264 0.12791083961207647 0.3069367527324133
Ni 6.82977468302488 3.480634618476197 9.060394349367574 -0.5745024598663718 -0.6922065341487756 0.6094944025605245
P 1.7447660209984666 2.8501538220878473 5.944464184435464 -1.0036851406156004 -1.485753356509951 2.4522423476912283
P 5.757663245903053 4.124489647272559 11.17052416982156 -0.015159481349257762 1.0406892286437754 -0.8236246155831621
P 3.168634755585364 1.848453784996438 11.962196310136951 1.1104990503480616 -0.029138312126853045 -0.5722031223092339
P 7.456050276086059 4.12447091585462 7.2467613337477115 0.5488937581593322 -0.049889428631275365 -2.051146140765571
P 1.6114732509488665 9.17211976480291 6.037594921283358 1.4890574811825195 -0.025201181855975953 0.7022271516095713
P 1.2335668940418 2.9260909904100902 1.7979107999732737 -1.3258250834510132 -0.3272502674787848 0.42812672868088847
P 6.229329715300742 7.075221817980604 12.088033039276175 1.131164292006897 0.3130066130755771 0.4404873071287704
P 5.8331040316499285 0.9332160999668534 6.248459175870326 -1.0473900377027188 -0.49489056446999935 1.1072980269122608
