# total energy = -340857.1437553834 ev
CRYSTAL
PRIMVEC
9.41659140412612 0.00000000000000 0.00000000000000
0.00000000000000 9.41659140412612 0.00000000000000
0.00000000000000 0.00000000000000 13.78213336358399
PRIMCOORD
 96 1
Ni 4.312648229852013 8.843215219606634 7.022120819513261 0.12191528415027392 0.023813814590146084 -1.1286775210293014
Ni 8.38826201910821 7.094224602092564 5.38578182746764 0.8407144811859134 -1.3694659600694157 0.576336170641001
Ni 8.523738520651671 5.7515881564770845 0.2180223424088258 -2.0642592811087614 1.7868449633154968 1.5061532603225416
Ni 5.951116313230016 6.380559967424051 13.761942584871985 0.487386028562838 -0.5335306454397005 -0.33346488092992893
Ni 8.576970512256954 5.805441643119682 2.702428037579182 -2.1579096568760705 2.3292436006687884 0.7683296996655993
Ni 3.9244115799503385 6.407595001547306 7.76055391473712 -0.6081728555356236 -0.08054803405739676 -1.529809980509533
Ni 3.0970416032273804 4.021101141210384 0.10475863849453401 -0.09878949676608792 -0.34620315443220373 -0.6258592170717932
Ni 8.84410979579671 1.9874940463799076 13.75004848818056 0.23976025488591612 0.19562084136454053 0.28274961396324855
Ni 1.4607110861140875 9.410593105718972 3.497216607800411 1.8886791604451796 2.295321494000047 0.36824573605454
Ni 9.046415847034615 9.225651249160023 12.25227558134118 0.7680391650083741 0.32634498205569606 -1.4056017865600243
Ni 6.936741526273222 4.9768192597306165 4.795217468167669 0.8080517008455697 -0.6992189609108668 -1.2430635866820656
Ni 2.4444341476794484 0.7954270151231997 7.837003454281899 -1.6194926298783463 -2.9167910666445764 -1.4055737615355666
Ni 1.3554335934293091 2.916365462606375 10.01728149460071 0.3538645276322035 1.9174510903715496 0.22703175157565417
Ni 6.598638809381723 1.1260360085193015 11.043595799405182 -1.634578063456559 1.1931638736381451 -0.9735914065540135
Ni 6.015177385030959 4.296489358881792 1.6223082707486323 1.1195647600947558 2.2130029983057886 -1.5797078937812408
Ni 3.6320075814845305 1.7312026762187616 0.6227804020524903 -0.18175745311888697 -0.6281629255043052 -0.3151362578240702
Ni 0.33938243167288257 7.414341629267791 1.390313589909961 0.9437804938401682 0.6025076868300463 -0.009077279710919851
Ni 0.8399166432035666 4.703982938348795 1.860547093394037 2.003227462707421 -0.3626857254682593 0.6502381601367898
Ni 0.04915272417853362 1.590415217083688 2.368349030224731 -1.6390556396119387 -1.7579943576323915 -1.1647984351215748
Ni 7.438118522740874 9.30050373479073 9.528526497345462 1.9472262647514527 -0.9047701740152417 -1.773165408945875
Ni 4.0375613431077895 1.7277467871476244 6.420158617892568 1.9355251742644406 0.2371300163519206 -0.3044744072348498
Ni 4.862727837425718 5.647384155220398 3.841632207616408 -1.17223895056002 -2.9028842267554973 -2.9095418412813308
Ni 5.682611623926458 9.315372532728947 0.7210208759283836 0.6231418181406301 -0.5546003216258061 0.15187737773000295
Ni 8.83397754337016 0.06641804464700778 5.665876457557998 -1.3660507637402797 1.0611773212947984 -2.058257297889055
P 4.758081256369731 8.6143072974533 10.866592129459226 1.1270063039744656 3.0698025579790227 -2.265882105693007
P 0.49352450083707516 7.221226171308987 13.050192343250236 2.344622397117704 2.5953440361111304 1.292824717265593
P 3.665530647133709 8.955178492238298 1.0193027107925674 -0.24398046361485076 -0.4389235621860763 1.5435052186084384
P 4.653830172155671 7.1309775586174915 12.242145212232927 -0.7699883183149449 -2.4823008576395056 0.7058200111671521
P 1.467396866060974 2.652926899516092 1.1079231948181234 0.6923343179758915 -0.5696204491837222 -0.5990482675265361
P 1.1644557017352135 6.965179632526177 4.285320339733901 -1.0602288413385998 -1.998021493026449 1.1818659321268226
P 3.265325509467959 5.553519571402699 1.677396272533536 0.11181264849863323 -0.49529191367347597 1.8247684778341478
P 0.2137924095184857 2.5084104701571217 5.132783439345123 -2.822000663735553 0.2449556830439265 0.6679114090468368
Ni 6.094813499130705 2.7247001597346414 13.405178066996346 -0.007773730408147902 -0.8667895810064103 0.5577458092333233
Ni 9.049598654952991 8.335387857978958 3.4772459006013166 -1.6017664162431768 -1.2010944413391316 -1.1789680417537374
Ni 0.12915231870919577 4.780972990244211 4.703415117882884 0.3184856339122773 0.10158480012303797 0.7439350728713189
Ni 8.298116988922933 2.697768708117605 11.503753550011556 1.0563048236938453 -0.29039864586807407 -0.1140371669537778
Ni 6.822028608931007 8.071318383259884 12.047307459693439 -1.4889417815402617 0.7444824607343565 -0.5491511255857768
Ni 7.154839201413845 2.6108535688080785 9.400049348244988 -0.786527967841181 -0.18586890418409924 0.15346271993925184
Ni 0.20829123677908967 9.34504421246506 7.653439245055669 0.9959916286260846 0.8360494716100764 1.962391659637982
Ni 4.49147871854402 7.681744577368833 4.722254892445892 -1.449431382150465 0.9931945254969219 1.4001217372820598
Ni 3.7571540821804787 2.5827073768908337 4.198052078244082 1.2665133330645737 1.3295639816681553 0.43801776254235536
Ni 2.788996646322447 1.0955921682822811 9.909422914192774 -0.007103958034632927 1.3706278415880009 2.2471472482876655
Ni 4.7301139796905005 7.124103446841115 1.9784804850205275 0.0947819182685916 0.4666693648407769 -1.0046282212551603
Ni 7.327294657677622 6.779032452258494 9.664969141174208 2.905006672415139 0.8727835938063161 -1.853807031158343
Ni 6.474330385327004 5.607533140100363 11.12635728021531 -1.6002579500184504 -2.3358253676513647 2.817928550548708
Ni 8.49385967590312 6.601623868879136 11.863826116472183 0.09924715312879681 -1.7592979069351635 -3.2382954327785196
Ni 2.2807643712613688 6.511299923455844 10.363585121007342 -0.9260257409599084 0.048644500480580735 1.2181837927212504
Ni 1.524734491549133 2.710980185956312 3.599658764792221 0.8739382762360498 -0.3559936581600643 -0.9611968895444025
Ni 2.459510110630104 4.707165746267172 3.8761421320521126 0.748032382869144 2.516120634402428 -0.22740019065866643
Ni 1.169597160680284 5.806053721565524 6.653531887723105 -0.22679058209912556 0.9462284411600284 0.26189539622205865
Ni 8.153402811143 9.256189255311789 0.5534121392965253 -0.2354413157955881 -1.418147741545835 2.062565438346106
Ni 6.477296611641468 7.129781651500232 3.61747966415769 2.3786314070732972 1.7692025676433851 0.645661596509701
Ni 3.997474913200893 3.543331539569275 2.15511219960324 -1.2463697682371633 -0.2982428245028412 0.7130088156061075
Ni 3.0116802015111444 3.9865140007245885 6.16755949324857 -0.1696154184397143 -0.016439890723578137 0.545656739279273
Ni 4.332705569692674 5.959741911020646 10.003527621093072 1.46534882471167 0.04454873314465231 0.49397730862711053
Ni 5.735824782348791 7.754817327210862 8.576221893234731 -0.8723390500697299 1.0406419203456079 -0.27429608387925664
P 8.65532596991617 4.188678803090377 6.932605759297627 0.1728848332196055 0.6813662490001621 -0.2575620589540274
P 5.95158714280374 4.858104291011744 9.010276852273824 0.8079401149683698 -0.6536207034557776 -0.3533706187149205
P 8.219413117379162 7.846921008422831 7.753759843988277 -1.7110958933086404 -1.3819257830993232 -0.0697206044245896
P 3.099254502223885 2.62453587622051 8.120488057303072 0.664662820202552 3.4803043744892963 1.4897218542393957
P 0.1752408840219309 1.1387484070098606 10.23949139523824 -0.985318979403587 -0.23584575032285832 0.1870356707986908
P 5.799170193197673 3.4824532756867086 3.4747373206325127 0.7141059053250282 -1.3850992957312984 2.202572547001084
P 7.072792439896628 7.305024418840458 1.5817754944058453 1.0417793763841607 0.2567367348392546 -0.671406823794605
P 7.355779846887949 0.1252030002447954 3.6169692848997728 -1.2727652275115566 1.5057087165859553 0.2181668449858565
Ni 1.952323077222694 8.459046537221939 5.693096056874154 0.5364167087382439 -2.79214707070923 0.4037758106403498
Ni 8.421041174030902 4.451213373399107 9.734307270837455 0.9033264995901799 1.1172307126449406 0.13493175101459987
Ni 5.071041674024346 9.268110660118491 3.0540934711713867 0.029765404187890674 0.7233060837670576 0.3242716444664351
Ni 4.151313768119607 1.4558992078706239 11.669456368528976 1.1628739644053523 0.5396102759748771 1.0194071793365476
Ni 0.5342418423727623 4.1738947544754295 13.433225384703109 1.4180626380311965 -1.307184842642007 -2.5605737225094805
Ni 3.0416908785403387 4.211466954458638 11.574070063529 -1.3281015381900159 0.5802789573388328 0.25308036903358994
Ni 9.253336028095019 2.480386693929044 8.28129801489035 -0.2658153001017551 -0.5104030582833016 -0.5933980112192943
Ni 6.809579875001734 1.9603365965674835 1.8002771413207226 0.32152082119417524 -0.5105498682738111 0.967146165149302
Ni 1.1772622661405174 8.636050207167893 9.96471713933097 -1.100071941477467 0.7000422281431106 0.22857209947958054
Ni 7.183992968618861 2.3393167370497365 5.207523867537283 0.7691591375454302 -0.5114348419819256 -1.725085008498881
Ni 2.3531873762916575 6.28138442601474 13.725985330326653 -0.5045820807261503 0.9964986501694904 -1.256874524423229
Ni 2.4762433936802695 7.549658048756187 2.755572454883751 1.0626171390651185 -0.9243606945526596 -1.0834785558951598
Ni 5.1960280926652285 1.0803184569106612 9.112816000157821 -0.39488673568083604 -0.6256375879792901 -1.2079528590218616
Ni 6.5393801992327685 8.188489030976942 6.170757367713306 -0.2539121209062659 0.2260878996051461 0.4707767021409312
Ni 2.8059465109765256 8.864082386314099 11.801171883437528 0.19147159508285735 -1.48793905130736 -0.7904530139271999
Ni 8.313287117788335 3.592749811627389 3.118166784541247 -0.8764458731492518 -1.2350697698433115 -0.4217138831760092
Ni 1.6877074401981005 1.1371005035018251 5.756934897116299 -0.8207398378361993 3.3175890256035254 -0.9023960173561104
Ni 4.437135569144748 3.328906335103704 10.026157573724563 0.9773051079601749 -0.19723318015698288 -1.3076448129975609
Ni 1.5911967941760705 1.4874824556760573 12.061172448980475 -0.46856529631190913 0.7957955091860359 0.23474069018413765
Ni 3.3666857000993504 8.431710172171499 9.195274266722473 1.7786824821093628 -1.3187748614724513 0.5207666609058129
Ni 0.38607365883998496 6.446777438672652 9.091701177094576 -0.8281327878661608 0.4050793599431218 -1.068892944771501
Ni 1.9258059556305351 9.298714582410577 0.009384575063474962 -2.126978771625169 -0.3432798101378217 1.2775449082883867
Ni 6.482984232892059 2.9984687236724374 7.282672255657465 -0.5249207922835024 0.11615189930393545 0.34428691124609745
Ni 6.640118894826844 5.456274431245658 6.910747967167045 -0.5266837977211962 0.7781122329736598 1.9280784881784083
P 5.24586069474822 4.034067787670754 12.107604719882028 -1.9228658336292175 0.5285799863026445 -1.0999613840415314
P 1.854051528594935 7.876244274274387 7.822683643626646 -0.4047530869519545 -2.062333524840958 -0.18517084967581013
P 3.4424139287371847 0.60875438905124 4.5267419702976825 0.3109440741195935 -2.6201916912824292 -0.04960455040100489
P 7.807625572199791 3.858476606445972 0.5646282414017882 0.6054451721918154 -1.707038178299499 0.43916884542766305
P 4.5136642080579135 5.529676761789295 5.791211290083436 -0.03725734168956164 0.34647466292603557 2.48260939001886
P 6.177302840447222 0.8745621665565038 6.559757703183561 -0.6278333100790284 0.5336219196019261 0.6035836935030444
P 6.763617492014757 0.7261331434398832 12.905258758888944 1.6328813924804266 -0.5932278041900171 3.0983145493757864
P 0.8993946599338767 4.969116487904485 11.072262728830966 -0.6221635133877608 -0.6282331166206083 -0.2061381959560966
