# total energy = -340887.56654037663 ev
CRYSTAL
PRIMVEC
9.09367750328848 0.00000000000000 0.00000000000000

0.00000000000000 9.09367750328848 0.00000000000000

0.00000000000000 0.00000000000000 13.30951622907559

PRIMCOORD
 96 1
Ni 6.652425203977099 2.3530345182997805 11.366100192427275 0.8673246275742741 0.16280405194483574 -0.29006388823647467
Ni 4.682407287776868 0.35015659849816305 5.786511593093127 0.44610748152902524 -0.40721157579477607 -0.40672640862824144
Ni 3.098206826342358 1.878671925837452 4.683472157410663 -0.7513663323383833 -0.08680455649006986 0.17295630988748922
Ni 3.517261672325201 4.405550276667374 5.091848297919836 -0.6185076618027283 1.0822937915584392 -0.7274998101334309
Ni 3.801493655877124 2.665693337677891 2.459398717033306 -0.9550406401350197 0.6219871357108965 -0.7037636428587557
Ni 5.0452995815963915 4.635320225746158 2.375163073098067 1.101328182482071 -0.19051205938306545 1.1416027137314015
Ni 5.429998514031142 3.1685918900962577 0.3521099204224961 0.6927073850445941 -1.7439731036526351 0.24220100311692483
Ni 5.898013719607137 8.197595601634898 12.089473136796618 -0.4727132570420116 0.1126711398441866 1.2124661735111828
Ni 2.2144014050015635 6.353616055412579 0.1823509678197768 0.3092862268011964 1.4919052350439597 0.5782554991509009
Ni 1.0794195177762127 0.1988978233761845 0.10699348121566628 0.2054044031138656 0.7971677069432141 -0.13170038856149577
Ni 8.214764464731457 0.0015604750568694026 7.057078392922856 -0.7986787442711019 0.5742335224757014 -2.057848749596727
Ni 8.740015276414304 2.492640655089169 1.1843196344342373 0.6178998530154003 -0.02765658537500398 0.34986440533387486
Ni 7.025729758519908 1.0531115088046323 4.946787773373395 -0.30885222458757133 -1.5340795544191645 -1.2105967244026117
Ni 0.9188888290878936 7.736991743211285 2.127699555731692 2.5510570412682965 -0.8059637079682893 -0.04396817805083395
Ni 8.008528952990542 4.046531889457561 3.435758678474981 -0.1455061840963365 0.7672241253062463 0.15537870601504208
Ni 7.833921251551443 4.215410574079482 12.751129110793224 0.19199610012775967 -0.36721549501781275 -0.8707205406297005
Ni 8.278411113467058 7.608561736054137 8.864071224699925 0.27729090484152247 -2.3213963367102277 -0.37338382861205377
Ni 7.0700523425943915 1.1794226891071733 0.22533678130358603 -1.1112405564997767 -1.1645354112681752 -0.6011290613149647
Ni 2.12735672409041 6.921106999025255 9.099410141872104 -0.5486196785623391 -0.41099829653071795 0.08831636514890596
Ni 0.09239994758359157 4.952207605155995 1.2960463747821909 0.5715958277425381 0.5421962915344984 0.42887414836987425
Ni 6.474034532703166 2.031600300146151 6.9448660501970645 1.1940681306199694 1.229666082329237 0.1656806021616824
Ni 3.5445608921429277 4.395865510143097 13.66594488173443 -0.8180792602849009 0.5109591878970877 0.04150300433979304
Ni 6.383088664149839 5.957722805990613 4.380773642984703 -0.5242469061449294 -0.21222271158727965 0.12687597058965894
Ni 5.423278286367817 2.647351390185434 9.262691668000418 0.8674830075290093 1.2205468936367883 -0.14355651656913343
P 0.4048787121474482 5.812514963868873 12.479774683931469 -0.38056337707962845 -0.13445044050280716 -0.8331793491511329
P 4.287032377971693 6.305974279055127 12.383692706333154 -1.3799925706323524 1.2103105606207607 1.5164297025478852
P 2.8406647862164935 8.513691831103316 1.0082687663778584 -0.33551662125263504 -0.24092650727987538 1.806760471292501
P 6.516692973797422 7.978756252896191 5.583448865427629 -0.03609468884002816 0.01044459237209169 0.7827929262787808
P 4.947888108349392 1.3519752194340784 12.305911754678602 0.38617532394976717 -0.9166831234027438 1.2381694918145578
P 4.372858506099511 6.253540134661718 8.089523610269206 -0.19558304614806962 0.5790440564904672 0.696887998784845
P 4.961119409093826 1.2867917392030765 3.518676648542269 -0.2642230159139708 -1.3230392931757602 1.9671163188071603
P 0.38726516822174684 6.027571342772744 3.2670200364863686 0.40414527816462653 -1.089133183077776 1.883595061054053
Ni 0.6857223914674978 9.445511869578553 4.801381689082425 -0.001740893950506679 0.35607130547553517 0.9051134162872735
Ni 1.8621759948749748 6.923353137364688 4.889131129998866 1.3340711255098894 0.51243140156724 -1.5152886469649065
Ni 6.357289901117563 5.87214220715496 9.118708744236255 0.01440357701983971 0.5215878712555275 1.5081438083900092
Ni 8.943913713040912 2.5475664671141756 9.940318867768468 0.4042470938498135 1.5594041492268822 1.470352191463532
Ni 2.565526480152154 5.812633181676211 6.981280772328346 -0.9466737562275632 -1.160348369770021 0.07732309936219586
Ni 0.4940349449712186 0.3334278693920037 8.953005571793 2.056322028539555 0.8272935797943171 0.8804349397039869
Ni 1.7599812472695064 1.5125331891548603 11.26957989957406 -0.225373904257257 -0.5305527937582992 -0.20090857212604105
Ni 4.223103825233978 6.673549816780758 1.755192516704545 0.2863381026454553 1.8872167169670402 -0.9352405746899571
Ni 5.900178014849182 8.014057908902993 7.779359186625939 -0.5920744073118642 0.8234680354006398 0.2810120624468515
Ni 5.3424536808581715 3.021256127442423 4.847485724576726 1.1092006432516122 0.08869868818898917 -0.18566013060740283
Ni 1.2454155066345698 7.972090587297792 7.138026672446333 -0.9646293122647194 -0.2320747133162003 -1.4182786106967444
Ni 5.551753761912404 4.549221287293713 7.30876137664347 0.26190336664185865 0.10180231545048272 -1.1330365693289455
Ni 1.2397774265922679 7.623284399906535 11.363425741878178 0.16902200783008955 0.8179859292401459 0.021065305310731464
Ni 5.018464139330531 0.5146766835002853 10.23843871557943 -1.0304996897052834 -0.39110490004090065 -0.6113857060459664
Ni 8.432039700942301 7.686985610707062 4.732850826168243 -0.28594909473715274 -1.4480851525352159 -0.288121162687807
Ni 7.3323321886912876 6.246638033448642 6.847360002704196 0.8974353309167254 -0.4688887410895989 -0.737729201170923
Ni 2.43019437178193 5.390732014639755 2.5460705571674684 -0.5402589653024695 -0.19243010234138472 0.17007718856748127
Ni 2.4026041542846004 5.643063377565234 11.128778853562801 1.2189834058044102 -1.8399433858023733 1.6617600231879897
Ni 1.3113355747420656 3.452651093775917 3.5404641904347716 -0.39987339026215 -0.18872899934071366 2.0593237914803564
Ni 1.610672156600866 1.2088134547470444 2.436253489091907 0.051377583141027645 -0.08365341245559788 -0.2844226307902973
Ni 1.7002266924985925 3.64256345442662 8.12080131398775 -1.4412485892293565 1.2456364896155645 0.810793525256765
Ni 4.013640057984969 2.957373043092146 7.027344795641703 -1.549258576152448 -0.13060895526952992 -0.3980715611667209
Ni 4.493777135651914 6.759457788005963 5.9255029972843545 0.8580761123928123 0.5811896420785604 -0.03837911399883068
Ni 8.586077503904486 7.687458481936416 -0.05105008667979868 -1.2794896907195836 -0.7984434883318443 0.6111185684275088
P 0.358840151131057 5.956649752047078 7.696254796170155 0.15765927451910264 0.026692164579205643 0.5000836786351646
P 8.665174310691489 2.0755864181535943 7.85145658985075 0.6270774057496104 -0.5063373728543603 -1.2854050277627538
P 2.000636328300928 3.6723998102633826 10.293526395063717 -0.04853214327243254 -0.6453695191905788 0.6721521866010617
P 4.02229723895315 6.26621672107941 3.9178427124920168 0.19814797866176842 -0.40710796033737634 -1.3123033948154947
P 7.322492829649722 4.3590633973508455 10.61976934987278 -0.348065147341607 -0.16611563281657196 -2.0420542057666315
P 6.553104058457708 8.073957962513708 10.011857009827795 -0.5556652725552107 -1.1231619905277108 -0.09576793633094474
P 2.556350959567182 8.903683283835841 5.3298089223116865 1.6099630931213562 -0.13907199843521859 2.1144467005964294
P 6.998375976637256 4.2445739977821635 1.4024769573613756 0.5280901911504196 -1.2066565088079413 2.024508483573384
Ni 3.0199739189166737 1.8754891387167978 0.15600203729950235 0.19419567888223974 -0.36801896475571455 0.533425487320404
Ni 1.7394204424700794 1.3575314563789922 7.01225201911556 -0.477334557864107 -0.12259405538485338 -0.5109013380759588
Ni 7.325557398963038 0.9772247701707445 9.11940077309306 -2.205123338447396 -0.34254113219958426 0.6537006647640935
Ni 2.989182726943714 1.9643616488029556 9.119161609375137 0.37055792912748436 -1.3299383342884386 0.301125545367275
Ni 6.694228839387524 2.128620745261184 2.7289698737397465 0.48285368791012334 0.3847468190333567 -1.5379907165481126
Ni 4.179299580776286 6.988136495786235 10.37474111933758 1.1441396212206425 1.1886130210426689 -0.9177164497632647
Ni 7.530210610821114 6.41809022879955 11.455234600425076 0.016441947606107166 -0.81680219334469 -0.5942305344229185
Ni 7.7168310602213115 4.016340880198782 8.166572520886005 0.8194936241339242 0.10832340439845216 0.3792459438197856
Ni 3.409728936034521 8.671767226869989 12.294079970899507 0.16698363724382212 0.010758009847452442 -0.9778203570336967
Ni 0.4651879812451048 5.413811768103243 9.939360394161278 -1.9073759655237343 -0.9923303777244136 -0.6448974646501667
Ni 8.706341388677782 2.5498671675185345 5.491652738029212 1.0156222583728187 1.232400964761897 1.2864743495675326
Ni 3.8526546854222716 2.8839597847348806 11.335781871683672 0.06955296849847377 1.0991694842678554 -0.2912288550788533
Ni 1.1881344321402785 3.637880210520514 12.634710032861676 0.35633484354956696 0.06650338303887256 -0.5305126845489831
Ni 3.405873216779785 8.424873883082084 7.807695085677251 1.6438774864806143 0.778822114556491 -0.2783959649802431
Ni 6.021533140920989 8.300490562406912 3.477244035173339 -0.6490721648531467 0.6178044650881167 -0.6649615823898936
Ni 3.215724420514405 8.463403794596978 3.2535641219079907 0.5161898401684077 -0.06639154005135663 0.3531626164691724
Ni 4.007574575100751 4.531852363292428 9.399938904849527 -0.65643708985865 0.39649881736296233 -0.016972623298596577
Ni 5.441292861470721 4.726275187976972 11.885517410001839 0.7391137402232755 -1.5301213411023649 -2.169698421980883
Ni 8.37441306670348 9.140600863419866 2.001099196485046 -1.6352871737084416 1.8552962141093594 0.0449757933797419
Ni 4.802643891517702 0.4049669208190777 1.54421010531511 -0.048485349194897144 -0.005033191548533268 -1.3213529066122727
Ni 6.221457640485522 5.940071977987213 0.4408751251143004 -0.26580373013752934 1.885960990183068 -0.3337299616658575
Ni 8.351406062659894 -0.38965862413647895 11.023660488645076 -0.2601473031827003 1.2805960364098847 0.3413327137137799
Ni 0.39961620098538336 5.3352787693204675 5.503365394633221 -1.1982795975981557 -1.9005301462464945 0.19176932882893424
Ni 7.750695915185074 6.891807170160259 2.394728120212604 -1.190070836535118 -1.1723597924086002 -0.5776083524852051
P 8.757775228547557 1.557583267428351 3.521724849236107 -1.0596179472274783 1.8480151070669142 -1.7166448481513275
P 1.7235701626092206 3.310635132452319 1.5316853833114608 1.502807226668444 -0.11121923788900845 -1.8662511704589668
P 4.80972786628053 1.202638847732975 7.839717561582028 -0.683331600256649 -1.9238415672789255 1.224015568911679
P 8.831406735164524 1.4046821741521147 12.122294037584805 -0.8267791020517439 1.238033480457326 0.3133979349767248
P 6.430821377282167 8.10326688505619 0.9911662871269594 1.0503573478611588 0.0005221910520571652 0.7308980371817025
P 1.9036340705408699 3.307761530366242 6.103411703651447 0.05615726391785812 0.7254400993909249 -2.723800978034664
P 7.153168554830909 4.184282916039482 5.566385488989926 -0.24429285264894704 0.5242975568772068 0.5759219659217178
P 2.447827012430355 8.971558492603167 9.75230799508042 0.550729011595858 -0.1875270086128125 1.2580250930879044
