# total energy = -340895.0644695787 ev
CRYSTAL
PRIMVEC
9.02775971532854 0.00000000000000 0.00000000000000

0.00000000000000 9.02775971532854 0.00000000000000

0.00000000000000 0.00000000000000 13.21303888332492

PRIMCOORD
 96 1
Ni 6.267197012894681 1.8540670734474274 11.32514640859335 0.4427066833775924 0.5319507025470903 0.7365441797238864
Ni 4.647905852231121 0.22769995491106812 5.740457039410623 -0.2867484507099965 -0.5204918099778714 0.748794200735833
Ni 2.664859179231932 1.6879292159160308 4.860191810622648 1.0909514672334373 0.5498607500582918 0.11040368396624857
Ni 3.550021967532529 4.473065234570383 4.808039346938839 -0.6086739635417582 -0.28540633485980527 0.4619850719912302
Ni 5.147474978037504 4.848177668319612 2.5068174163934747 0.49567372249292696 -0.3969022234489681 0.21211909612987984
Ni 7.327191391096546 6.158909038048781 2.674781589665707 0.5755375859991056 0.06142056919932647 -1.485779838872512
Ni 4.919659467805217 4.3088864008440355 11.56450029820459 0.7508999342249262 1.1539854036664707 -0.10061009491459447
Ni 5.61674694306166 7.8257223245638485 12.246676623143987 -0.060951085762075675 0.2578477085152463 0.4695099196133656
Ni 1.6636264874220614 6.580640821702489 0.429105657589025 0.421145669377365 -0.2991671360893235 0.4894922762725635
Ni 2.874294171182748 1.4345019520665847 0.2734688898734478 -0.7821822892779754 0.11090453486206706 1.5947416481859116
Ni 0.4762747980452437 9.335515790612492 4.853743282033034 -0.05906029649726603 -0.839694010341199 0.46611323522699083
Ni 8.517546616049122 2.2874085557799035 1.2313322251881367 0.7493878684557739 0.26454594647102825 0.21701704765212945
Ni 6.950002572669154 0.6819759086791556 4.975276785573715 0.06336098075514894 -0.11281794983469604 -0.6141591550260456
Ni 0.6641054588077543 7.352505228651185 2.6668272307964513 0.3819803120318131 1.450163375220483 -1.407008179989248
Ni 7.725306555976025 4.008496732230239 3.914468103467632 0.12887757440071998 -0.7771239009184616 -0.6452013690438307
Ni 7.837620911545665 3.9293142539164934 12.549188718009244 -1.212306508004867 -1.1472203170284954 -0.4161057929606124
Ni 7.873298616972177 8.564924297749105 7.259045348735206 0.18835387538948206 0.5231590723973893 -1.1675448875184604
Ni 6.906615160655033 0.6689316990205612 0.2491571336200081 -0.9149039200151341 -0.18935274896764162 0.49502400472407
Ni 1.8149768749411541 6.506098611756462 9.169479043987165 0.7395827094398939 -0.004305055133257102 0.3776696004716012
Ni 9.319717211539519 4.6595426341883 1.277381020694095 -0.8285634476456764 0.02409894993073269 0.836234848148005
Ni 6.189477031615119 2.0257570030530405 6.91898138557741 0.8282022076515156 0.1647056398429228 -0.10468092254985843
Ni 3.451908277609624 4.123329832692086 0.4906036578764578 -0.3858907028298128 0.8799281752708975 -0.9401500961764324
Ni 6.162014587306555 5.760757762131422 4.678697734232321 -1.0887732286351959 -0.18043616320430217 0.7329099254054087
Ni 5.0500293423154 2.6238009291611397 9.38514228719652 0.20530567275247225 0.5542138848206649 -0.3991303414485384
P 9.20046050893724 5.548081804530779 12.494077857547028 0.3850206415200337 1.2545996123461232 -0.7252544657426799
P 3.9586093333975225 6.088790430243187 12.712925191521546 0.31825243485554866 -0.9064197938035228 0.11300769724799893
P 2.348526487393638 8.551888213074033 1.5047668095755975 0.019246249824121694 -0.7573348912169925 -0.23319314319135967
P 6.49105836447899 7.632618549494753 5.797749006560856 -1.7572407672958188 1.832964897602011 -0.9240529335042537
P 4.672551635584961 0.7568756179002056 12.53757450545074 1.120571089872083 0.9532904902131325 0.27481313272499125
P 3.9412308964172507 6.227131816365619 8.232793026837836 -0.006398190216859949 -0.6551924188182716 0.6183575093781092
P 4.865763743767699 1.2170051709088168 3.8152124019717384 -0.29755325463498433 -0.1573643689865032 -0.5713338323304031
P 0.3236984407900884 5.49582010495738 3.5256479197387445 -0.1665889729085647 -0.7750886156559877 0.21998512914151794
Ni 1.4266297458085084 1.1083470579246355 2.672416316684496 -0.4680407912670068 0.6699027284452527 -0.5412904918907775
Ni 1.794917193398212 6.789353592895683 4.617560844323699 1.4189725514399756 -0.6987155389118869 0.9437928351353424
Ni 5.836428442011233 5.467996550270004 9.08064769635159 0.4624478705602616 0.15657015521998197 1.2271065491321769
Ni 8.404789900265438 2.253843346069436 10.0587296017759 -0.15575511551785434 0.06522554476771347 0.6228194018042048
Ni 2.4332520100221307 5.21762066912151 7.053106808027225 -0.44332220547440426 -0.154666767549682 0.37808560496309723
Ni 0.4217173392385553 -0.27289652992303265 8.983069352565273 1.2719764130616737 1.1735895510506433 0.4660810964374747
Ni 1.2672175690824639 0.8884001428466362 11.103577205138542 0.24355391760039344 1.2019560180084785 0.3884090983762924
Ni 3.9278156458444284 6.782934855912321 1.6609317012201856 0.41784077337384806 1.3486791052310514 -0.7035055041013626
Ni 5.694647479530627 7.6858913581288215 7.985022557072462 -1.2398065131973488 0.12129102030271367 -0.23122162128728568
Ni 5.469802102164058 3.123361027208053 4.564113799931854 0.3033840023841485 0.10322670660183512 0.6548448056708658
Ni 0.858212217953997 7.195656935614697 6.885010829466727 0.11447913958720284 0.7520546166546596 0.12974172217322819
Ni 5.093416754329522 4.278977433719028 7.160700548169862 0.9285757610752716 1.5103744974927407 -0.7490646807884003
Ni 8.15895498213049 6.888487419638729 9.186286023792967 -0.7501525145359405 0.336112345855105 0.1853809088040872
Ni 4.543716480184724 0.22833370362588112 10.360291073568936 -0.4993280314160627 -0.4543486384918949 -0.14378380208859107
Ni 8.365528174329231 7.184318069720038 4.824199036390625 -0.1572504691164582 0.19964744602543036 -0.49098428743705763
Ni 7.365342702617911 6.131067427842466 6.906931132236492 0.10820050566734268 -1.88482456258578 1.3453099316485024
Ni 2.364966037389001 5.149957611891829 2.4276448686151455 -0.5069315547949335 -0.011830674086340915 1.411733867599691
Ni 2.295894649681958 5.231108141770095 11.457224335195308 -0.7905095781967483 -0.5214222922119407 0.6237555404652291
Ni 1.1484573932510493 3.3075905147178726 3.8976882069402397 -0.007113728226645813 1.0108263796460721 -0.8484550443632807
Ni 3.730017435850791 2.9910231011333517 2.643043598472022 0.27159591133927424 -1.509619364494271 0.7457677552046834
Ni 0.9760362151283445 3.3540473649518874 8.612509617916903 0.9786801339308306 -0.10276956445975849 -1.9626320577835619
Ni 3.4992588760311953 2.8023519559641588 7.250575504800197 -0.6603395102368499 -0.5484862383082684 -0.2627122356963992
Ni 4.124422191587989 6.70358987792811 6.0897437616432475 0.44531095376965885 0.6199580210960097 -0.7352640274598821
Ni 0.6448934838790706 7.4572362662658 11.356144123510472 0.7328996409927636 -1.1886456740528175 0.16830698404093594
P 0.2278236352158108 5.409180697321189 8.093408934496587 0.46413991355070383 0.0392597168315711 -0.5379292887280284
P 8.438436359811138 1.5139733186833797 7.9528223445938995 -0.09013670618709639 0.38192966129953576 -0.16327096427892526
P 1.8057685602814777 3.0771840375176174 10.496345728217548 0.67388433880082 -0.05101274360244118 0.1566038366713948
P 3.9644864048126687 6.323187177129302 3.8332345182022407 -0.07898146090122525 0.043907242905911484 -0.37079292795642593
P 6.768111274862136 3.9047497203978856 10.39124906634439 0.1630094830874225 0.04978427051197877 -0.23183688627378138
P 6.35210309071258 7.6246831489203855 10.174237978646122 -1.1954994637498573 0.1709685900334991 -0.8374502086123448
P 2.354439669846665 8.631856106461694 5.7192905545566255 0.1292822660383064 -0.004795364506114322 0.8226622516698928
P 6.970712252893956 4.005057155872066 1.4327424417458288 -0.06893204708502322 0.420445815096863 0.6890613036515745
Ni 5.350590538359131 2.8354657777011125 0.44825082709762865 0.28871328774585114 -0.69224741468904 -0.4099289747259392
Ni 1.4753525636695608 1.2638050760027015 7.028992759706184 -0.8696892711517087 -0.09115640570086236 -0.14878125530318248
Ni 6.549910328465687 0.6297467090398501 9.037506742171008 1.0020437483574356 0.3374251511292576 0.3946291111440752
Ni 2.6856952480893175 1.383269417072797 9.007301664535374 -0.1976540697444854 0.5182747477218945 2.347809022375802
Ni 6.511957627652668 2.0042438522353847 2.451283154012103 -0.18008186518867697 0.1320819402706306 1.2027342909353995
Ni 4.001066886186207 6.769483494301617 10.598468646121201 0.45844183472466205 -0.04160507713529609 -1.1831345144266012
Ni 8.373671213371415 7.520340304962993 0.42891517186420236 -1.1785672067708928 -1.0592682771975437 -0.23830475338631216
Ni 7.684591360765103 3.729042437828002 8.158192136455252 -0.7684970784813991 0.17565365421399426 0.16310975611071266
Ni 3.091068731582894 8.090073177372322 12.594139737963616 0.12121697253166867 1.0781663996536268 -0.6114242725933856
Ni -0.025427587323965172 4.929463614589931 10.306685140610414 0.31133025381441864 -1.2039761337623007 0.32334219067363024
Ni 8.745136432294654 2.6356363218266647 5.88473056628097 -0.6510418869850079 -0.7144103239393245 0.6247194470403951
Ni 3.635948182170568 2.4309679868761522 11.56521439397869 -0.49833275738232885 0.09942378791597715 -1.3842703720721
Ni 1.2175378087175628 3.0779875081104717 12.5904401621327 -0.22450101473400044 0.21484446548084288 0.17137019634729198
Ni 3.090852065355608 8.438418304292197 7.806686390944836 0.10250859748888798 -1.330095685801909 -0.17735006807981069
Ni 5.593888656082933 7.962411630703221 3.4081317691623334 0.016324448191636403 -0.004189098380683108 0.9412119617820436
Ni 3.1112277184800097 8.666242842283955 3.6584923031197283 1.0349294433418628 -0.9332279151353026 -0.5804476217062132
Ni 3.3862854940202247 4.285558670372855 9.451048542433286 -0.14479450274129257 0.49627947439772585 -0.529832627762823
Ni 7.123687637117698 6.009662118486262 11.409908042259724 0.36288267197041374 -0.12751771793871586 -0.31660178662600313
Ni 0.6859770116763797 9.399251772472606 0.15164198414998234 0.39169445399578345 -0.7402272850024284 0.7736619105117902
Ni 4.57156711815051 0.43541425590685034 1.674105007839205 0.4438827059635646 -0.18104782864637206 -0.07949002510652761
Ni 6.093882086584419 5.812568073731306 0.2953124566877154 -0.38722022027451375 -0.36624567490537574 1.0818687882058786
Ni 7.866320158901657 8.796567577996788 11.187585020889149 -0.4152521867110655 0.6318735415866731 0.007873489210805796
Ni 0.2888837891689355 5.057675854586719 5.824280688868035 -0.18842123829230778 -0.6360294727365756 -0.4279374954882178
Ni 7.897556206668795 8.922179823266138 2.626698839951097 0.025176756375943736 0.14318447794169534 -0.14044779573682264
P 8.538247268514453 1.8138213217289596 3.710379350675111 -1.2143893586758248 -0.01247139299413336 -0.827435247578504
P 1.8533719359682166 3.012825140254056 1.6168130406889714 -0.5231680712584539 0.4461447625248639 -0.3633202737284646
P 4.61156009260381 0.9869056375305506 7.983133047015334 0.3075437901887929 -0.3795745308037979 -0.062309913782815265
P 8.42350444564731 1.6476924919570333 12.232392902110124 -0.46074194361274845 0.46693727379018285 -0.21906364576851306
P 6.283979617749916 7.865002106018998 1.3273424471544684 0.7800672998175017 -0.937899609579359 0.3306749768896176
P 1.820971307229414 3.434602062705115 6.048836275155608 0.3531371625478757 -1.1698766209754303 -0.637395756956483
P 7.03082810320649 4.080077837070018 6.080204128211012 -1.0236225029694757 0.04048793281171737 -1.0337125402156262
P 2.3787604538595755 8.345017104812774 10.245601514482667 0.46072600277314846 0.03239410005998937 -0.581602561246263
