# total energy = -340887.63325711153 ev
CRYSTAL
PRIMVEC
9.06327842486225 0.00000000000000 0.00000000000000
0.00000000000000 9.06327842486225 0.00000000000000
0.00000000000000 0.00000000000000 13.26502410501167
PRIMCOORD
 96 1
Ni 6.543967947421383 2.167066112258674 11.375779288682505 -1.0349649245654886 -0.38768430439512586 0.52671542229008
Ni 4.768453587462124 0.3653887866181332 5.704716526969814 -0.7582643450097973 -0.46802947841309717 0.4195742111251871
Ni 2.6431238721142143 2.05840646783671 4.813598683369227 0.7724025841833924 -1.916696728704028 0.01869423397539361
Ni 3.6595886682783716 4.614876335420238 4.832978691515651 -1.195089372795632 -1.8656413047891096 0.9783451191889152
Ni 3.6625070439146947 2.731527089371019 2.7784658080682707 1.6066561402353103 0.368535756491133 -0.3601652730392507
Ni 5.101175599838029 4.63370982788073 2.400332239401079 0.5004786000807381 -0.15154544831188094 -0.620464528418783
Ni 5.365913961133012 4.776565221606562 11.430404573768469 -0.7188436771203296 -0.8088906518070972 -0.48671214242426497
Ni 5.701862500609945 8.383197154347563 12.46047335077151 -0.04305132266351941 -1.004569857213399 0.37913744326637927
Ni 2.150797527577931 6.11239275782383 0.3612704329251362 0.20845553123536356 -0.13041329431895604 -0.7765456598174884
Ni 2.5956051036010472 1.8015531587268214 13.410807029954325 0.8415498326030152 -1.5148754706868877 -0.6775959833244524
Ni 8.324448983929416 8.763528568020371 6.754882217438636 -0.23998162686810284 0.6725399089577837 -0.012099097256379164
Ni 8.830261486685725 2.582128008659396 1.2776367574191017 -0.08860407159265385 0.8921810244963215 1.3606812718982502
Ni 6.967649021555468 0.9527318226404904 4.620884382654146 -0.8672549506786031 -1.424950109179649 1.1729326341929347
Ni 0.6847071166072125 7.170666457125741 1.9513111452620422 0.8346279086722014 0.623867383452745 1.009072630179759
Ni 7.839364198813698 3.8707539911065756 3.8081892741652745 -1.0774133235376864 0.13431802869000095 -1.1910398853166069
Ni 7.70491046414026 4.030693664566781 12.390474026580286 0.13524028339395416 -0.5336427455375327 1.574543575971482
Ni 7.956171730493593 7.119830528727809 8.769706098559867 0.23331887013594657 1.7946526322853738 1.3304641248849214
Ni 7.102691869323194 1.1038891793566061 0.5320932910564474 -0.8959026963222828 -0.5275944824609236 -0.49654558357491907
Ni 2.0017065983310127 6.139564466388101 9.064481977040877 1.1431276350163604 2.176748643959445 0.04102786447558741
Ni -0.14572754664244844 5.180225513813204 0.9593452968697594 0.45697579170209685 -0.7949210770008825 0.6471618352043113
Ni 6.500591097124985 1.7697138618001085 7.027968764443611 1.8416912217314154 0.42884098113909375 -1.572843819671556
Ni 3.5520891234882384 3.996606674603397 -0.25322165346555797 -0.8485581456000482 1.0092212399424814 0.33831938080875285
Ni 5.812679205284843 5.655549148120476 4.445520822057625 3.128437336903096 -0.4301607283917817 0.9843321900102854
Ni 5.9204687749829334 3.1847544510032777 8.905500292104769 -0.6799634551153644 -0.1609474583520712 0.7155385240064968
P 0.45805899533326333 5.894511545720734 12.200917372050592 0.1521185472065316 -0.0075880967599030605 0.378872876751083
P 4.253931274188717 6.207693129922999 12.627175136226311 -0.7771328997795262 0.32973472446353536 0.05127988122089878
P 2.3072387755858985 8.584809781769916 1.2766615486660944 -0.07175460413548287 0.5272797794339822 -0.7122002036618832
P 6.651820960068091 8.005140623546547 5.740743964833001 -1.5944696254714477 -0.5546219188923609 -1.175436374451395
P 4.685379577889039 1.3169215375297865 12.517844809204696 -0.026340437666741733 0.5932949099825267 0.9227491270911657
P 4.212738673980374 6.330382729267409 8.269615243440859 -1.487012939948665 -0.7449064356456526 -2.419975774348039
P 4.674902428089074 0.9156902039272894 3.5855489345881635 0.12188905889802881 0.8860078058060741 0.16055562223029124
P 0.33263863021486634 5.500150177125481 3.3483176231572767 0.04852700106610997 0.584863748496038 0.3194063459543338
Ni 0.7776610059354387 0.01946792194664929 4.26063266221821 -1.1513106850477848 0.6515442805427231 -0.5431900229063354
Ni 2.0156459204697215 6.516016796916976 4.519168115794253 -0.38737654334671995 -0.08214726022371659 -0.015958837322101547
Ni 6.040375947866625 5.776326395728041 9.107009598153661 0.8895569566099131 -0.5040812298303319 0.6835629995411647
Ni 8.670285560112024 2.4783262814457205 10.344463404575247 0.08043361996671954 1.2190222294621456 -1.5568196763291575
Ni 2.516899594204072 5.448489490395546 6.890702694490824 0.8787488102508157 -0.08487211535404737 -0.3761490500620167
Ni 0.6724535642460068 -0.09250978868791618 9.037420840472764 -0.23008005148367472 0.38299615489083716 -0.6867941048839526
Ni 1.337821457459476 1.347156634184359 11.280337529440708 1.8282440950875738 -0.500952454393363 -0.5889404896685728
Ni 4.044886758499953 7.110585984786663 1.4322907269317804 0.7209440112927843 -0.44330986417923 -0.051142070091453856
Ni 5.680763188556035 7.9262085321902305 7.801438910459063 0.6254167302177358 1.3295680954332136 0.7766551888121592
Ni 5.085070154168012 2.777242265487825 4.929097477651964 1.251052261314497 -0.10863682187381292 -0.18972890136013776
Ni 1.0634307046965306 7.354460679265452 6.52929721871792 -0.7156575660828642 -0.9513426224581423 0.7294427927924146
Ni 5.216215792235058 4.674132049427311 6.712858514603428 -0.6326361307843105 -0.5495905271160405 1.6779111790265555
Ni 0.6043149311048969 7.6938804543595 11.08632355460684 2.0566246473816387 -1.5243862383908005 -0.5718022873263894
Ni 4.755910010192961 0.4422227290309448 10.548387167982886 -0.05292384458222499 -0.3140265696996592 -2.1551462351983206
Ni 8.473920570868028 7.1270086451997585 4.572905199599596 -0.7046488736771865 0.3094985999223186 0.12098325925430777
Ni 7.224103546416916 6.0894354737033165 6.717620361060956 -0.45761368239641187 0.9038836576452305 -0.1317770074357021
Ni 2.6755250923000946 4.948522802190256 2.639182252349504 -1.6764335660397645 0.5678903538664929 -0.8476330626826176
Ni 2.6937604083879245 5.258405353064505 11.172068512316649 -1.1060669827186371 0.10314031753561592 1.3195811594238307
Ni 1.1246894032241852 3.4614472764731357 3.7738195099166325 -0.26605826935049665 0.795293629848953 0.23707910850932717
Ni 1.7491492831702449 1.7125064487054857 2.369756363479656 -1.451046292046069 -2.5959564728841484 0.1849222240001138
Ni 1.384615163702749 3.6446705120753062 8.249942491402964 -0.5523737462881326 -0.07099098649658096 0.9330985886462898
Ni 3.9410397148944085 2.62041129650979 7.092490243185789 0.10125827002155466 1.0326447610727443 -0.839633846527225
Ni 4.455498585219201 6.811298406331238 5.999505094040547 -0.6163685039725385 1.2883314573809297 -0.26553813518096847
Ni 0.6628057044172321 0.0875141096483477 13.153213251001308 0.5787337243389001 -0.2715087509421066 1.5895019970535271
P 0.2446124453384061 5.787392658622295 7.929605448924684 0.3956372406936154 -0.6920988049263177 -0.6307738807645912
P 8.68322792162963 1.5015586445582498 7.839496522677953 -0.17399734955749388 1.5555899176871144 0.7409538787558079
P 2.1332510206465005 3.227705327216113 10.274358040027051 -2.3137357348411762 0.6775700151825235 0.18382384872961247
P 4.0317540681365 6.21643013027522 3.606613806184254 -0.20846864386148614 2.964996165594894 -1.008638627966134
P 7.224602026727467 4.2019805625508235 10.403572293472667 -0.5863848131262546 0.05316938493412779 -2.7704197063344673
P 6.350621029875821 7.98456698163831 10.33093374261903 0.877755850209927 -0.6974716392024569 -0.5253211130457146
P 2.2559043668774152 8.839977321102301 5.662149027432185 2.5051584789639696 0.5127080522673945 0.08331634083115329
P 7.045257874269229 4.100580604106172 1.4449321876073793 0.5788026299036225 -0.46674855481814453 1.6181209463418003
Ni 5.516572837538576 3.1695915862841226 0.314290929475203 0.40258230455288085 -1.3085706672459398 -0.16215304862439817
Ni 1.6989115311449763 1.4632391035943613 6.950766852928828 -1.1159112225025685 -1.1454688815550274 0.471982035302942
Ni 7.127534315345431 0.8518312508342278 9.365915739815188 -0.6596982771084251 -0.6078704938038564 -1.374071577162227
Ni 2.942493020075002 1.6002214929340526 8.950416087069017 -0.4191198971965878 -1.2830545252527064 1.3625275810783697
Ni 6.257223946235122 2.2206663405605753 2.702868096825628 0.4028736105410545 0.39239276561438874 -1.0122764818290373
Ni 4.137305008076294 6.975044656708386 10.314908960126537 0.8561716962812481 0.7037950103173235 0.7933308496956273
Ni 8.12033489167593 7.348895826344017 0.1259596301816306 0.038195280122798735 0.756096133713885 0.08839812622943485
Ni 7.961437495228697 4.062777670009583 8.01281722032905 -0.23595450798658074 -0.642618438808003 0.06114083317537858
Ni 3.0479442639526857 8.522273160991574 11.977308168015336 -0.39172042213771247 -0.19830044507923267 1.5632433204673142
Ni 0.39053394613805115 5.003872243218277 10.179645874694332 -1.4907299837889358 -0.8587533409654953 0.3811477888281887
Ni 8.802971955502596 2.7389136612455625 5.824313735733126 -0.37331286616480225 -1.778343610712705 0.3736219127647888
Ni 3.953936760020145 2.671183781959105 10.939784844549948 1.567713954644158 -0.10489818076698708 1.2026512443032902
Ni 0.943541658369586 3.704850680476494 12.50018954293278 1.6200032509661777 -0.17191835554127813 -0.842327334198988
Ni 3.0807261418302607 8.273458979799132 7.7039678831893985 0.36558798671671877 0.27739169208544484 -0.05753897475673317
Ni 5.583559527998392 7.8751097687194624 3.378827337146572 0.06677026354701406 0.8250032410982437 0.36121634001158437
Ni 2.9047988453188966 8.458975224829842 3.3789995394356716 1.3681058464970952 0.5562489129728226 0.07640675819551357
Ni 3.8480414155021516 4.420459951026582 9.339346739262766 0.13023511686987893 -0.16005065756941467 -1.6921815729026404
Ni 7.340811382034701 6.221976856639908 11.456272076574768 0.5948985070242206 1.1076150439320473 -1.9590569388377936
Ni 8.120452714294787 8.812316195505852 2.3849717952133784 -0.09560312861830632 0.7235107435786958 0.6150479853889022
Ni 4.675020250707931 0.41811803386832447 1.3232259539665134 -0.45675313416832947 0.7231291918695611 0.21881913385787474
Ni 6.299313811002459 5.674862994334773 0.24169678868559555 -1.3180444110643301 1.5245639016192452 0.6362945534725041
Ni 8.070940024539413 9.089289982605294 11.394377135905282 -1.6219104952912198 1.0646768498076244 0.4022912556750233
Ni 0.10306397635405823 5.05411905852192 5.762883741244209 1.0386084348553466 0.17934087325759435 -0.15796009358897312
Ni 7.316721188117479 6.278413891072769 2.503017370719118 -0.06262641658196956 -0.35803280007728017 -0.1915253311389282
P 8.527430166386193 1.651075547888731 3.5100844535376137 1.7615237109418889 1.4298835419255245 -1.2432409928001944
P 1.9574777998674893 3.6159580461875107 1.1789140914060325 -0.4164027553757409 -0.5514034119550633 0.29282988101738605
P 4.999621565661024 1.1937062680397041 8.291807586866632 -0.5324050164756896 -1.2608041984949383 1.108228252036014
P 8.64184499257544 1.9440097682042112 12.514475988633203 -0.3117406018789599 -0.8861885543583125 -1.0508448290205386
P 6.429643754015874 8.119283551384584 1.2534495864232809 -0.3180863415913296 -1.0148555554101233 0.6480540080012775
P 1.9659519651468733 3.4884558460266812 6.2289900214454565 0.05145214513270494 0.4522516467535502 -1.8579038269355357
P 6.966017631448207 4.08885272189064 5.7893340128499355 0.5745983620142879 -0.8631090468310296 0.08003355631482346
P 2.5979253028647076 8.50795318116117 9.850713219006462 -0.7253814782388476 0.39420924999783724 0.9124886257054221
