# total energy = -340890.3257842246 ev
CRYSTAL
PRIMVEC
9.07597806546248 0.00000000000000 0.00000000000000

0.00000000000000 9.07597806546248 0.00000000000000

0.00000000000000 0.00000000000000 13.28361131272602

PRIMCOORD
 96 1
Ni 6.237583935219483 1.9413607910325201 11.263333291285377 -0.648047066022742 1.2802095996047436 1.3831437146668244
Ni 4.288789918125114 0.28961536868891125 6.052438520019612 2.8519239336575466 -0.3078080995937731 0.9558816479790764
Ni 3.0037675591911244 1.6934504492994131 4.794772974267094 -2.6140138446064918 0.2978954684657515 0.43638254093177753
Ni 3.239842825485096 4.42716228019954 4.683017733159195 0.05850031022873796 0.11988899774886451 0.5372001238714877
Ni 5.130178467653493 4.382281568507422 2.7751454861108167 -0.06789537829039274 0.23285272913280544 -0.6354705149093121
Ni 6.9122104631844685 6.176783957944356 2.5698078348396347 0.4580194024752628 0.3828051219259536 0.16932436956185676
Ni 5.162734001089212 4.530900709853921 11.673969567121922 0.8247756984684698 0.12661500361878839 -0.9955357720355887
Ni 5.862836799573868 7.743860488214234 12.5670140459922 -0.8190619359131442 -0.5391922146008521 -0.2487362331322813
Ni 1.8986764660399955 6.582770610201554 0.5064350398512354 0.2834211861089764 -0.6652631727907123 -0.782776985439181
Ni 2.6595429378873887 1.8244168132462824 0.4613256135110601 0.7967506740104536 -1.1419163883170784 -0.5646391939190469
Ni 0.6943404599905563 0.06285296352078021 4.707047292770126 0.23271877465810242 -0.222310691950901 0.12175150487889998
Ni 8.850394661882865 2.541065119802674 1.4659392759382388 -1.2896710021279594 -0.503731559800397 -0.40249077328033905
Ni 6.976005513231768 0.7621652443131448 4.825005964907664 -0.5356829158960129 -0.25391829155385304 -0.8740658029528494
Ni 0.7339589195817464 7.716786845549403 2.348157020536014 0.03491069583425601 -0.8236336144442267 1.0393841366791068
Ni 7.561269960848807 4.002515416973891 3.3491439221154327 1.5025485736904187 -0.15491179368095256 3.0421002069677483
Ni 7.723893336399742 3.6417725155327125 12.417652489637325 0.2959691979773161 -0.42985733821875 0.8419496391445951
Ni 8.235823880989011 9.058878954760448 6.727458037836217 -0.15000767151111585 -0.48025790215848907 0.7747646566576656
Ni 6.392837616555252 0.7986425078847915 0.2966891860180998 0.830884382469369 0.45863415324112633 -0.03836445871081135
Ni 1.7915799244895412 6.511279130727577 9.065679585148901 0.23321165513412095 0.5840713345017295 1.8011099578749432
Ni -0.17667571243928892 4.992250828505844 1.257367853670919 0.3775274184667821 0.09814055032817938 0.6337933843172053
Ni 6.3845784764865305 1.7055668800595705 6.901925564804387 0.03157391815153917 0.44379760244892597 1.2015636676660661
Ni 3.4336603377571264 4.380502676800313 0.8038766244536175 -1.107614786821731 0.8232194097249435 -0.07033612652140145
Ni 5.726334088987526 5.499652460024463 4.87475321605566 0.8900230976130542 0.4909927720774898 0.10070753972440721
Ni 5.3990361668356215 2.9514626974152547 8.864073976071412 -0.1489710027164854 -1.1345087829990976 0.7906075372271932
P 0.28947559862620986 5.621815125216761 12.456839840268882 0.7018193746481913 -2.1770723458474506 -0.041653156764412134
P 4.23979778835483 6.0984945708753555 12.89182424254758 -1.6111198324336191 0.3596669932465935 -1.3148559860340194
P 2.440149319336615 8.552993011584112 1.1967421351752645 1.4618032734522566 0.5976819833066287 2.217714030628213
P 6.3427926733256585 7.903143903825291 6.149647691030653 -0.11207181569729086 1.0669047106968788 -1.0921156627448676
P 4.506204973450634 1.155453695614135 12.420455151673831 0.3500590378431842 0.11017845532931993 1.0043014340433607
P 4.150245112466836 5.957408491349778 8.176115743879015 -0.7480200415739698 1.5702099815931343 0.4269108539959164
P 4.873763934443033 1.0387275413022372 3.8981425764504958 0.8903714820914084 -0.20993185867057393 -0.27604186292576977
P 9.18262084014171 5.68333210476159 3.5331748072049325 -0.3674137270715479 0.39799288540998556 0.13524722537248965
Ni 1.6532529423056028 1.1961322294471126 2.510828498770866 -1.1921560011989212 -1.7967853623576604 1.167832336851892
Ni 1.7496852095914992 6.762193621210955 4.619800822916706 0.030535706695011926 -0.02079199704468677 0.5820766726692039
Ni 6.471263143295717 5.654579406148722 8.960778522700233 -1.3479910780250912 -1.233137328707289 1.6793275997581079
Ni 8.730237787850115 1.984716738404259 10.408599423562439 -0.9279936633195567 1.5236149074424148 -0.3570231278658432
Ni 2.135949761442837 5.080650855175457 7.209520446104437 1.65842941615286 -0.011632699142921902 -0.6516664079428841
Ni 0.6440504653523302 0.04023381090620035 9.085192938058519 -1.1918430979441925 -0.7080293601136451 -0.11209752672890372
Ni 1.5275324936990864 1.2444981167286695 11.467383061264524 0.9556443351572895 -0.11111562243160865 0.25668659832760954
Ni 4.273306299490786 7.162834522368727 1.539982012855422 0.12280385740281431 -0.6473405268740207 0.35347269151042354
Ni 5.681362617514433 7.708309882006342 8.310120745292924 -1.014063655636447 0.9110773471801922 -0.5311145797990401
Ni 5.049474870410557 2.8851899053473375 5.094663257760181 1.3013633508642233 0.4946897613131028 -0.1907663414857166
Ni 0.7338255027037132 7.30081661738496 6.881123423004925 0.04774435726381455 -0.052095178033342536 0.09930937382529993
Ni 5.205645225534174 4.5146637850375 7.06158109551744 -0.2448587524547461 -0.6130921472141119 -0.4241263492722437
Ni 8.181322632513547 7.24401914645083 8.978061000193485 0.7724159539198311 0.7890790163978086 0.35209637998818716
Ni 4.800112372181852 -0.04797380502774505 10.636187742737443 -1.036157402211693 0.1716316775387947 -1.0096634696862223
Ni 7.909524316427831 7.271900551166337 4.527812154507343 0.7910140286369925 0.2771687774413614 0.319010910288128
Ni 7.370828712429046 6.231521181850356 6.8261021209844746 0.5828541742651768 -1.3951908756393456 -0.3321317639408022
Ni 2.1987010740089254 5.422306974677602 2.6951652443222516 -0.27327175637980033 -0.4806929328133786 -0.9001954101603657
Ni 2.510288478074065 5.366208354056977 11.565708577581557 -0.5186907522133906 0.15121454733502346 -0.05804728185171939
Ni 0.9587772502413938 3.429131424686476 3.9195292112394355 0.059389140591594496 -0.05571246307095566 0.38624371529385737
Ni 3.675380862427741 2.5268975179924826 2.746346500009652 0.32275237960843123 1.4236367896848643 -0.8039199380653832
Ni 1.0503175653327397 3.0873573174690643 8.090090900677517 -0.6992600985614473 0.8827887846481441 1.388007727627345
Ni 3.6402749791466253 2.4071944428646064 7.205428995178086 0.7365657769904411 0.9889915431591676 -0.32599762601860627
Ni 3.875424495674653 6.856093690607651 6.056025346563741 1.8003373413749768 -1.908937139363267 0.16784701368538188
Ni 0.6501304630798429 7.4059618236444535 11.48146353368498 0.5160533145905435 1.0011950272038952 -1.337177275239039
P 0.10238247852661486 5.470890685433498 8.13618507064127 0.13056627495705253 -0.40915918643945015 -0.9539918871555312
P 8.432264350931218 1.554724124079185 8.2552600880848 -0.5676198738139256 0.686660664629882 -1.2356176719269816
P 1.9820030209531077 3.2850230444544324 10.455198217908414 -1.960358945478669 0.21501261562759097 -0.71512920438322
P 4.102568999520689 6.226120974882346 3.630198828262786 -0.9095110311343368 0.29405166923962905 0.1796882292946841
P 6.821759265464822 3.7961004471025372 10.27567083315089 0.6704861117525485 0.596372777576902 0.4879231320132307
P 6.577388555189739 7.582344381991193 10.441808427421178 -0.5986093802169045 0.015156396025464222 -0.5535309998210274
P 2.513347082692921 8.33888161228608 6.10017998000806 -3.79506782235498 1.091974766291629 -1.0882644073195773
P 6.96951618889206 3.806919012994752 1.4335008226199777 -1.4436839381437265 -0.01999598350595266 -1.9385819588128934
Ni 5.130713950361246 2.9893821339065934 0.43637574972104326 1.3079314910000444 -1.1025990787746947 0.27455653662949486
Ni 1.6552678094432471 1.0136687657750503 7.187815244484275 -0.4304924006995876 -0.5074791997682873 -2.0751633296157745
Ni 6.717766708423712 0.6699206333214333 9.508037312034006 1.153255981699614 -0.7464143876497468 -2.359424238017227
Ni 2.8120102939472265 1.546401452163781 9.276423796572763 0.4824294558885111 0.424088811166089 1.1434292254171792
Ni 6.4556252330337305 1.8871227459218831 2.532188813223323 -0.38102900386213734 0.8125904692561876 0.6720794243815974
Ni 4.341067551966692 6.632534198110125 10.473782190660845 0.17322010507183713 0.00785806259183808 -0.4055179901424371
Ni 8.264204464499882 7.152932630264358 0.1995980027223252 -0.9443762184426381 1.0125994123860946 0.7052134879314048
Ni 7.542391926406015 3.7582808463702704 8.106204392191811 1.5283933026676646 -0.4590157049502611 -0.6618788296995117
Ni 3.1933193617573314 8.431447512902443 12.351885229549438 -0.26947603678279397 -0.5413072040613258 0.15035579887915396
Ni -0.022526577637985396 4.677577591887555 10.171806247400955 1.5831760548354992 -1.2776575226068514 -0.20870904200706636
Ni 8.681599621225633 2.391084581741551 5.961286656790838 0.2786613028264878 0.1134679247138691 -0.17344224838497227
Ni 3.5461843142098837 3.004330269833169 11.822068654923433 0.13914476065468293 -0.7595388408468468 -0.31464337734805164
Ni 1.2903045781867324 3.5024653277142446 12.728462989977318 -1.2384140037251963 0.6388885394519255 0.05552760075365921
Ni 3.121056424145067 8.387628690647732 8.28237184985764 0.9775393354581681 -0.8543778376056188 -0.2576394491591821
Ni 5.54798204339363 7.953306834770153 4.058807355927992 -0.2793716986299511 -0.5981620082668407 -0.5217719622418756
Ni 3.1680790666681946 8.624012540197018 3.660113252072133 -0.3583580446271828 -1.096961420872943 -0.09421421869057967
Ni 3.6220504151268536 4.343037039213849 9.450851389237302 -0.43112977717327045 -0.21213992206548626 0.0926155067448921
Ni 7.473069605697339 5.773048148255339 11.330057159464738 -1.331164750496372 1.5170637365874582 0.5716837594706542
Ni 0.7687716487703123 9.06441530139992 0.11163906858825116 -0.9051532683862733 -0.2841367241187623 -0.07153734591835423
Ni 4.4409123870172476 0.5250407949511025 1.746688321623706 0.06247163617166015 -0.44168621253287804 -0.6604156148904239
Ni 6.1700495821960155 5.570245417666788 0.3440013522425374 0.7374396949549623 -0.5872751861510079 0.6138732483545105
Ni 7.7681841095155235 9.048713859291253 11.612333692264015 0.7688873719412823 -0.9783209508191991 0.0012647256450365315
Ni 9.27973380578492 4.871994118714021 5.804154247988888 -0.8771632109312506 0.07840733356531013 -0.2508435092832712
Ni 8.10381377956093 0.259722727226998 2.12111416764467 0.2552092424511347 -0.8727380852803615 -0.1689423036320897
P 8.619801286359781 1.707826798605847 3.723276614043847 -0.2860812494396428 -0.25158810075877963 -0.2745010008012111
P 1.718491072870405 3.209592590486142 1.911405525321734 1.818580603855881 2.3379506415244835 -1.4141411914896034
P 4.813245312488928 0.7808917099217086 8.337352309976652 0.12890945607991994 1.005231659167114 0.050888559319751066
P 8.586374459026702 1.5585269589020359 12.72809087487532 -0.290696379614151 1.4724227008393158 -0.19091957923412925
P 6.428923705470897 7.935536069655255 1.4632164825089897 0.07990114450201723 0.5976842972994739 -0.15247078833962774
P 1.9359061281959247 3.141196019543411 6.029829350980939 -0.9111637362464113 0.4812089532178487 0.24568021991477687
P 7.003750778275815 3.960230435017657 5.8390504761759505 0.05474624250294442 -0.298524360299002 0.0433930222736543
P 2.2099552868498202 8.572406528734657 10.278951799233136 1.7391332590618305 -1.0775922723177118 1.4583811351445852
