# total energy = -381163.672994558 ev
CRYSTAL
PRIMVEC
9.30127049410813 0.00000000000000 0.00000000000000

0.00000000000000 9.30127049410813 0.00000000000000

0.00000000000000 0.00000000000000 13.61334955496220

PRIMCOORD
 96 1
Ni 5.158577649396337 0.6749829710630494 11.74378789340054 0.5133413149760192 -1.2827827596485586 1.385936189810297
Ni 6.886828124286862 2.0324113225364564 9.989039959020284 -0.9549997595947552 -1.0886269328653186 0.3428501787995708
Ni 1.6924498846153297 1.2876864949022333 0.22217014791201184 0.24989940020244705 -0.3665691196830655 -0.1915566985974959
Ni 0.4744410675176037 2.681240050992381 12.387562311449726 0.10298785111815166 1.2413833707661652 -0.2894601932142047
Ni 6.327152073874002 1.5298915795387897 0.3768409755779603 0.3796470359129462 -2.035930352257081 1.3062775003363891
Ni 9.072784820754974 5.299966262743506 1.5766713895492006 0.370725050832968 -0.09483616854529474 1.0309162084174117
Ni 5.881937458620031 4.203885940787242 11.147590404246303 -0.3790456548835214 0.9654620925786598 -2.7047832992815803
Ni 4.095870286106585 1.1546318199511603 9.892072353476772 -0.6978395640648369 1.4255936563009188 -1.9521825803154635
Ni 7.451582668409843 8.131021878184466 7.320837498931707 -0.08077660512843507 -1.1925138987589718 0.2477964949268313
Ni 3.1201856099082166 5.798960824209788 7.145946639257639 1.9961085922744526 -1.7366251479279962 2.390375177872787
Ni 4.234794062762944 7.728341973070394 9.385234030571395 -0.018949287408993168 1.4829755366544977 0.824062217341213
Ni 8.278214484343204 0.8941850835485048 3.845812138760403 0.28114575981123835 0.30748825436050914 1.5047540659821697
Ni 7.517770509510985 6.036645491368104 11.13640097579708 -0.2127914396065561 0.5777366505329534 -0.07058938018278811
Ni 2.392789049273913 7.642230810491083 7.815791588479167 -0.3384800747563332 1.2251882490635415 2.4626537728325393
Ni 1.0284042775701039 4.648607588703052 10.65188756242107 -1.022123549826446 1.2621684258323167 -0.6085536359138101
Ni 3.0014083852227778 3.597191967838369 7.981561622270184 2.651891079268239 0.09619448234540208 0.5364182514001407
Ni 8.464974695342336 3.298537472347002 3.427120096426598 -1.159650572372048 -0.22509288268172847 -0.29839014871398284
Ni 8.430876237574378 8.101834491257065 5.005765215582553 -0.35297981103440496 0.5400481348432441 -0.03938595799679023
Ni 1.8065764740350896 7.097418190387334 5.895996329028178 1.5581936738585487 2.185323787222966 -3.8067061779248568
Ni 8.277154139502628 3.8652917896342256 6.209702140493388 -1.1089417331632707 0.7146805468815756 -0.05591532311038112
Ni 8.952835635982582 7.6835098491092495 9.470276477166653 0.2883345642501937 0.7083980563069735 -0.6186588426686119
Ni 0.5232671570449132 8.819325198775472 7.003088425166515 -0.9810591756859683 1.0017051340710943 0.29246632703038017
Ni 2.72596986097768 2.556956474152378 5.538414564212447 -0.7599340194027363 1.8093308031228388 0.12918559255944204
Ni 6.754712877659457 2.519081700548689 4.835121316033104 -0.35131322196525944 -1.9325853749098265 1.539987178152851
P 6.849334702774959 5.49941340674741 1.8127125222046263 0.12189651509719653 0.04533703337390257 1.2519452054424116
Ni 7.477505309380738 1.0794775540577894 6.698762014905126 -0.03430854347388285 0.1646824999144712 -0.2762493509508855
P 1.1365501500382007 5.990074029817595 8.463569273365048 -0.9269297408314165 0.3604084993983083 0.5378045902247061
Ni 0.1594209865263129 7.336367830337915 11.747435851702939 0.020369821905603627 0.05893097000825334 -0.008389766725592003
P 7.309077902598911 2.8974201806821984 12.454091509179369 0.9895934384092248 -0.11598657737066477 0.2933806113145334
P 5.331441762221621 3.264755257777111 9.142344372423732 -2.1914499547253614 -0.3262359672816575 1.9390938654523058
P 2.8286372851028077 1.0877277810191037 11.689088981659733 1.747071797182617 0.8060338990845924 0.21094101666137863
Ni 1.1185335890189607 1.6933614091274025 3.8364048337449876 1.350181400808191 0.4958976655782751 -0.8143886988071909
Ni 5.199791579120783 2.809811513547339 12.678752537339678 -2.955555074786652 0.8918017867800319 0.6706257226542063
Ni 7.868781856823365 6.911811336934089 13.895826576749002 3.008173986533948 0.45859790068655215 -1.716084090551851
Ni 6.2611130531013615 3.673601905253473 7.385459936202421 -0.09254145897384708 0.22233948830630743 -1.3115233221163607
Ni 3.952444694513048 6.194748487860124 -0.21794272045550975 -0.5846135801584448 -1.5021551949067418 1.095593593991139
Ni 8.352922289251069 0.9127280964798198 -0.46584297303841654 0.38148974554863974 -0.7290406722579896 0.07081332326813611
Ni 5.893257104856692 9.031496480866275 5.219330758126006 0.6993891679401438 -0.13090154680928426 0.5833305996809631
Ni 6.662434972717855 7.385897095917394 3.524700655698126 -0.42045661373014037 -0.513732893987483 -0.24487263641181695
Ni 4.317956722583815 1.5971676692921006 1.8273610931644615 1.506796293223179 -1.077598185854983 -0.7739886977235897
Ni 2.791292683919406 5.219528875188323 5.221454238188315 -0.4823577221103112 -2.8269454093353374 -1.994205975935101
Ni 4.896393435658423 6.790541371746246 11.461392018797989 1.0509980667689514 0.20126235592103406 -0.5277700888068394
Ni 5.961500526745265 4.338177684718986 3.946197031097135 0.1015043245940897 0.32188797472560693 -1.2844678606604654
Ni 4.87945582202082 4.39095309371391 1.3798630159950418 -0.1845977507811595 -0.5040447201654416 0.3381373467049338
Ni 8.355033677661686 9.142823387856096 1.8926364796264774 -1.2588429610035095 0.8204241063679935 -1.3070917687075683
Ni 2.183501161047832 4.56132446603679 12.905523093656498 0.8380325634783762 -2.066341103338454 -0.9566002713126559
Ni 2.7630447253156727 0.36546180120989724 5.790696645342677 -0.22029777528593028 -1.7461503138096122 1.6301256841121603
Ni 6.25062121994199 6.494621449791098 9.085168532340422 -0.9000380586468951 0.16153984052043147 0.1336801379956859
Ni 4.9746171208271415 1.5963863625674666 6.551614984971994 -0.508582203024479 0.3904027317675534 0.37012264136227874
Ni 6.257485557594133 0.4178028408710068 2.9683498095002263 -1.4290265932418678 -2.542141741056538 -0.3719360404219336
Ni 1.311832593201638 6.446078118887942 13.572999939400741 -0.34138850665237985 2.403895838067041 0.49850270730128987
Ni 6.690385290664586 8.501528688530572 10.33582666925732 0.30626543769700154 -0.34992919713353926 0.8360425296315408
Ni 4.042862345348377 5.34349620883026 3.4416858860787047 -0.06602747184371854 2.521750064774064 -1.5788938825203775
Ni 0.8322776871458939 4.0847087614689555 7.665200298068271 0.07704130645571894 0.3230704250694823 -0.7729314601036688
Ni 3.983203996160248 7.602560891674843 4.638911944301165 -0.8614128900755293 1.180057161052858 -1.0680635068916702
Ni 9.292378516729798 6.347568362690332 6.293724237711355 -3.8543708309906717 -2.400206047920279 1.7844330114398945
P 3.5346502247855196 0.03580989154572744 7.933097352166544 1.847083339281264 2.3280341537417195 -0.21486554852676545
Ni 1.4900263340413904 8.66152914421099 4.162363208881155 -0.7837257225056954 -0.475733017704942 -0.06299716965782699
P 4.514362351123965 3.639931305929958 5.498553969350312 1.076196934632082 0.1786613306920665 -0.1717275796867107
Ni 6.296383470956271 2.4581304747567017 2.509892975390761 0.978554921206876 2.8866492529538736 -0.12099122967410778
P 9.249136910029517 0.6663569727722681 9.073093622936614 -0.28705132666239597 -0.6590848118941423 -0.4418399645019229
P 3.180634567091511 2.99552998224696 0.8280418885459134 -1.7505965225064237 1.1021992722331146 -1.303540046800568
P 0.6144093768546349 8.561438172023047 0.6111576526768723 0.7919429682091652 -0.4824207141377628 -0.6864277226834694
Ni 0.9657230154592839 2.430524303819632 9.860939140754212 0.31632899258059066 -0.40404757624449766 0.7286642627551774
Ni 2.0124228921645684 9.124583596344104 9.561335915668646 -0.6333267290934318 0.833125613095062 -0.07820678751872982
Ni 7.954781404156299 5.475992807549452 4.219729725010358 0.9574047694918221 0.7346040252783801 0.08521535762607906
Ni 8.288008722212723 3.661482349751114 10.732451447255478 -0.344398240012981 0.6575910009574353 -0.3948468835818361
Ni 2.4926567909691015 8.15290776774475 11.724402185359086 0.4466479274135275 -2.5076727607453906 -1.1072376059879705
Ni 7.9973905244604495 3.4047672830856395 0.9139391219030025 -1.140363699117978 -0.8613897501470777 -0.4522699015859952
Ni 8.961020754050178 5.008427239208628 12.829724249715305 -0.1681635164845362 -1.02182375919784 -0.8186821839762224
Ni 3.02368492814538 3.519712384312159 10.535371476601805 1.2686630324177248 -1.0368569993818788 0.6252442091956135
Ni 0.743182676980124 3.0302423238699876 1.8649605491604222 2.0974234265655554 -0.36053319790163074 -0.7644285648389803
Ni 2.528122535505169 0.3899325138508464 2.343429066818104 -0.658478288658395 -0.3286746586301372 0.14545193381963337
Ni 1.7695109109676288 1.8039256119336526 7.749998121248554 -0.11015737228339738 -2.409000249173142 -0.330435864295618
Ni 5.8833047453881395 9.690807741211039 8.455986877627884 -0.406873218618751 -0.4096320123108106 -0.5895452131321073
Ni 8.477494205477543 2.6480345151954334 8.251731906886322 -0.5756486576556731 -0.8955167737377739 0.5276955268151621
Ni 0.9212434096512778 0.43165615320041106 11.570189910330333 -2.9740132814918394 0.445528983317736 -0.013231668198925598
Ni 0.735476574344894 3.915620964479402 4.880331071577821 1.5827181413624742 1.1797170041046199 -0.3956629517252283
Ni 2.530745493795012 7.397672504410094 1.6933921033201562 0.22378650516547913 0.5251545055608633 1.225958551570663
Ni 8.218677051671982 5.461808369989131 8.711509521411239 1.2512276105500968 -1.08660656000118 -0.3843642388829574
Ni 6.376634833100825 4.984495070131444 13.330055403756942 0.538774153226827 0.75170726061757 -0.8085589794992913
Ni 5.271104420284702 5.969704247353923 5.454570121261629 0.8411867928366417 -1.1662421095466367 0.6479347088145938
Ni -0.06575626214848693 7.340665017323402 2.8184802976825645 0.4180222932570349 -1.1187744029829765 0.3479617889945233
Ni 3.814850999542672 8.464025965748137 -0.16459900383111975 1.6901072068721152 1.5898907478515134 1.1188559069531891
Ni 5.02131880016509 7.54794383111471 7.126520005625845 -0.41963154672568376 0.679012661166321 0.06960593322359626
Ni 3.170235746637453 3.3485411027235816 3.0029551865121427 -0.7667320161611763 -1.8635419990579196 1.175667773735911
Ni 2.3199414984723195 5.060393437667324 1.6478549430527347 -0.21294596290654938 -0.05157452964318215 0.3533256244095979
Ni 4.2503922934440315 1.228149062231012 4.260910170160891 0.45694879511890335 0.3084719584300171 -1.137058803114461
P 6.800261199451515 5.924583784006306 7.016592939850994 0.797133254160853 0.2037558117668491 -0.04611684896272058
Ni 6.070557923725435 7.580302951293303 1.1422918243372078 -0.7756172344659481 -0.08545678421292378 -0.4866103267390781
P 2.560230521379416 5.97735919300123 11.025574477161847 1.6729726040743575 0.8700883063623402 1.475596727691923
Ni 3.8959766811171748 5.427021618201852 9.360103857849774 0.7240655876409013 -0.38169440536027816 0.48473830652734584
P 4.5309372152108445 8.502189078738299 1.960240904229545 -2.677571771863795 1.7741357432789446 1.9983084281392491
P 6.427345360037788 8.31751235233819 12.610630962095065 -0.016732482263332474 -0.06620179263805373 -0.38912412216544595
P 1.6663877245864651 6.342713099472964 3.728655195401527 0.33550762239157056 0.1641219994253109 -1.0012973571097143
Ni 0.2894992549073514 1.820314450609905 5.9038921775822475 -0.4700655350065195 -0.12499597995812665 0.5952306935526588
