# total energy = -381161.0098534266 ev
CRYSTAL
PRIMVEC
9.27425728251669 0.00000000000000 0.00000000000000
0.00000000000000 9.27425728251669 0.00000000000000
0.00000000000000 0.00000000000000 13.57381298926446
PRIMCOORD
 96 1
Ni 6.366796043013659 1.2127389545385712 3.344560496718651 -0.35601654097819974 0.914754024700831 -0.10020334639447905
Ni 1.2806265164609838 4.253183577210419 3.274926592185584 -0.1956046434146244 0.02600182338040038 -1.2895388474254694
Ni 7.566115147538333 7.152177230696389 7.727068951965557 0.9799052645871833 -0.13323225182498988 0.04117878823115489
Ni 5.712654867457168 5.560019144216859 3.791383074361755 0.8243226700914513 -1.5811945056290961 -0.4882072389125528
Ni 3.711437123366731 4.139406991190726 7.4291241685885865 1.047894488142963 -1.3572935863729398 -1.055904502931633
Ni 9.32628567551874 9.28844670657838 7.868820407081256 -0.7486988128085493 -0.6562630261746311 -0.17663478718034095
Ni 4.650381459999092 6.687416384983567 2.118233828112795 -0.41324775468652697 0.4831917879758324 -1.2816625300011864
Ni 6.749136565938985 1.7976478008941323 12.409532849527244 -0.004747541987314404 0.04597363851663695 -1.0423226504821403
Ni 2.3958188348930065 4.225676130671912 10.703005551999764 1.9637291475024827 1.3302065003481607 0.5321857013760318
Ni 1.9723469817592256 1.523408018647447 3.1059598296298137 0.5051119850876913 4.100014284130242 -0.25523881013748945
Ni 6.206536880442719 3.2272188862723215 6.775762030627926 -0.8441242781984107 0.02110747140257655 0.2226858159021326
Ni 4.201739273114296 8.51686561345037 10.2421204183262 0.2143901515522437 0.17932724641083955 0.907596073499811
Ni 6.278078499659862 3.476075026854848 2.175447647546614 -3.8385703736233054 -0.8056960561291994 -0.4761863031922767
Ni 4.466213262641815 8.181146780932691 8.17203204106147 1.6484062275889029 -0.9055834139451564 -1.2187743751173978
Ni 6.2801652075058385 3.9737409367344347 11.439412170250296 -0.19285382014236463 0.14065065577624808 -0.6222565873221994
Ni 6.116159245069234 9.180355240156834 5.339992031808625 0.7422998512607409 0.7044311012394255 0.9827015963853978
Ni 0.2530277014230593 7.666240027116798 0.8564804248365254 1.6456230084168109 -0.19226503751843016 0.03970194657531227
Ni 3.3282433687888293 6.907893298860823 11.908495747194271 -0.11785242693480993 0.5168452143642196 -2.1218900442483517
Ni 2.7449389689103967 3.6042916311686937 13.273749859630938 -1.781968609059802 0.7141228746058927 0.9861957255815854
Ni 6.181143964521467 7.7145496323154115 3.309879412318533 0.1410581756273119 2.881458967002186 1.5467358097305943
Ni 7.35947542524417 8.0460115808273 0.6312393250904798 -1.3425046009892232 1.9507065099905696 -0.3272063016147268
Ni 3.7593108384819622 9.312096062166106 6.459031312082917 -0.9031627203188058 0.07418969593953674 1.393982200043225
Ni 0.40131843521519234 6.714719797866024 3.1855162618269226 1.088223783889629 -0.07864464638709681 -0.7367149009737957
Ni 3.0412700315531453 1.160181739591261 10.93809034822456 1.1346589354237167 -1.4245389897841594 -0.9133959680110398
P 7.047424496828404 1.0678843329994783 7.24477790549512 -0.636344175763517 -1.4502294525717283 -0.5936263251800163
Ni 2.4375900888408952 7.962923511529089 2.2709669310525826 0.7543282431801848 -1.5058326437583291 -1.5350956543885046
P 5.064467764954528 4.388235309001972 5.371347367615112 -0.40704522542024096 -0.7243602360631848 1.5433329546966323
Ni 7.112501958851569 1.3605427898333098 0.8962326730152189 -0.8962503094696888 -1.335517885258745 2.7204834836256566
P 1.3684166341054584 2.7331792109161865 1.299821446366833 1.0528824282758575 0.8651926688329358 0.49756348331647215
P 4.763777801477962 1.0698319269890557 0.7466463255071624 0.13037395644058838 -0.06218727216202194 0.21778452194577333
P 2.632061985828746 1.9775220172172456 6.892184562196317 0.9578061186952987 0.66624224887453 0.18759874239101237
Ni 6.371470268588646 6.234211263608904 12.544035545298879 -0.3600421171978251 -0.603570837987238 1.8221937751284358
Ni 3.8531106747228474 4.269914337006599 2.1523584570873187 0.04725353367032507 -0.7268963722214772 -0.8675004910305059
Ni 8.674852583033472 6.7178359482493475 5.293502035851703 0.7648211722917085 -0.15957757458773805 1.4097435766425397
Ni 1.1162310352264642 3.14349089323468 5.31534198388054 1.6168675335506733 -0.6059069423195824 2.004035046210381
Ni 4.163390220033808 1.7455079275160172 2.7388420722973095 1.0935534236326587 0.7987905872586178 -0.71192612406489
Ni 6.415365327410883 6.945880655914675 10.443624057042136 -0.43807766924601327 -0.07316356866786755 -1.8189199894731707
Ni 2.578623716457579 0.9943951197927575 13.335864196512818 -0.8999632395449016 -0.4393339102506176 0.9235844785082674
Ni 1.0647218113306884 5.943676611649422 12.470288507744966 0.8387648136587103 0.23723620291248174 1.0313936622744622
Ni 8.75434224057951 4.243612543890211 12.041803918652295 0.1734198797874691 2.46401517195644 0.13458362364656176
Ni 3.7345485720430496 8.086243308097712 0.3972284878370798 0.9829952163664167 0.5264747670341835 0.846961747647206
Ni 8.32883005088522 3.5002715636110735 2.4150388052930074 2.6411335836414196 -0.3442254618805426 0.9061927653943813
Ni 7.587371744796007 2.3278849016851275 8.984574745493129 -0.6975107199705084 0.2490041420816873 1.1679956019026336
Ni 8.386831254746253 7.9436052340039005 9.611657348554425 2.0720823766976055 -0.7004201803078195 1.9928453481421486
Ni 8.962697700435918 0.6174985857811565 12.624406257268774 0.5200544653301367 -0.17820238877777697 0.22671627721776438
Ni 0.9732776363914825 6.00669518859789 10.204113585332452 -0.6087670374761968 0.6193442987714108 -1.0558767350174911
Ni 5.522495500017667 5.839842029233666 8.012757804593829 1.8158752891095757 -0.8526356581035315 -0.31391575515340775
Ni 1.5262552155750675 2.432424327639968 11.6631768082671 -2.4038613852846797 0.6721455017328424 1.2909051316453768
Ni 1.8760523703602627 5.086586868121872 5.961958027231589 0.3003400733515021 0.20261758439734784 -1.0442268094833886
Ni 5.581822922643033 1.6660739155125388 10.532260914359222 -0.9961872895766585 -0.8139444121809208 -0.991025285759745
Ni 6.6311309186847796 8.737138493671575 12.215427285694576 1.6245314778538344 -0.15964982258657023 -1.4549484553139522
Ni 2.9114118837337983 2.445816354882586 9.047584048184504 0.8136016841295215 1.0785530935690844 0.5645926569518276
Ni 0.7809193425951779 2.27999263805571 8.111479489074089 2.1916011355912453 -1.2901854798705328 0.6343700827562816
Ni 2.50094253904472 0.18777124623799504 8.696755596010542 -0.5581978091690775 0.5145232510992623 -0.05290404708788308
Ni 8.500774777393625 2.536156893227698 6.832351692559371 -1.348332777635226 -0.225203954338296 -3.6554996010096334
Ni 8.535914937519856 7.711776629444536 12.174270914991968 1.3354734051740549 -2.4533384089688846 -0.903445027445915
P 7.8863923419957915 9.114424546481091 3.2549461327039384 1.1870060815668653 -0.6966002923410971 -1.3061407176482085
Ni 4.778134351458276 1.8734184813457866 5.518840515297227 -0.5192808203889057 1.094082042442619 -1.0917960746219197
P 4.579628152634872 5.3128509184253 11.051037815660118 0.527311404002866 -0.41003053330080996 0.10790225770063352
Ni 5.145404206607108 3.690736981534651 9.34999531377757 0.055472322035691565 1.4841849835815664 0.46862983100125744
P 4.699831798820171 7.65005644848912 5.172790160377695 -1.6332164072223423 -0.08080257327036405 -1.2915283670516724
P 5.743232093093534 5.176037077786034 0.9734093308422063 -0.1686895641913353 0.8094704355699672 0.30613945364209855
P 2.1722257706324273 5.830502852340788 1.6371104106103949 -0.816808106881961 0.1598547395085247 0.528162953369884
Ni 0.27692282482375546 0.9608037606010938 10.194367268553183 -0.6281372144726924 1.2166964095424466 -1.8871051310898403
Ni 3.4135387112752267 0.10132496844632854 4.3011472526194545 2.005382561377211 -0.6649520693081967 -1.0079308032658318
Ni 4.691911583262557 9.236557238141781 12.323379638259723 -2.2475236577904774 1.4146474417020605 -0.058889061026724386
Ni 1.8804019969369856 7.375788843471155 7.906039855647791 0.11965836979529716 -0.25022695874519485 0.7057385071969394
Ni 6.692155530358205 9.21375183994954 9.133330119565631 -1.405249545426928 0.6530784577990624 -0.6370936523350318
Ni 3.8048474408097004 6.2805547263037536 9.277429816577335 -2.058872305765235 -0.7723015398291537 1.1560847093976605
Ni 1.6311285147852643 4.413925001150208 8.407320870942316 0.5246194589929997 2.17538750194586 -1.6088361786057648
Ni 1.286265264773665 0.6286703558756562 5.865923095031236 1.075894572900315 0.6474991639390719 0.6886738384051688
Ni 7.717925461897345 4.705470547132852 6.844201410847385 2.0734787428245003 2.8564187362041062 0.4644438179443678
Ni 9.242066146855157 5.204666709432821 1.0844796886420964 1.4556411105056026 -0.47351826944181036 -0.9363829158245164
Ni 0.1913863516529344 3.663210986481957 9.816255806862369 -1.6113491748356055 0.27958124353759595 1.4493763605428136
Ni 4.37586345003961 2.365723870625489 12.574671198754931 1.4573269828484579 0.22647227952775834 -0.47163982147217487
Ni 3.3336038893887143 3.663266632024516 4.347610353230807 0.28974018634846876 -1.535760027445381 0.9212296051228458
Ni 5.079362221846248 1.8269359047945393 8.057523716157121 -0.999987637159355 -2.511802466643048 0.3382905844533464
Ni 6.426475887408568 6.67270741323371 5.868950212546465 -0.7585451094750099 -0.6962760762324589 -0.6186696413018894
Ni 6.871120869486183 3.298677037175626 4.328566593715577 0.4316715086093534 0.730951001906825 2.0205520700287978
Ni 0.5652891554748422 0.7761347533607829 1.4570126846913347 -1.2784077705093144 -1.2044551302812483 0.04366555920875061
Ni 2.0087206180788573 7.5266346350924715 5.490376892852408 -0.46061338845468414 -0.022426447324316215 -0.2511810951283481
Ni 3.7710891449903587 5.673434034209916 13.695977107462808 0.09699178143571682 -0.5047810841108339 -0.17471905821486686
Ni 8.827330643903196 2.6863534868524894 0.21877323284923006 2.974476080060871 -0.7731404907906815 -0.3580842221405059
Ni 1.127972244706488 8.407512848064146 10.808799784939318 2.415435463275524 -1.8359556047992187 1.0268507800987863
Ni 1.3812429316653898 8.945837101040434 3.7525211548640116 -4.967891698884192 -1.5537459224998402 1.4095242615428822
Ni 7.505025616065255 6.4538534943477694 2.0088430382724876 -0.46916642023101784 -2.456198761235815 0.4721221604252321
Ni 3.1386868280603886 5.8545417267264295 3.7241651138014737 -0.8453316682429506 1.7736456910164036 1.215371777193752
Ni 8.549733580588763 9.086555403915948 5.240156509051468 -0.6484612707420252 -0.38525306924581393 1.1736828820953982
P 8.102213578812247 5.307406929511576 3.791885739096208 -0.40460781962334186 -1.312441977275888 -0.2634861377479462
Ni 3.7455292924414287 6.25731343802813 6.527334360723107 1.0273243773010952 0.8784022255446743 -0.4055663268818693
P 1.8686236904285891 8.098707909631008 12.994237662226753 -1.8281427936230192 0.6626599308399104 -0.6438908777625233
Ni 7.074013791914682 3.821253601607617 0.021137886766880113 -1.7369521922501119 1.9605972867417205 0.34251156451322945
P 8.507387322701094 2.3569040521298317 11.353354483830834 -0.6624542425870075 -0.9047393207773063 -0.6701942915437425
P 7.396349871446835 5.221249081115509 9.071596027224576 -0.15322077913177481 0.041452867828147964 0.1922961478666817
P 0.4832926662365054 6.004413721352957 7.148960918336457 -1.629111383915033 0.05745875633810105 0.6148566953137024
Ni 9.165358766437087 1.8854008215102345 4.193290424902368 -2.4588616527799587 -1.21515940407263 -1.6337635379750637
