# total energy = -340887.71072751324 ev
CRYSTAL
PRIMVEC
9.13401483961693 0.00000000000000 0.00000000000000

0.00000000000000 9.13401483961693 0.00000000000000

0.00000000000000 0.00000000000000 13.36855399814919

PRIMCOORD
 96 1
Ni 6.4086164222122095 2.0228462641688068 11.161766692851215 0.9520275643403089 0.12051454714800536 0.6079692241652497
Ni 4.939145295508364 0.2188546422110704 6.2964278885083695 0.15761222333125113 1.8007032093548279 -1.2788659410926557
Ni 2.737692510839263 1.5699544207625407 4.949706956531915 0.01950156036803738 -0.7261417534436397 -0.9047632320367064
Ni 3.7621270466493835 4.665006116835185 4.754660123244032 -0.3604025858610374 0.726630005933968 -0.12435988903602453
Ni 3.6621917934636556 2.8710399892469445 3.127974338114747 -0.11777812205344877 -0.32355070714001055 -1.101846002658754
Ni 4.9500239068367815 4.848453665046698 2.4572736971633238 1.1516037908081713 -0.5735555225720702 -0.14082497657058327
Ni 5.253072241559027 4.853934073776379 11.354033132110239 0.0703690366418659 -0.30676937391661363 -0.47349641506493945
Ni 5.738261960412212 8.024688482435014 12.709109860596548 -0.8027907095569464 0.6879912105158474 -1.3847696803060217
Ni 1.8333063282527988 6.8108692889562255 0.3974949585651985 0.41193572074332285 -1.797648481688904 -1.2509869552942003
Ni 2.747803864945524 1.7384495871565748 0.2596069615249763 1.8361834045393086 -0.5793271349485248 -0.37567776685255294
Ni 8.151231120003342 -0.0014130320508026822 6.910967127600935 0.1901060821938984 -0.3345833108050883 -0.44410690615922865
Ni 8.515751372643507 2.41639441504718 1.4206900086009562 0.06987692749679579 1.8280507481298454 -0.6899786732595213
Ni 6.90210896029086 0.800500468108091 4.714567279780598 1.1660716454070434 0.2939552528710808 0.4368684794292605
Ni 0.8188086868710445 7.470591757820643 2.607697215771236 0.3158111724039077 -0.3844231171453509 -0.045960011669882145
Ni 7.782527488699521 3.8806500194432787 3.5465432950484774 -0.07785094684120786 0.06030213932416713 0.3605925903846564
Ni 7.751444437187682 3.917551438223129 12.53041199995076 0.6996948721060208 0.8129805056057547 -0.1675009431998728
Ni 8.349475771784993 7.425551932077217 8.984416745775249 -0.6877312719862414 -0.49935785621273354 -0.6582093512677245
Ni 7.053660529695631 0.8845169607370066 0.16434649698566584 -1.6652983753585513 -0.19829478865227784 0.4741764718510995
Ni 1.803776059214369 7.0112787021861 8.840838257670708 0.6180937141937612 -0.24955204416535728 1.2615449333157047
Ni 0.44644962294452667 4.845028409590648 1.2352813874656723 -0.2859920321599462 -0.13875626696701263 0.01984248864722389
Ni 6.503756317759468 1.9603422026067983 6.9709255393080065 0.6020292045317309 0.49557602057279815 0.5134575288389093
Ni 3.7743392241020217 4.527219507356462 0.05199811802721079 -0.9777535083515032 -0.3231179904779661 0.644550108613077
Ni 6.1859565495398305 6.052526865001204 4.48365208475841 -0.11780229042316485 -1.0289580562497764 0.10668304058155174
Ni 5.6595084869667 2.977834887359323 9.069680944791621 -0.6259049827080639 1.5018129810759748 -0.03712210166327801
P 0.43053451599353376 5.863461897841768 12.350511189588804 -0.9851145767022647 -1.2220597307368888 0.971700360178888
P 4.038805481367316 6.3233869324511245 12.431658688247731 0.44202148438510974 1.994845152180997 0.36538204135349983
P 2.3568771762428478 8.594897608714644 1.2105948863428255 0.31986091699324914 2.1709050406944743 2.1011985773372714
P 6.518672163518748 7.899917843689282 5.758798878725235 0.4094111545492562 0.945141892964069 -1.0096218178150096
P 4.909240531873406 1.1150713621844903 12.719523550584396 0.4643988236390454 0.5870815820829631 0.6983481282701391
P 4.281176557437446 6.235819134965375 7.994688725048741 -0.6367326694511872 0.834839253352059 -0.3197179636574816
P 4.90797090385103 0.9393968603545745 3.846413906108963 -1.3722710336183785 2.282640813208585 -0.05788093147718419
P 0.2277155497255092 5.451919738300942 3.438953737670295 1.0714326804742191 0.7648602530597601 0.5049209521228079
Ni 0.7116475147752322 9.18443430978095 4.630010966891809 0.018863155453090096 0.10966860557243692 0.3839785734087645
Ni 1.9908315431729222 6.743304983333812 4.7528552419690575 0.36297805989769744 -0.8379330617860343 -2.195631082686244
Ni 6.1281017013835015 5.936059045480939 9.098316993805659 0.780879511306152 -1.5626463103132635 0.8379181493876989
Ni 8.795453166177312 2.306320405711543 10.363289408965832 0.020609705830551602 1.2898666630785334 -0.9356948886185562
Ni 2.5010484618916484 5.618706843974227 6.719583034147389 0.3105558375422393 -1.497324606287318 1.868497286180666
Ni 0.6332968513713517 0.23600558133060626 9.305676478706223 0.25191900173563714 -0.08845829004340895 0.713675502655829
Ni 1.7437747176389147 1.5522435665511225 11.57616505874166 -0.38291028004525024 -1.1450778167641957 -1.4866966942598268
Ni 4.3448863089199845 6.976432436679881 1.4714495542552593 -0.6683418117160361 0.8695961972172701 -0.8192393420312729
Ni 5.977216915040841 7.874689695503652 7.958112477186852 -0.9178236647650903 1.1655548536716247 -0.29868659690847915
Ni 5.222966529603981 2.830512366690956 5.0857992063117115 0.2701365531849283 -0.7029969398960603 -0.7690938315251336
Ni 1.0049060127033582 7.522564300607115 6.626645349508008 -1.3389176549689135 1.3924518794416278 0.8421278165936723
Ni 4.934642226335477 4.34427432994517 6.997141074466434 1.245955306407564 1.1170851882060115 -0.07175614679737966
Ni 0.4837364971383644 7.516901211586446 11.025313649496715 1.5288635574358638 0.6297549525817734 0.3707006253529358
Ni 4.739009902714974 0.1340325294988918 10.72934691625467 -0.07683124732744187 0.642032741507862 -1.3166282474430937
Ni 8.578282836249164 7.168109732000464 4.717093748204981 -0.7575248957406115 -0.1477363589784359 -0.5904209308688412
Ni 7.444989115038485 6.271715812144786 6.6667637682121805 0.526619520142164 -1.5319141713367295 1.249066855453352
Ni 2.5387536739518524 5.376491046151437 2.470829488156189 -0.5637997287368871 -0.3074941678977801 0.17150826458705304
Ni 2.3338046554908916 5.48321287214742 11.260814119822735 0.11393200883448121 -0.08088279168899619 0.04080829226561359
Ni 1.1850196456043154 3.3303895809396846 3.669561116402166 -0.4543265270047079 0.7538479611096565 -0.4889885971632676
Ni 1.6146562879676365 1.4066656426617032 2.276971903562648 0.2515245945106958 -0.742399867173715 0.6658979781612339
Ni 1.555257791352447 3.215346667689137 8.368046136765516 -0.9310273079395578 0.8885341717723537 -0.30220412314343437
Ni 3.586169390368434 2.4949743422162527 6.885179064323421 -0.26769066274759706 -0.2307680786896348 1.5654315863678845
Ni 4.234282526740477 7.075883587094487 5.88265794281893 1.2930435181446183 -0.7844080932847006 -0.5667618966890045
Ni 0.7849013980605097 -0.011022015356842902 13.149977687249894 0.35902524589753654 1.261613581770111 -0.671288810159502
P 0.2702362142561921 5.811836447608175 7.80175458932615 -0.1481554487937255 -0.4918165535303659 0.08916714318497546
P 8.806916354436893 1.951491342508364 8.041639386635916 -1.4920548732479464 -0.5596761934868167 -0.20739777939481058
P 1.9070360936961037 3.3995523391082556 10.526532516993921 0.8869236327521242 0.5517021741424047 -0.8815114605976172
P 4.027305757049535 6.671036660218421 3.631875085772516 0.2691289378560204 -1.6932611791200642 0.0057266180711320735
P 7.028158361073518 4.192850636744091 10.22537949029069 1.3163315421382813 -0.1982456805818973 0.42932769096752516
P 6.366490347110063 7.782646230888664 10.41622924389309 0.5135673149438962 0.08489602661344733 -0.6189102965577857
P 2.706755603560215 8.646422584788194 5.6576250531665995 -1.037768712562871 0.9405347332093609 0.7954784921662493
P 6.908064337777113 4.210808109348345 1.36732270179278 0.6888304185876911 -0.5993053778426646 1.170213435489559
Ni 5.617501154053697 3.238793683037621 -0.047523364299426475 -0.09331356125318123 -1.3689283423983907 0.21549983967665465
Ni 1.3785328778493422 1.0015538293637034 7.2702873857580865 1.3557064443914781 -0.37384611296045295 -2.0765692088243655
Ni 7.26517690461766 0.44069976078563655 9.165573483137756 -1.2448633588949656 1.3865707380705024 0.03242829573203447
Ni 3.1406395626890387 1.6295721337269178 9.337774319234509 -1.086696291501509 -0.3514654312724076 0.2740258609370054
Ni 6.241317811724156 2.280882175191275 2.587389561223404 -0.10246900250020417 0.3041705028411858 -0.3739474144250076
Ni 4.079698464505283 6.9785789300990055 10.205741359009334 -0.12586295594411226 0.1657543928224113 -0.08886323879131146
Ni 8.368118295480457 7.645097105788227 0.37357845486887176 -0.9487877172467725 -2.5638099700585912 -2.0876740604882755
Ni 7.895131620065361 4.0112664275006695 7.834493637675808 0.09952174694642214 -0.06992963511160215 0.2039782121903003
Ni 3.2229461677942943 8.788483913076067 12.604487031144032 0.22428272807560728 -1.373455540844783 -0.8676858675684346
Ni 0.21063311571509435 5.3287018820286205 9.948101864218312 -0.16013036176741455 -1.75971056899255 -0.36468398684521064
Ni 8.64645912084639 2.367226014727395 5.661355384708601 0.2628721583130311 0.3383862294909462 -0.21935315198447383
Ni 4.114855286506185 2.6605374899399075 11.394138763194041 -1.2210138059708777 0.509932032184154 -0.1794077219397878
Ni 1.2117092361178605 3.6382515413295 12.654860207982892 -0.5388011498100205 0.2819273751722693 -0.19697349873769301
Ni 3.35141608243256 8.43395627235302 7.687413168393001 -0.32544946682462017 0.07577760925194692 2.11836634736581
Ni 5.791339718959169 8.194909977578897 3.5273728253120544 -0.25935874584313395 -1.3063145242219116 -0.861910141426922
Ni 2.933032545994183 8.613914627006638 3.482387803655925 0.9790876537818946 0.552716474339532 -1.1048050852870779
Ni 3.520066527073935 4.612129306608316 9.11236693498565 -0.17017180516381664 -0.889146608545372 0.7968928560152727
Ni 7.55079753957952 6.183517767655124 11.371278151579636 -0.5227417823543127 0.08720153481817239 0.2904166435902031
Ni 8.642175268022692 9.249559833518658 1.784622030704135 -0.5569842484769505 0.10821901761010394 1.7530334140826904
Ni 4.760721455299059 0.5249729192233922 1.6871246460016598 -0.5003158492506287 -0.7435350092194227 -1.1129071455689221
Ni 6.274328140305932 5.918686149807851 0.17555484623931789 -0.7003065375480907 -1.0875056747766818 -0.09177475601115162
Ni 7.97650655568657 -0.05844673229913512 11.416958271742978 -0.1019900059812566 0.23606917918757406 0.24282938072954305
Ni 0.4506074263674444 4.882651415519906 5.773116446531526 -1.9551843432562652 0.24804897725726954 -0.4884226973574685
Ni 7.728919957308693 6.154489869416914 2.1310012170476016 -0.8378160765921958 0.1365194072166939 1.4054436637156054
P 8.813876473523589 1.4850811575688851 3.400131435630692 -0.8156984187575501 1.396667203074556 1.3808947707316477
P 2.272533685893061 3.4545847767687996 1.247373909327713 -0.7139778643875961 1.098166754034954 2.343611439354686
P 4.938743398868189 1.1409023553303856 8.423525227737528 1.0055427626496296 -1.7844306974470492 -1.1721235080280783
P 8.554488728347799 1.9386215160081635 12.46549473174478 1.2664009758564254 -1.1469284968196893 0.41676502381116615
P 6.408141453455637 7.872342253764439 1.367656093323836 0.9624623865203875 0.4772818502493006 0.7178761710007379
P 1.975504666758915 3.4844164682873617 5.684683657867943 1.571402973459971 -0.2887495403004253 0.940330844728671
P 6.840710114489338 4.231542322375637 5.653681899085593 0.6806954481853825 -0.3452369338641925 0.6468432755226279
P 2.4085482965491876 8.64904404696389 10.397526435701602 0.3468243329559705 0.3320551450665959 -0.07229299313745614
