# total energy = -340889.0968186716 ev
CRYSTAL
PRIMVEC
9.08124275336368 0.00000000000000 0.00000000000000
0.00000000000000 9.08124275336368 0.00000000000000
0.00000000000000 0.00000000000000 13.29131671563783
PRIMCOORD
 96 1
Ni 6.45864350605287 2.437478239348936 11.119994622188264 0.7612080010191535 -1.0666424581744276 0.8382349092971694
Ni 4.986437816311683 0.628591826644594 5.964624801421271 -1.9751795554312694 -0.5762747212754462 0.8184857516947001
Ni 3.107365201748766 1.6773782101638675 4.791984794986376 -0.22403795905465285 0.5253979890302372 -0.6909677766456681
Ni 3.602865057094345 4.259348105001019 4.670821036212265 -0.62301763385794 1.511820743020964 -0.4209440948895202
Ni 4.182084890564859 2.870435574969334 2.447795439386656 -2.267975497886926 -1.7651877900570374 0.19882443590350274
Ni 5.371954739118904 4.564750303107278 2.0448289083825504 0.344144215020646 2.951880197038226 1.798437810359419
Ni 5.862033092464203 3.3837255851198536 0.20055380029312705 -2.511665683954868 -2.125046587599463 -0.7187783711000331
Ni 6.126224610374024 8.176959959126728 12.29174375869648 -0.9842751115201047 0.3701005298750917 0.8997719494697021
Ni 2.232895999713557 6.74879829736102 0.20203313475853024 -0.18536265397164206 0.3749493733269607 -0.2129565044295107
Ni 0.5952445946592835 0.36495517267483524 0.05377367159876304 0.34053387196156837 0.25521258488524434 0.18313299331017494
Ni 7.998894948705453 8.977217244333977 6.75851522724427 0.6255995356525033 -0.4607553133491871 0.29725217845479773
Ni 9.191216732837516 2.45841050419089 1.328082732713963 -0.5083729152271503 1.19727249648988 -0.17895546489371764
Ni 6.896395737914722 0.937057127974797 4.778667152300594 1.692168203166202 -0.043616451138370045 -1.2526473737157588
Ni 1.2766502055300617 7.6417841536316935 2.508682448534531 -0.9122950216373773 -0.09130655812548147 0.08163612491525295
Ni 7.964186438412199 3.965070429424649 3.9057862596453665 -0.6250871147924589 -0.4782192744619055 -1.7677108135892075
Ni 7.787919514081468 4.021937172348865 12.657028580487914 3.2553724428654647 0.031398054695307216 -1.774796259681079
Ni 8.595541687265646 7.232501618203475 9.28455647154687 -0.9449423753587531 2.066936570830608 -0.4031129802453703
Ni 7.259155066060801 1.1298700768356977 0.2672255611565442 -1.4138280311245586 0.2628801287328311 -0.8724493503953491
Ni 2.070105639819034 6.648414238548454 8.863035145087196 -0.17483372941586017 -0.21059623172745018 0.3042458361638115
Ni 0.25811071767634053 5.229070463620723 1.1893494933369335 1.2541923496053755 -1.8306511618671697 -0.013344282517389922
Ni 6.557610890975916 1.9764326194959283 7.036516591204053 -0.09749931719975466 1.1529798452200917 -0.5395652816695546
Ni 3.5173288303931 4.593474274341595 -0.06557202235046246 0.35828682506961523 -0.8731708019424059 0.7989222277404757
Ni 6.173365342172108 5.6307974049714975 4.4478856047132895 -0.7789622396787811 0.3607016051586949 0.3864296060524184
Ni 5.413337962930092 3.282042908575227 9.01810554040812 0.3678287031217794 0.3339945281811538 0.051640092773794936
P 0.5191346980690796 5.72639564878549 12.26252940034656 -0.42097134858302987 -0.037681059490541555 0.9255233474021931
P 4.5405851157994945 6.368257895652882 12.458642472870613 -2.241996043104029 0.3589992777556075 -1.248876336709101
P 2.4025881041980517 8.82429819545169 1.0341882855871944 1.0794190411138056 0.052470559094890276 0.8482061615772682
P 6.340487454921127 7.984891672182115 5.590128874975088 0.013026237056338857 -0.469680640863275 0.6780281857658647
P 4.97453230689398 1.5602392582348563 12.623441603690532 0.037761535019489804 -0.9532190135452486 0.051879462478110656
P 4.396819959741802 6.511078602450894 8.010330957866179 -0.9221935116980119 0.022859163986360634 0.5289818497267534
P 5.046119744529177 1.1932662333917425 3.567934056350493 -0.4162713720041992 -0.20434947948679003 0.49614037771670044
P 0.37893211359381657 5.950829485359921 3.6575577504727197 2.0860892324996585 -1.1764046519019353 -0.4779711630068414
Ni 0.5164194064474986 0.13498177794266458 4.7852328909039485 0.8080604425963179 -0.08024387255341665 -0.19024980686061427
Ni 2.496497236836078 6.616275719990677 4.642032588153488 -1.5139915254200376 0.1884906580776625 -0.7265171345051875
Ni 6.222440378703961 5.8558487660618725 9.22400092776417 0.0007525618953083814 1.6777473997551815 -0.8763633407377747
Ni 8.848763063774564 2.6818635665341137 10.002871885985385 0.034272290919308716 -0.37278553290642247 0.3760858009242491
Ni 2.674071860141751 5.46921485038022 6.747018373756238 -0.1842982172628697 -0.4761431086591671 0.7773360169292677
Ni 0.7446192344449041 9.467104891578762 9.267224919507445 0.033991526454096296 -0.4671445047049826 -0.27402457538542485
Ni 1.7629325993508749 1.3486372178520454 11.411326342573862 -0.6008156438396041 -2.038297566937677 -1.169935499237824
Ni 4.579198560531811 6.813393177977429 1.3672773769906985 -0.15036479774021844 1.3603436860531735 -0.07117919124798709
Ni 5.92473907456125 8.039760541672392 7.8803956265927875 -0.346225523029707 0.5806913622859031 0.3206139931091898
Ni 5.4757079390405226 3.1367884286849623 4.658859223088698 0.6305123995730884 -1.411199592362776 -0.27871015378655223
Ni 1.0548136044197527 7.498727334518762 6.668599117101258 -0.33341165909449033 0.5527010477205642 -0.31127986019245746
Ni 5.268047158068301 4.738592535588637 6.9900633094921 -0.7644805011228383 -0.1835914210038322 -0.13478674079630334
Ni 0.6000040740534996 7.840799591380687 11.560348630135678 2.0956285394486622 -0.6613831210100158 -1.2135504077142971
Ni 4.7971302272030565 0.579777421783441 10.49034483074797 -0.030916744183514495 0.4780714360301314 0.3016659912517773
Ni 8.03097897980594 7.221885645274952 4.530850023430481 0.4291086329781836 1.3647551848573076 1.4896537200056217
Ni 7.361001204977295 6.134751897439791 6.8484304292629945 -0.29860226472478896 0.7422168046286314 -0.026757213489186173
Ni 2.6107029473143504 5.519561260915489 2.3509812171508244 -0.4931239594878798 -0.6405587280654967 0.02991967037756783
Ni 2.3900650702644053 5.5922566101822335 11.19887793035449 1.2187918586188946 0.8588150474413662 0.003195109898529981
Ni 1.3648199926669533 3.5167657933344443 3.7508756941991575 -0.4607324305310517 0.43406032055650406 -0.4140098296635321
Ni 1.864969444367881 1.3592441095376866 2.653531904992279 -0.5700536800663989 0.0781507374698138 -0.869526006100967
Ni 1.0867886606056623 3.5783184575855365 8.09075716919798 -0.051390695767150205 0.6295510641010835 -1.598315738690415
Ni 3.6938500295245142 2.6724463176659548 6.887759475934376 0.9938321590809207 0.8643465187825565 0.4300987648055947
Ni 4.164403710674496 7.31308856753428 6.076085252176454 1.625558633566768 -0.034770570711965924 -0.6783601151839865
Ni 8.72229767540621 7.319064025350333 0.2917885069025391 -1.0792488340845285 0.30778958765101183 0.5016739059404199
P 0.21942189862810693 5.8823659952759755 7.834898599756261 0.30809914847163067 -1.2273641736689378 -0.4370854805360731
P 8.669907985222594 1.743970964214215 7.804834237072629 0.014229513335820655 -0.24402880035428295 1.6788568307692766
P 2.156132253635882 3.715572362497163 9.864948693473389 -0.3553678516506073 -0.12486176837310754 2.0051938424051725
P 4.302838177160724 6.242282894400131 3.468036752156378 0.34071539184475513 -0.17549116049420097 0.7276504767786823
P 7.245923695182395 4.352530738208522 10.254490423125711 1.2294431676851536 -0.848933526661596 0.4227448955436849
P 6.618573274439707 8.061174112387068 10.18029848503209 -0.21169357855668705 -0.43776990819760736 -1.4510192954628751
P 2.620683233241165 8.778964630987032 5.653036460664106 -0.7100402198960868 0.422525323333711 0.25055811683236845
P 7.375830874602853 4.197768197021282 1.4951004111698436 1.0453038445976515 -0.0838948390424426 1.2979322136954872
Ni 2.848377236010069 1.8624721025754571 0.25488506020481677 0.21793338881881175 0.21595569626715067 0.8115077777149702
Ni 1.6206386046399928 1.445806516684545 6.911511466691049 0.17697442990794682 -1.387685568401236 -0.014936566705174275
Ni 6.920851524994715 0.9356676978139211 9.12439603959084 0.5870895525027631 -0.28824817518397455 0.4214377466964871
Ni 2.866830321545362 1.7688717321954035 9.101773755448631 -0.8759555637763946 0.7276741309277662 0.6452923860957402
Ni 6.858971935999888 2.136307900425476 2.6020412578539354 -0.2379247443390741 0.5349105565063627 -0.9975088366015594
Ni 4.3714560483736555 7.311045287885932 10.396827099678138 0.27923954392746103 -1.254385182342472 -0.39724238039720616
Ni 7.595260946349554 6.468959797966302 11.415579996739575 0.24674902749892344 -1.1832491856275944 -0.48606859530299523
Ni 7.734576293395291 3.977484488443717 8.147949020617355 0.020385248524571346 0.038194251681534216 -0.8525688094213382
Ni 3.642840688258893 8.672741333001635 12.45021598760083 -0.3920397531503442 -0.2726888872931368 0.16183294628081807
Ni 0.2824802329489586 5.197494982121601 10.068917041089977 -0.20163439454847207 -1.666477483268317 -0.14639732845203818
Ni 8.91145996462873 2.504670355429466 5.797007760935209 -0.7511081935809902 0.3768938986478412 -0.9152798152973141
Ni 3.511435103762979 2.7400470896761537 11.389608550222652 1.7299778178148075 1.4113464023532856 -0.5963365250223278
Ni 1.3501174604417367 3.613326648893881 12.194915914596328 -0.5405340733407271 0.3949759529605327 0.3389513579657969
Ni 3.0731379973282342 8.677826829015299 8.056876868255522 0.840999873636816 0.09656240720778209 -0.3560044567933417
Ni 5.77692368417839 8.068094019462803 3.3133795533865644 0.32705383519726255 -0.4632647100346022 0.2465780491386979
Ni 3.244728081574971 8.744828238995316 3.408105997883929 0.8710110752869258 -0.9271395428493775 0.44777124238469335
Ni 3.773492529595638 4.946262397803741 9.27307233179887 0.5189964563792675 -0.34040094592812986 0.12896936278357787
Ni 5.406045724896214 4.548267847277279 11.167071785286176 -1.8104255788489143 1.3353268522938617 1.5161862190785114
Ni 8.379680543971391 9.142904520707711 2.058093879859619 0.08866937761295052 -0.5272988055973757 1.4406155836310481
Ni 4.672671793511523 0.4082400087454172 1.5448365621834732 0.41407487857351266 0.12673404569515592 -1.5712741611915908
Ni 6.292701954878453 5.769776746030617 0.0452436601601306 1.502818539522354 0.7110712322637625 0.8318796565031027
Ni 8.05588882903001 0.2708971076535517 11.211983071956842 -0.2641991046545708 0.7050476517775018 -0.0033398630065103775
Ni 0.024332282176803745 4.947497446835629 5.60683563750426 1.1705970440812226 1.1047186962208586 1.3241834340825323
Ni 7.801032828802414 6.483644167705756 2.377311372761567 -1.8096858724694125 -0.4116248743711233 -0.41579443236778074
P 8.864364639045053 1.7421456343950252 3.514410118930973 -0.22666202694106127 0.34167672731675997 0.4668696537770411
P 2.038720864420425 3.599014610112571 1.542457276548509 0.6350452544464353 -0.6948642834865968 -0.7681160409928964
P 4.821086545924565 1.372756998945421 8.453862492697844 0.4519490279114668 -1.4183549724606348 -1.8852035431917535
P 8.898564599736941 2.0128938096653193 12.194344704419077 -0.8656783502201028 0.6412141022613087 0.2565971239375968
P 6.6850298098468315 7.99299214083245 1.1270848596439287 -0.14635721924272216 0.36111015345102326 0.5858968177462426
P 1.9089408224003077 3.6407247586674933 5.8679567871958325 0.09456645982367584 -1.2878254642787885 0.3879951507673254
P 6.9291426997455625 3.9209809952347623 5.939596896039742 1.5772018395299352 0.778270355818079 -0.1017218399215345
P 2.3913636879964657 8.163329013561535 10.379229467222286 -0.26953337238329067 1.7229797892304195 -0.008978292239210343
