# total energy = -340873.3444435232 ev
CRYSTAL
PRIMVEC
9.27434331934386 0.00000000000000 0.00000000000000
0.00000000000000 9.27434331934386 0.00000000000000
0.00000000000000 0.00000000000000 13.57393891284629
PRIMCOORD
 96 1
Ni 5.162646694372617 7.658585799515338 3.3946925332466664 0.3890174213842526 0.3111677600946254 0.361717448017719
Ni 2.4344409343947677 3.741863665005602 4.288604754122376 -0.9687245653800155 0.5147322817862748 -0.424468820213327
Ni 3.373839172226191 2.0889438216103464 2.535096310197001 0.5181104542298883 0.05486502746899584 -0.8869038352577823
Ni 3.3546876532102776 7.903252251408227 6.932550322470551 -2.6454322110167734 -0.07028161913438219 -0.3356819431859058
Ni 8.201997399369782 2.1006109455435276 12.312784241025323 -0.5891672609673984 0.5710782646761714 0.49794760612876815
Ni 4.835911578183447 3.9748537186219615 12.375591021619835 1.2752512271582037 -0.027586137148384746 0.2106689939469146
Ni 6.32031660292536 3.346118159955699 3.8120778636330495 0.4285779572856942 -0.9949158790634026 -1.339940182696157
Ni 0.5358789781862959 0.23199120683765995 2.690640032242276 -0.8724074414138201 0.6060316408229046 0.036350513604576105
Ni 6.868077869810538 7.449495728709636 1.4247478111487595 0.3100830116708788 -0.942968282351518 1.199142202708767
Ni 1.7436136470062094 2.688956738924413 10.472198987395148 0.10040440666169159 0.6765102064594414 -0.0684705340675724
Ni 6.493079070832595 8.35281677091302 12.763859551061685 -1.383116975193947 -0.5249249060485605 -0.29347111414581073
Ni 2.24680241975556 6.017870991967512 5.464188984288263 1.0044184192371994 -0.5522783583608488 -0.5306363546110409
Ni 0.9575203047355858 7.148079569863539 7.950107161442269 0.25721033204156346 0.22545720799968266 0.9659050936533493
Ni 8.484623738590582 9.070011016443098 6.747089423649713 0.5282897087557353 -0.5208365949117997 0.01878525102730313
Ni 8.10961566526929 7.077761498590582 3.602346935701925 -0.7234937742978313 1.4921991121352947 0.7572186773541024
Ni 6.682618825858371 7.096690433366116 10.536838378235444 -0.8573284355935107 0.4125797820852249 0.3402507935035108
Ni 8.433253150779857 8.973038482384798 11.625169586172897 0.14747282090440408 3.097595668931891 -0.8417349520306279
Ni 8.282220469339588 2.8970915523651555 1.430624962529091 0.7757812708476381 -0.6845600733471113 -0.6556806713085997
Ni 8.849875202708608 0.9894982406033195 4.725264952291217 -0.9485632599407922 0.2861781800288233 -0.30064886284117254
Ni 0.478049737667251 3.691327768096298 8.653453884917793 0.9743375406914186 1.2927951495792378 -0.4334802796833179
Ni 8.333461216343425 4.957776449790761 2.592432155649873 -2.0221325271420403 1.0281957241624549 -0.6102382227050845
Ni 0.5046754499882129 2.7677793830485045 6.342490630438749 0.14400003186445523 0.03408665727106388 0.17269508580630258
Ni 8.93097933529658 6.515699194261076 6.0308328142322285 0.9282885688521562 -0.5324973190791797 -0.08241414073185807
Ni 3.4514468773715494 6.332985355940245 11.280282725180847 0.2390557726197238 0.9295008439927025 0.2589036605835864
P 8.72647079010534 6.861047917551911 9.739233720999904 0.12611492405391828 -0.2169165175185232 -0.9600332082536046
P 8.484892694547705 8.034688245351823 0.0683101759378749 1.1270027044300397 0.8185726549815514 1.0500770976165787
P 5.300648923407384 6.434465220866215 12.519637340215217 0.17916346713946563 -0.14113967959752466 -0.03563266160194509
P 6.1943988432744845 0.7893866615938927 8.03250042775577 0.15016579435553493 0.2456452529117834 -0.4660168188584426
P 2.8597623203849847 3.865703971746277 12.093931996410348 -2.1201905450587417 0.09191668090565461 -0.5105465258397014
P 3.9778864288971203 2.3971580741313425 5.0397319670981835 0.11037823004495184 0.296954701819037 0.7388620292237856
P 7.6935593482848335 3.123561742607089 5.6654366703579555 -0.3458534844022689 -1.298629496872828 -0.6808206609093371
P 5.3390354305293535 5.142317333751366 8.637545603771063 2.40265065280603 -0.8186837266381191 -0.3292899236166329
Ni 1.0683858051308552 8.110997542428306 10.489845280485499 1.5743669411843013 0.028671656903079656 -0.881376734791966
Ni 4.607985316035702 4.47973042186085 4.920362821286114 -0.5913087327904333 0.9048429362347062 -0.5529201057099059
Ni 0.19673664546468542 0.7947398125749994 0.26442822270117466 1.8572260841422206 -0.7738202904665253 0.13483430620478712
Ni 1.1869675591925846 8.107705150539372 4.800382496247338 -0.3510841366735889 0.9670872868869088 -0.08240462765016131
Ni 7.743724271460174 2.631168305516104 8.257271558296146 -0.8067237260627654 -2.5790604684597582 0.12474041230389486
Ni 7.310222914636041 0.495121948904294 0.9728266809989581 0.9536327040438994 1.9621268360123694 -1.3791564478843021
Ni 2.945735483231241 0.536544876038762 9.565473333748306 0.6988649200055577 -0.900489801472333 0.39313247199389073
Ni 7.713462089112025 4.590614470942818 7.180287509446329 1.4051068492014769 1.7603397179361167 -0.03996291354618279
Ni 8.91262540980869 4.19783675576463 11.019608756667392 0.5518106746958109 -1.5117837191354415 0.025060799623369746
Ni 1.975657717600959 1.3407547206075383 4.608352580032327 0.5062283580803217 -0.6959675438531046 0.3871137766036365
Ni 3.360280082249791 5.706522011394516 8.27689885112587 -2.293471585275502 1.9921742902170532 -1.3952050167067327
Ni 5.246802085922448 8.483733401629067 5.671843386743521 -0.075165943809877 -0.900057856141237 0.03175775202757111
Ni 6.870665411604938 4.903382426048227 11.943817474961643 0.9405298481133544 0.8502856698141162 0.3763557667561841
Ni 9.055858368492357 3.4031924689261266 3.9322612967911708 0.6058462642849759 -1.319703801044624 1.154913829018011
Ni 3.624728708506334 4.344399203710626 0.8875592956815691 -0.45984565705072417 0.18705803939619395 -0.4751635183547172
Ni 8.75900518657402 6.83894715735098 11.935700569662501 0.6794415211736233 -3.2953970628875178 -0.7669045371832985
Ni 7.1438782923263915 6.888778204165753 8.034576953231634 0.9947153330168224 0.03273734233202104 -0.9303210259011526
Ni 3.8332994160844844 4.393710887297848 9.949860550498553 -0.1386235980438903 -2.3395634945375576 2.032769438030596
Ni 6.452197765349715 1.165645843832979 5.80414838665893 0.947738964267284 1.1332800527983191 0.9466801839854664
Ni 1.4702894741645678 5.320931912311889 10.293878405518791 0.45320604024701944 0.9986223813807125 -0.3607995641891399
Ni 2.6706028134365227 8.443278715940245 2.34774808250462 1.4579723297419407 1.0423915560468628 0.21051858441197938
Ni 4.916885869964532 2.5967975890643 8.718228681170986 -0.3579656942847706 -0.3175448672655628 0.7201847645292565
Ni 1.737307093528814 8.017799666113094 12.95669077054206 -0.24779392382366996 0.8992407595565804 0.17723951064387541
Ni 5.164473740012392 6.092427438151013 6.6640710665944844 0.5484926660661714 -0.1799186001379353 -0.33388088542142497
P 0.4887875723968514 5.495512151515549 4.176334190709717 0.5102274519373858 0.8052833940718132 -0.683397420497578
P 2.4646938423995666 6.4182629430353195 1.191103916326288 1.3985096555999335 0.014701567876232747 0.7370360317586404
P 6.288691092104893 5.709211570965758 2.8439031932580057 -0.9882783191422269 -0.14873934632165353 0.2256605822597404
P 1.2179160429485671 5.052198539428057 6.998885990709399 -0.9105793244978512 -0.935636267466479 2.0659430965690873
P 1.4846832550423874 0.3188769650694687 6.651515460568458 -0.34624866295815854 -0.3289104287900271 -0.7018450856798042
P 6.177667927872689 2.5385639871752335 1.28598415852503 -1.1691536267664766 0.21692397371769093 0.5460290350170274
P 3.313036577229421 7.8276478044262765 4.7327437827679395 1.08885730370857 -0.16206743088912734 -1.2896108383139855
P 7.22034525323981 7.628388537570633 5.559030274244939 -1.2476879728279546 0.44777098527437725 0.7389098517425855
Ni 6.673214641702373 2.9010331482885277 10.357471650429309 -0.3795663032736818 -0.815202452957738 1.3626741339585628
Ni 5.693639948482602 3.4879414184503 6.769988704813003 -0.07201094312066308 0.012527443043049393 -0.4071100172199053
Ni 1.5882220241918594 5.865697566295304 12.950772812050992 0.048439069337993995 -3.614059588697292 -1.24164870861241
Ni 6.995980338938123 5.268031057848562 4.97020592474724 -0.11459818166357037 0.6419718063629396 -0.11297324446563768
Ni 5.9731130109647035 5.016028600366526 0.7122677143430325 0.4799833083408636 0.06950591731062224 0.6355011110369313
Ni 1.7345247905240808 2.934086907984758 0.5747421865564094 -0.45824797354630115 -0.8986442636231621 -1.0900163570136776
Ni 5.641870563907865 0.12498661557862535 10.031697356211106 0.27552944206572544 1.0731607189089196 0.7007102007444126
Ni 5.283834538915446 0.12342296128996529 1.7353335132641232 -1.153446243333549 1.2338412967528494 1.387003968953179
Ni 3.9825885209751197 5.676936856110853 2.845640277767294 -0.23860814355934387 -0.04932712836990214 -0.049856004290178654
Ni 8.76381857077221 5.852138476318903 0.5440366905961737 -0.38122157948891766 1.5293672365451596 0.961073476592661
Ni 7.989559290615052 9.045823528988619 9.073621518308908 -0.19795694569688488 0.07885367707410935 0.7886159607184612
Ni 0.7750095745341012 7.1347894358442625 2.32871805738658 -0.6704084644370776 -0.6102359087122393 -0.017584802961298746
Ni 7.453483696349754 4.992703626843512 9.511435444790378 -0.9320827457872657 0.05454338246351897 -0.41680076214510803
Ni 1.857103786569277 0.8364242761919124 11.905674883069755 0.07832300138161995 0.09907206100351325 -0.00095876436884351
Ni 4.279757030567325 8.858797121010452 11.870748633451338 -1.3099536636363955 -1.0381062984079477 0.4481198839733637
Ni 3.0502851558057658 3.6569106799277478 6.813411180373539 -0.0003432422720316669 -0.08032280542046812 -0.33217238737075055
Ni 4.516642308390311 7.52809578859335 0.9457502355912293 -1.2384589980305187 -2.3030222050784146 -1.6122796570696751
Ni 5.149365834696691 8.05892210452305 8.243914649004758 0.046325879649733115 -0.05393120280081679 0.4672820587241114
Ni 1.367195873495853 4.718108868963043 2.1853496932900174 0.568864287743988 -0.31093584658947737 0.05795086548317116
Ni 5.034067198180546 1.04935485257848 3.8716673745197556 0.8819752876079133 -0.8787184712335124 -0.1049524310436902
Ni 0.6758037785973339 1.1837029903336977 8.654445312221812 0.46299011621697683 -0.6853267763098068 -1.6029959177749038
Ni 4.6303179348203605 1.454383975320843 13.566622598068 -0.169500747238721 0.9750425371782433 0.03575941698779648
Ni 4.098248856881879 1.857929203127348 11.192825667398733 0.17557137891283311 1.4466982994900182 -0.22811547155813616
Ni 4.113291841794137 0.9262082667203183 7.065303273169721 -0.5078975182526285 1.1109906452724996 -0.3934872842301481
P 6.15930472804145 1.128863798110406 11.931451992974273 -0.48944548219502804 0.18932780926697718 -0.17541505584062694
P 2.572767765446754 2.260203845895025 8.381866796585438 0.655874789597277 0.8257066949231715 0.25870311453700606
P 7.27372837355729 0.06471729532442942 3.000559836505174 0.230744424540551 -0.8214175806295144 1.6153235861023212
P 1.2677007180465933 2.371904037191714 2.6543291231618378 -0.6603626501653014 -0.2436778447727674 -0.021081760370963692
P 8.894651732398115 1.664512772581644 10.353073756813158 -0.7622153592377453 0.3590108477198333 0.4450420163789884
P 2.563502696440992 0.43914479475206647 0.3992233838058195 0.4455603507763036 1.0365728924825568 0.5227980895135447
P 3.059670791275066 7.662314085541681 9.27841200353796 -0.43481416800339306 -0.5695710840030256 0.40418333049141364
P 8.795861427043388 4.101402133620577 13.140468376045034 -0.007248196921981065 -1.2784157409291146 -0.2616377716852978
