# total energy = -340863.29644397285 ev
CRYSTAL
PRIMVEC
9.26540755304032 0.00000000000000 0.00000000000000
0.00000000000000 9.26540755304032 0.00000000000000
0.00000000000000 0.00000000000000 13.56086051562442
PRIMCOORD
 96 1
Ni 6.920861111560026 3.57901387575198 12.580220292100062 0.7938563831817941 -0.37050599284362645 -3.0430887961332624
Ni 4.038680015309685 9.003409730290288 12.447202393530263 -0.7705411054946213 -2.4770051564582047 0.36378024408401866
Ni 9.266797473919864 3.842605458350137 7.840645542569378 -0.7488451085784265 1.2756181235793191 0.7598067497962527
Ni 2.9442593275909026 5.6415492139306584 9.546290349148867 0.2666635070346633 -0.6331907177361997 2.0992316834188878
Ni 2.5225257670045798 4.5444044963590216 11.852680098522468 -1.5560974534511525 1.3197230843183336 1.0341804809909803
Ni 1.9794616930742785 2.2927807185985243 10.286157241081009 -1.514038062387257 -1.9152476549623274 0.6913891804538028
Ni 7.168905340100053 5.283061326050408 8.06593207680811 -0.14825855003049307 0.471360342558543 0.0526335670353158
Ni 3.65325758735376 4.239285356616328 0.6408947338191958 -0.03441370159317944 -0.9374095573168179 -0.4332537654948087
Ni 4.874067701000395 6.639618927364292 11.032180996405064 -3.313417667834655 -0.5194795666632731 -1.581174451024438
Ni 8.41005302356647 9.49222484235507 8.521088742456342 -0.25580548127423686 -2.097621658619291 1.2954349011949304
Ni 4.46811312966377 7.739635921311387 1.2526015804191324 0.3640856911395794 -0.4345485730468322 0.11684686848843102
Ni 8.394607588992631 8.596315513811144 11.100770956251022 1.5555801474951014 1.0198805194285403 0.1075495023469051
Ni 5.9905400589565705 5.481452234925649 5.017884432201151 -0.37386179668973674 -0.2868219842604092 -1.4060877250575075
Ni 6.279602247219683 2.5065707350092894 10.2460713813688 -0.8990654103209805 1.434851170343445 0.9341247159179591
Ni 0.8699504358951418 7.657915025725751 9.534777153587108 0.14669171976400544 -0.23110052232838912 0.4590398733199772
Ni 4.93027166388276 4.685257223648458 6.979313788882146 -0.7836596451544504 -0.12902387017059713 -0.07007875909495674
Ni 6.072770551963658 0.754243098461698 8.749101159629461 -0.2544317408551618 -0.8760401530704008 -0.12304425554839454
Ni 4.255583208695141 2.226171702910867 8.183545308597784 0.44075753007102153 0.5569557092318601 0.242609294298937
Ni 1.1156570020818524 1.0913260415594173 0.9758012326569301 -0.602075484388634 -0.9320922588689624 0.14019325652385534
Ni 4.07096996101444 -0.03178405444636775 7.04385013287564 0.13913859000709586 -0.40752550749076916 0.47374401229937124
Ni 3.6832589773658104 6.663773845141134 7.728117166505031 1.8809362832749672 2.853500019895415 0.6006284675294624
Ni 0.29310468562637915 2.968784861674256 2.6038890178544323 0.49407372499565877 -0.14404168373566806 0.21517228113390688
Ni 6.499822456548411 7.760890766489783 7.514737607653726 -0.9515354551952387 0.3611109247819716 -0.36907388838279015
Ni 4.125024349319043 0.7495863045703897 4.696057909360949 0.27992474291994374 1.3720198368395211 0.5462964297458011
P 8.078082732417066 7.14103499385044 8.797391537827055 1.4941742335837944 0.4291924509412415 -1.7559346468898855
P 3.3229365387683307 3.86850227276758 5.36593761797159 0.7999383277098159 -0.4339945003155752 0.11659155794451534
P 3.3771484390032005 8.744441586115855 3.0604419804374463 1.719325223196968 1.4886016245920235 -1.9739317990670973
P 5.94164650272013 6.171715840394384 2.4777052839766944 0.7552281292866349 1.6809417383227632 0.908723502236035
P -0.4959365043943859 2.2171471958473288 4.951381968701616 0.3789803488632247 0.6839054704822479 0.1179843245269839
P 4.480324936963301 8.511879853780316 9.216557653950023 0.2383996270929636 -1.0303958171375673 -0.4443745579983186
P 8.501734232389582 3.01551957792527 0.2205565436268866 0.5398864124543993 -1.081743575481924 3.6846926776338216
P 6.677755345304255 0.7525688392970356 11.234304938027636 0.5461622181607819 -1.986072033974057 0.42872939526189385
Ni -0.030787096581853645 4.098451160142217 12.227515871682913 1.0982855390010053 3.703890847828827 -0.6802182514386478
Ni 6.319897505145072 7.596615088628862 12.334430337244386 1.303288335801078 1.644313288466452 1.5343703461867058
Ni 8.502549588263905 6.2131322126469675 10.620703315560663 -4.731477991873007 0.5815717080083274 -0.12147742528190693
Ni 1.2785058071627058 7.557672580222239 7.234339502096071 1.0934793758616135 1.8452599129192802 -0.5568451517959249
Ni 2.760025961624375 5.853866030523044 5.939168932711106 -0.8945796066354852 -0.7786519075272138 -1.8122487481005818
Ni 4.347588706786452 1.1962567833402926 10.66122279635149 -0.1146560314846993 -0.9423581595713447 -3.3643149689051546
Ni 1.3879858641060014 8.136223165500951 2.8180959776100223 -1.3285820773708603 0.8294476500228424 -0.6879811832135184
Ni 7.6248375203696614 0.3287385169566281 6.2605479363611956 1.5267151436342932 -0.08169757428080768 -0.7580900242154621
Ni 6.512340022300814 7.998066671841381 9.928272531239605 -0.8685484726790461 0.1584653153601658 0.8336238928877193
Ni 5.6610251008378025 8.420087460065249 3.5529586228635037 -0.6027385718939298 -1.2337147984773138 -0.8649954652204651
Ni 2.7325447624965977 9.06318087512282 10.26622271649456 -2.3212045324143964 -0.8208413964110701 -0.18309416965243952
Ni 1.727739097692131 1.051985120623294 4.208260139057541 -0.6332143718852836 0.48840547096628795 -0.38922439518873614
Ni 8.566795924997557 0.46421174855705993 3.83205493864454 -0.10240703891401719 -1.1645297548412203 -0.8923705147993083
Ni 3.6974721127205004 0.7561712297963207 1.0929511940634673 -0.4265532135461815 0.823916435791968 0.45929955473926704
Ni 8.82807115568002 6.657816188013972 13.647514645804552 0.6980485947518494 0.2575103797804856 -0.6017199008214281
Ni 7.772176033023037 3.886208466811135 6.093152595740221 -0.17550838688538162 -0.4362370164928487 -0.5766583298671101
Ni 6.160356450599828 5.618015078467222 0.3432101571851092 -1.0202106490744496 0.5038261763967322 -0.19918104791197308
Ni 4.84729993826265 4.426974719641069 12.231449037235757 -0.5536173888872465 0.08601471359892282 0.18969290591587976
Ni 4.604481399644425 2.0903037649440015 2.942828748647771 -0.5012211346737173 0.3762089567656746 -0.9612020317507253
Ni 2.717266105260689 2.0346835227443902 6.2998601345335645 -0.2612361653715049 -0.7908420218355025 0.028191117722235322
Ni 0.8936652468080027 4.3840666167547795 10.01879093140104 0.6945377533851136 0.368525729188804 -0.42963930867067296
Ni 7.918541677871822 4.0914372465415 10.377977431019065 -1.2632701435369276 -1.382319161883 -1.5982344918305182
Ni 6.918655944536287 7.673397521930242 1.1804305405115145 -0.3661973381659435 1.161168037457839 0.31968402509575267
Ni 5.1457665153034755 1.652615172362388 12.53062812412585 4.560307313131029 1.4412840704529823 4.464972607682762
P 8.982886852317252 1.9124635302647854 9.721984715413384 0.16818048576540065 1.609026697350016 -0.034185644742773386
P 3.310205868639684 2.3753910933197853 12.551729163537043 -2.922390415109225 1.600749030722256 -0.3532610897202497
P 6.308547380758178 3.3455811950961416 3.1185777808174997 1.1656237592363476 0.16611486148562357 1.6820038610386903
P 1.6212888290545613 5.477671948599238 7.884487598548076 -0.5407721574934622 -0.013235524853667528 -0.5528851387069124
P 8.801377516203578 -0.3569025766291514 1.6134577064979878 -0.5774342888011862 0.04939371994177945 0.4330334219538865
P 0.6332785687203986 6.032642071376199 2.3840403513729815 -0.8511819563761406 -1.364454365787437 -0.4709085997331051
P 3.7899316157872867 6.366650752211411 13.249517206568715 0.5983700105125889 0.27318356754136824 -1.0959532913234027
P 6.563522134229958 5.571901144529613 11.697273268876351 1.9380289145229013 -0.5016564224389232 -0.6770619651978533
Ni 2.167651388112809 3.408900991063515 8.21084305265384 1.4671637664332216 -0.02716344778866935 -0.2879836086686782
Ni 7.215343563305859 7.527467351241607 5.131348614439437 0.4225664609842916 -0.23541200521954941 1.3423984144286623
Ni 0.25046991226614096 1.6295906343204036 7.222541858519064 0.6872129375889261 1.2725176302771246 -1.4151711754160141
Ni 3.4056303021585568 6.594311083893344 3.3851027914816894 0.5370453434611783 0.5841775210622907 -0.2081709101154092
Ni 1.5135506687518665 3.2451071144010593 0.1702759558633302 0.7458996527968573 -0.12379861721591583 0.8087512980157555
Ni 8.118943180209884 5.164195411144726 4.254639063654305 0.5485674851681649 -0.9773393036322201 -0.5580900799466195
Ni 1.9463007990492232 5.912089852275893 0.7655635735440711 -0.19652509834636478 -1.2679942884854742 -0.3572570982535202
Ni 3.866074735959934 3.393687191681246 10.476456669444355 1.7438592037825904 1.4537366943940382 -2.6282909233507965
Ni 1.0046574182818624 3.733894430242851 5.383173129305876 -0.3605771637656887 0.07227550963595941 0.33327693328883895
Ni 8.166817541603418 7.253257611461915 3.1163531564376683 0.32454341007058296 0.4503477448626179 -1.2303093723401908
Ni 6.204422729443964 3.3734330105304298 1.017311185526908 -0.9798620700540738 -1.610270082838814 1.6884241627427374
Ni 6.280602911247262 1.2264712777285869 4.415673701914788 2.0513615992104866 -0.04611582052145606 -0.5583281640993546
Ni 9.110666089394519 5.978198535949761 6.4773723737815185 -1.2248280375106455 -0.8705302789957652 0.6286869163285753
Ni 7.7725929763678625 9.347777136892478 13.242330029844702 0.3600351752192896 0.7754190024122128 0.13854646494905173
Ni 2.3182605896711426 4.599339098391588 3.543792355062725 -1.0082326507769668 -1.0761344568252627 -0.6127188230350932
Ni 9.218154083690319 1.8709359731202482 12.007477264344374 0.05345632004692728 -1.9853474971032066 -0.48824220591554623
Ni 2.876195642900191 8.28577611058573 5.013815991696428 -1.8585687142130443 -2.2066310333411736 2.6970931297261744
Ni 4.497984803968542 4.662668159766623 2.6357842571927534 0.9342363017951588 -0.9343484018929907 1.1721744158706715
Ni 7.046342527536925 2.9032598986831433 8.124935119345398 0.07497233974183216 -0.35701952832141737 -0.1479937264048806
Ni 5.631700085585134 3.1846688602168074 5.333649525348368 -1.4106840861789383 -0.0876144539858749 -0.5462311237255045
Ni 0.7927214099444174 6.443081100021605 4.442131073495829 1.5356253016397294 0.2367258389349665 0.6913267026469835
Ni 2.1248452047108097 8.158951210497726 0.3689207369085309 -0.17270588443958 0.6497781897812357 -0.4474112879421133
Ni 7.963914379196408 4.8758281284563205 1.8114464966806643 0.6393968465469118 0.058592098611595866 -0.04369769799826668
Ni 6.193795306854766 0.8622823845134329 1.3900427846071364 -0.09744249581989024 -0.2602504044194679 0.32189851624856824
P 0.9574038392017332 6.222796032839237 11.382701560236098 5.049068110554208 -0.40389176739292376 2.3242345774899715
P 2.6887379150670188 2.7347777257433252 2.1226409642278363 -1.4191029063702527 0.3370603115906711 -0.09659865976235621
P 5.102182037657802 7.1507822027116745 5.8595939055401685 -1.3712814160115996 1.2086262309398024 0.46099673993603185
P 5.251688655704267 4.73690260596074 9.0613268670495 -0.7559313260012466 -0.7195633288951737 1.2483680296141144
P 6.013694312705834 1.5090476806277602 6.7524947562159925 -2.0644852810766383 0.7557480063458468 -0.6208923599848211
P 0.15868029817337295 8.35196818292856 5.406321823810542 0.05777320225472631 -0.49509548139195375 -0.17303292876169554
P 0.9512145468830026 9.177580863535047 12.390057065229362 0.05872965263072466 0.04203470847354696 -0.29948646710195514
P 1.8259524189174976 0.4379572894038335 8.032016052058538 1.2130953224547496 -0.6940569570939531 0.591269909132698
