# total energy = -381173.1023686028 ev
CRYSTAL
PRIMVEC
9.19138379568765 0.00000000000000 0.00000000000000

0.00000000000000 9.19138379568765 0.00000000000000

0.00000000000000 0.00000000000000 13.45251926429849

PRIMCOORD
 96 1
Ni 5.665072583494933 5.574610985031153 9.127709479197584 0.8221711709660872 0.5424222915023755 -1.118202075419274
Ni 8.047304604572057 3.600356912644522 1.4575402161421658 0.5497558490493113 -0.91879862708385 -0.6500782375201579
Ni 1.332070475407623 8.354783963788561 9.1954426240258 -0.39172505012340275 -1.4341245765900656 1.0609520926578695
Ni 0.5056924680390278 6.318212309855046 11.105255905228773 -0.8114026195956737 1.132072148533147 -1.150367090187593
Ni 5.989215921375819 5.075068471831804 12.549438283426678 -1.7156189779899744 2.098406359304115 2.1830465611530143
Ni 3.673961513386033 5.058707808829819 10.373049138788902 0.08948056066033622 0.0499202818692108 0.05675530251317321
Ni 2.5522358541584156 4.045716218879434 3.6977074531981824 1.0890501364456664 0.9663095281806197 -0.6207686899227631
Ni 0.7834441349255791 2.9712434632996825 2.6885128238579767 -0.553200355954486 -0.9666532846732835 -0.14927722110299452
Ni 2.172475453454492 0.9154406772318686 2.0476077483528874 -0.30585508963246033 -0.6077249693649276 0.3391040814935773
Ni 0.5904278344521137 0.04334840384829107 6.363728041981915 -1.4286805227563588 -0.7569368844476254 1.3427866510060165
Ni 8.248586716415007 7.505086496811914 9.320859973873201 -0.2223852539425783 1.7579647899460369 -0.25167963203132143
Ni 8.543878300833406 7.081878425315643 5.64879372380796 1.9259575851806636 -0.22974889339650112 0.3165169402216807
Ni 2.1607564392255427 4.6690942447898705 5.920090281915694 -0.04889749703165128 1.115590605938356 -0.7461631908708891
Ni 9.045939253169015 9.133404460543668 4.226243267169139 -0.11029312653031328 0.5243109266136453 -1.6127128879523516
Ni 0.5718878943727301 5.3555159715602 1.7036946632523569 0.19075682840401983 0.508228419229486 0.7231782999399415
Ni 2.547575822617963 6.588475756433891 2.5991744124834337 -1.1007162599296851 1.1951356526525352 0.9370246631735732
Ni 8.80045577706958 3.8387722146717516 11.241718540879255 0.09330739060559415 0.7559225842504982 -0.9183096032625734
Ni 6.649819051307624 3.072799061900202 12.808277759193631 1.2676834421132748 -0.8585710497513601 3.1623039077435537
Ni 7.532844475613033 1.823441848489689 11.25059741754213 0.8745376003829454 -2.1354315303782125 -1.3075807925288447
Ni 3.757621487905168 6.171269658499584 12.58865240288267 -0.16355918494330543 0.3296056550848388 -1.0736893377188799
Ni 6.517913503700052 3.787833566156585 5.869750911618352 -1.0364623350466216 -1.572982145021633 0.779997880032147
Ni 6.200103029194655 1.3965664148935348 4.692669224865033 0.3880635421114155 1.8657078963609868 -1.876985783267651
Ni 4.184175223071508 9.031913201629111 5.653488682606506 1.188145594487947 0.6503677437361186 0.15889186137462313
Ni 2.3458433329732715 7.902567885306749 7.025726423960742 1.6006158475785013 1.0171816324401386 -0.07391253101875013
P 4.756917916129173 0.2919973924970993 0.8235709587838727 -0.17041863106730004 0.38900353742718163 0.01145966390016736
Ni 6.894282283815362 9.193497727232979 2.515540173838684 1.1875359859284065 -2.124291197490677 -0.018495230590710083
P 1.2289339588091592 6.5962608584353974 13.218835729291234 0.0699435190686731 0.22427964275181372 0.7800644716040244
Ni 8.23656438652366 1.9756787368615234 6.433519137622571 -0.37939866734756594 0.17969080039784538 -0.03183488512240969
P 1.1251264711999402 7.002446487302638 4.288932180617865 -0.5791445866240735 -0.5877238436526523 -0.5030062515985982
P 8.913546562224868 3.3501582567023798 9.083369325047094 0.6082646439184815 -2.3408706433847555 -0.612184804908494
P 7.905389640105407 2.3243263037105497 3.6324091059144767 1.598839729514685 -0.8542513393300836 -0.38259737679052175
Ni 0.39080660564537517 7.994095684280771 1.4932165720085715 -0.06411662797425087 -1.5515571423786376 0.9408733474957022
Ni 3.269310845598192 6.7914490828792955 5.048367502157217 -0.47129735053109156 -0.8798037338778912 -0.2609713417458925
Ni 0.6265389427679539 2.9163709025570728 4.935635180966579 -0.252894478275029 -0.28010369169996924 2.028900441993493
Ni 6.505964704878379 8.76647523149748 11.109830456900731 -0.027778198554532806 -0.9057016846905757 -0.7232929711409349
Ni 5.756444128945903 1.3116747949573964 9.789559879898697 -1.0174911932607573 -0.4412390976931304 -2.2493365426295004
Ni 4.4563780516129485 2.268654092585258 3.4129712538311776 -1.9616869202614733 0.8482730102594616 0.49192736807661724
Ni 1.3468042634931177 3.3224830003546413 0.5640439675154867 0.05096466397332512 -0.4911994887716573 -1.1004699482468339
Ni 4.642641442475426 7.149490243878898 6.934221603445993 1.1385870668335294 0.10184345310106331 0.22370782940874373
Ni 1.7638173423695362 3.8855839319015866 9.70474179103223 -0.17856902808857633 -0.7076598925893683 0.04236818055356574
Ni 2.9092659629500313 1.010776466476521 12.775897433525266 -0.4422325719546513 -0.013144764912074135 0.1558980688536218
Ni 1.4501705646843057 3.2168004704687903 7.402006966792446 -1.574947753388436 0.0811329600265893 0.07364539340029251
Ni 6.847764690864215 0.6622079455273923 13.476195392281042 -0.21057771978468898 -0.8043045750983115 -0.697277778024096
Ni 0.6808738075635886 0.18442787153579465 13.16147414184023 0.37536897736288255 1.091810729909939 -0.8633216770624681
Ni 8.471450197206643 4.5904895313106735 6.338652108947075 1.9111189775059345 0.6317542423999895 1.456409613240511
Ni 6.307853620415026 2.0203856272220015 1.9458131737759348 -0.9647722656004869 1.113635024873882 -1.1807261620954246
Ni 6.390199227063777 3.77364206970992 3.5370981334058382 -1.4658021101990046 0.9591657180469869 -0.7555950257077503
Ni 5.012024770971911 7.041868332030453 1.0188336334358128 -0.03429748773028932 1.2545204223687556 -0.7821702050931175
Ni 8.6563624546639 5.310478191386197 13.054849495124211 -0.6959091798113434 0.14065939752699647 0.5839852025458265
Ni 6.139614533005857 8.262474897199276 8.544219301169008 -0.1615555242497153 1.6898130726704639 0.3781018029130133
Ni 6.989817526086499 6.638293056136563 7.257068956223912 0.49597531289374586 -1.4228261208581108 -0.13327750324062854
Ni 7.101722622743329 5.646285395193779 1.504691095430862 -1.00784724241309 0.5061393979109412 0.46637857307323555
Ni 8.794720353635176 0.9770900451831096 1.5032379376664722 -0.3024278091184663 1.9669080594510964 1.0136983018772283
Ni 4.585976561909565 8.46174409600996 12.260007125261124 -0.8517599403667976 -0.22556673699435348 0.5583502755865416
Ni 4.642540337254627 -0.06966885023732594 3.1063209574252224 -1.1251651370006688 -0.7043845642722063 -0.16038567231133025
Ni 6.848049623759193 8.501101601051813 4.8381173572294145 -1.8288894419810566 -0.8837480632376199 0.7144257505582922
P 5.309356842573702 4.013243060235609 0.9358207323297899 -0.21782797358919903 0.004763997047546634 0.9424211515987964
Ni 4.584947126934159 5.558516872156729 2.7783080470028563 -0.07991631401066882 -2.0095816870602228 -1.1866540975440854
P 7.682516967930061 8.908059306150607 6.896595755094912 -0.3071043886585292 -0.25667142881895794 0.6555611150116
Ni 4.695234540058209 4.961076931073035 4.873027151694491 -2.495238134526464 -2.05978916115255 1.6458721483131398
P 3.9586278582368495 0.3230707034020477 8.214888346322775 0.2825999757592617 0.432972486808964 -1.363298397806123
P 2.2830386080898117 1.8812464606354637 4.0893366876855115 1.206804090129399 -0.37928065371246295 -1.4515052339603585
P 1.8745459419116173 6.127821987707236 9.443803003226146 -0.1123507803902904 0.586043370626436 0.7715176104752778
Ni 0.7983415296410936 1.584649699730391 10.919288476921723 0.389470192650955 -0.48735903197964453 -0.12775657342239932
Ni 5.910868566640474 1.1008244526733972 6.7969528834442325 -0.6804951592491183 -0.14907924615957552 2.78026985965567
Ni 8.487378865174305 4.577474531978758 4.02136180946575 0.7114239876174908 0.973264362231898 -1.044007494383731
Ni 7.9930386751542395 6.979192286518918 3.383994497550247 1.4221776886408346 0.22095392081269047 -2.1876964012202005
Ni 3.149694178009528 0.5316709949540885 10.388963100542629 0.005620431510570965 3.0701697115104545 -0.09544860531831305
Ni 1.566340463382103 1.2500373758049772 8.538542702590343 2.2339076096689396 0.7521001251806144 -0.3505159228749447
Ni 2.1013984832329506 8.129558297383719 11.651966761345864 -0.6713476884218954 -0.5455631511242024 -0.11911226748384003
Ni 8.560716915788257 0.9856656061835879 8.698519655183508 -1.3762372173549784 -0.765291684170224 0.6442436331162518
Ni 6.925964983460216 2.7730956133014932 8.452581205590478 -0.028210400995944965 1.4105174786940868 -0.8018856812441738
Ni 6.169275128234736 3.721012206592301 10.661538180124284 -0.6653022535587638 0.23726191394409463 -1.4317465632761923
Ni 3.978122783083596 7.861225041383758 9.608273623314632 -0.18685029426076205 -2.549329517054229 -0.3856875856800712
Ni 3.8370350431507543 3.177939300147223 8.066748976808404 0.3343881640751467 0.3109595007385612 2.7644202942179232
Ni 5.057512928947652 1.649127256448885 11.915676751340206 0.7470941873255907 -2.36892369286723 0.6111015991466443
Ni 3.5948145082680067 2.455036971435953 1.0031191247085698 1.2332118906989664 0.654027451975893 0.9132373309459885
Ni 0.795905812958214 6.395447507161604 7.570082447571593 -0.9242190267684729 -0.9036106064895018 -0.0913546377545975
Ni 7.275403009308214 6.092922303764239 11.17312416339751 0.8322722639558312 0.9726866353515571 -2.1727876024291675
Ni 3.969280671955558 2.8205691101583747 5.979254299712027 1.4124648322284448 0.5450790123989322 -2.8055957400149683
Ni 3.169501609902379 5.638187786146167 7.840558215114116 -0.17732461415851394 -0.7794183533795931 0.031081037675520663
Ni 8.409720864217135 5.358944357683648 9.113328640246515 -0.5706152089968236 -1.323853047326307 -0.4788322254555559
Ni 4.021772664317542 3.5310538794788133 12.364788899543496 -1.3275433516937007 1.9788647175923404 0.4525396103076142
Ni 2.704371637309451 8.000888116841708 0.5333346354054139 0.4009653377747482 0.2641677371960031 0.7162154954688633
Ni 2.362957689439392 1.2833469503663204 6.102506159557593 -0.03207631170925443 0.44420537941030597 1.2297355021145917
Ni 6.566710559811027 6.0065141055161195 4.816284144367104 0.5912138590837818 0.2990246969741882 0.5189877146285191
Ni 2.282542273369527 8.752844409457063 4.449985444243352 -0.5374052979037583 1.3940405640849862 -1.41532621293664
Ni 8.695729151089463 8.592013577317333 11.353684300668563 0.985745268307728 0.04822206823118147 -0.09323385705518136
P 5.136632359914552 6.630278169542333 11.001483344877647 1.1885232895423403 0.42816375256641104 0.4595900893964923
Ni 1.7709406647439958 4.762873932772592 12.114006590735835 1.0526793111261161 -1.0421922955518632 0.5146741748548297
P 5.148287034457538 5.000002441080565 7.011224258744714 0.18202819028177036 -0.33609923322898244 0.5321353077540706
Ni 3.044259815483819 5.078441709652999 0.9416995413500535 0.04061571663883328 -1.3136542524164343 0.46035859213140073
P 4.091829390947387 2.7387382209973268 10.291661274322626 -0.5163055398106656 0.6136158809280657 -0.3175348399632338
P 8.998576052916642 2.375237378074589 12.81447918578208 -0.21107599957734613 -1.0182951772192914 1.0901356562003612
P 5.764808288121075 7.208333482383788 3.011252637446501 1.8683193658419048 1.023049146964509 0.9448549578512695
Ni 7.124351809434839 7.331433684398156 13.15612016082975 0.13757175974060823 0.6354106082056541 0.26494446746102757
