# total energy = -340863.85377502 ev
CRYSTAL
PRIMVEC
9.36335405799290 0.00000000000000 0.00000000000000

0.00000000000000 9.36335405799290 0.00000000000000

0.00000000000000 0.00000000000000 13.70421512620537

PRIMCOORD
 96 1
Ni 2.4121404743594193 2.728060042726505 10.033034326736677 -0.22290898765653222 -0.2720921342494024 0.21982314964235689
Ni 3.784143391764894 3.426257270184374 2.2391178623859496 0.0527513235601027 -0.008088433435089297 0.3999150421333629
Ni 9.332286521613629 6.4071278744375935 0.9453495140834492 -0.020189844684313618 0.21520313437184227 -0.33685565177903276
Ni 5.201446216454303 3.8653892155562755 8.777221270738055 2.3364853698328663 -0.7807949220121456 1.4147279172310088
Ni 4.796733960866558 5.925729748520077 8.154721143413763 0.11723253396262391 1.325983720516065 0.3499261118097458
Ni 6.452090700972826 6.87190604677326 3.1858185084704473 -1.2516595558811927 -0.6851064327688846 -1.185435651755952
Ni -0.08380857381693169 5.92593574231095 6.276173876237581 -0.048258835006387855 0.385139169375769 0.7807553270234618
Ni 0.050473160441101846 1.6500009015435535 7.703947739851262 -0.8622742096345601 0.04728335846699599 0.2099837949544319
Ni 1.0209707710485676 3.209767159330332 12.33045030461069 0.32347588803801713 -1.2859619287074884 0.36819379977068206
Ni 6.932580581539671 6.56621126111681 0.6726717877623881 -0.15012799913906402 -0.8317505871244063 0.06362837548392268
Ni 4.576638958672227 7.861696848566867 9.550823461680624 -1.56646259873556 0.16377541471916957 0.11461669360633164
Ni 7.895414286791225 8.335669834658802 1.882178375908035 -0.6691961892965314 0.9372614617747278 -0.4594558778114732
Ni 7.7859004968795045 3.9460357846832967 7.832206028397068 1.455337720332571 -0.7799343737840632 0.1891357478608291
Ni 5.774399219061012 4.599654083125289 4.31947256480395 1.0415865436470644 0.5136017677262573 0.24282115319942696
Ni 5.584987928352721 2.7502511920160724 0.4990489847891457 -1.386421614087148 0.44584188657246443 0.39637617574216893
Ni 2.8002608664277084 6.335751025899884 6.876857388437531 -0.5572367308073887 -0.5427701617600975 0.3509010741285053
Ni 7.689251955543256 1.4499153871263555 1.7174947671232945 -0.028416603469480092 0.8892885334398748 0.9459183661187776
Ni 8.193290671748608 4.965470965654443 2.487287945605529 0.1457103296873426 0.14563602480598145 1.3102845646132533
Ni 1.040549544535692 8.23872166599037 13.52138748884449 -0.6670269495593544 0.19432629092283304 -0.6056459753487119
Ni 5.389144013356693 0.74568254159589 1.7467121773524783 -0.4815429395184997 -0.6002615711083468 -3.33211575846479
Ni 3.036723011642361 0.31192141615331154 10.606665236182444 0.019927077941230196 -0.04254635800264286 -2.383236509945476
Ni 1.7448423155325936 0.4484522280735197 4.003124154817681 -1.0823907221476197 0.9939640566730945 -1.3422073814637787
Ni 6.383644582278 4.976444816695529 12.556610887610834 -2.1147421203496615 0.2506337072653103 -0.7425837010497469
Ni 0.7546067544177829 7.984169520595363 7.296014490442583 2.1097302689573665 0.8810062388264246 0.930403815422946
P 6.834209183043388 5.894343785474241 8.996282558636365 0.493596528248924 -0.017814402473601578 -0.718778113989717
P 2.465146422092854 2.6145574639551414 4.285143699554861 0.5133361727696966 0.03749928249703864 -1.8451663247642092
P 5.404097289903291 3.3519777818661733 11.118394075135273 0.057944180614951823 0.9090549174335246 0.45250412908398846
P 7.20180510285736 3.0906559314347266 5.349097884075448 -1.3160916582133335 -0.42479380765291364 -1.121710345682849
P 4.107300832874949 8.274517768831728 6.997262631873988 -0.5672732891077843 -0.5320476331362708 -0.04568953161731486
P 0.23008101937463593 0.3684639027418806 1.8210431641183973 1.141945441782801 -0.08234652071871626 0.06055153633081184
P 2.35316070669065 3.182913059683716 0.585119744964035 -0.2881895540318972 0.4672283226680405 -0.3288687769188143
P 5.881235089691375 9.426556771000701 3.564260937709329 0.12260793934192431 -0.5428195269407942 1.621156647844331
Ni 6.351968355254116 2.245023329836131 7.08073506127763 0.1817127159238806 0.0846150050379188 0.9606554152186361
Ni 7.292170833571964 2.822957636840329 12.634669425656153 -0.07714877856786068 -1.586698466166461 -1.3782825299197812
Ni 7.3356261600921675 4.099051717885873 10.118247403673202 -1.151796623545268 1.2398605063637356 2.9965957947780457
Ni 1.6853662900949014 5.059900392061737 1.8972524397229187 0.7373890442226849 -0.08212823406032307 -0.026655140693683126
Ni 6.884349944412852 5.494809464720728 6.546709267133557 -0.4663405207464485 0.7075405934026847 -0.259420709429321
Ni 1.3746433832703093 5.662198146513805 12.63961702197877 1.084121074575165 -0.5146494922644813 1.9090155580096864
Ni 3.927824060899243 1.1925355087839 3.3572446685646464 -0.8027107482486304 0.3831846167525594 0.8144200662657587
Ni 6.148821024036206 2.3203702405252224 3.3542165598388043 0.503749557522526 0.48166558113929303 0.18241102754248584
Ni 8.109404382092393 7.8268277177844405 6.557741170970252 -2.026847930339838 0.7949645286443083 0.8792643164346535
Ni 0.3412530593028887 6.672504057207597 10.982023376570698 -1.6921332361632084 1.830293778527751 0.14925819493960102
Ni 5.739548814986848 0.2230425860746496 6.184808139301827 1.141199307645396 -1.1434060854887276 -1.1337585350966344
Ni 0.7253781081636426 5.217860176245279 4.303123212156476 0.6361791109405625 -0.2374328923043201 -1.3997201309682668
Ni 3.4426150498505654 2.086576651237796 12.554595893801924 -2.4021014651707793 1.4821980350585247 1.470712145906112
Ni 2.330978920755214 0.697266510057285 8.267684392987203 -1.3921736860795766 -0.05686277462531497 -0.023426863564372558
Ni 5.453189355610127 7.047281669639754 5.582069370870206 -0.2525656341807005 1.7285513697809263 -0.7738058922888222
Ni 8.726337059050618 1.4791103253056257 4.45643221834334 -0.774489291509092 0.14039380257043563 -0.14944562836005876
Ni 1.9827838706998842 8.226268404996649 2.025812228271731 0.9935529372776051 -0.30373547218629626 -0.44032944139466745
Ni -0.015853094878551067 3.4376243820989454 0.9629882005947092 0.26668613274248265 -0.27199468943958965 -1.0182530111274464
Ni 0.4883691430677617 0.9145993227830833 10.060044794397275 0.6521546604332124 -1.0265767005017934 0.6407518179129094
Ni 2.183777630467752 2.225023205413129 6.261401312425703 -1.1286749499261401 1.8829548563668923 2.6357468654082092
Ni 3.480817534703491 9.043211689539028 12.900572765263709 0.7515457953390411 0.0622716043457121 1.2437251315254645
Ni 4.494288259093433 5.493311328059829 10.689274364335244 1.8614077263237363 0.6422836811764036 -0.17345099013572063
Ni 4.544635014253771 0.6870613903903234 8.225160720202997 2.055761528050395 0.3423498421243846 0.6965594118008327
Ni 3.9047714830296587 8.069254319580297 3.7225175402188118 0.8053340448040904 0.8429060895205934 -0.1664048819222166
P 1.1714773253441377 4.561479688334755 7.185928599593483 1.0810097826396932 -0.6295675191613157 0.6823612659235797
P 9.045739795154295 2.7838843600532557 9.762868788328863 0.43923363722732744 1.2114495593212105 -0.7696065094954939
P 1.614691693116989 7.921126057233906 9.338682628820255 -0.3421958330450236 0.25503800698059303 0.21971953418495707
P 0.1164763800432484 8.991863055486712 5.245164653225577 0.12861377921637204 -0.5160294033311436 0.1872776116061678
P 7.836780963225289 5.9036977762507306 4.524103987651563 0.17011009868794574 0.495343849957334 0.037452231309187116
P 2.917752234058716 6.821634198445967 -0.02462468502811497 0.538742271547627 0.14856785374079573 0.8591765445458429
P 3.6667269309669317 2.7448672633909665 8.27974439310744 -2.479458245984388 -2.368280402856276 -1.458230468499334
P 8.274489678769337 7.3580420298808695 12.819868143341079 0.4944748170888194 -0.3003390449102376 -0.5033073277787847
Ni 7.073957865557888 2.042728063844107 9.319578577387553 -0.7597810387646399 -2.0882178488068877 0.9039350797084561
Ni 4.865601430497261 2.542618814169596 5.364898544170868 -0.9214890294318194 0.5943030395320669 -0.14654285289096697
Ni 7.121589248020347 7.101692120492782 10.80268986391319 -0.5487268935641646 -1.486905467836523 0.34652968453368704
Ni 4.249642542368619 5.802395647911563 2.898660354986384 -0.44412541810198997 0.1655348206124375 -0.05061396550212574
Ni 8.767151919705986 1.2109532263588276 13.475903123484184 1.7469661248426882 -1.318384310902252 -1.3154522248571217
Ni 2.614772821100146 1.0762051970650892 1.2271059485695586 -0.16765700916176288 0.330409896153689 -0.1287888713416556
Ni 7.400120943343871 8.416157226765602 4.543371897781551 1.0609482360031275 0.7953409381471206 -0.5118955836684281
Ni 8.682825552405632 8.074301167456701 9.181371725077963 -0.3706854558442842 0.5856453638570688 -0.04956649807421786
Ni 4.69618090085784 7.915217780777485 0.9057378444338654 0.07096116169991006 -0.6610889868083647 0.9117936565209266
Ni 2.470399263760131 7.503005478531112 11.42366938252667 0.9160987116541836 -0.8425543626081294 -0.6625077215327623
Ni 4.9765571769450965 1.2485283664850015 11.354107152019475 3.1095507844112382 -0.5189630320381707 -0.8044099903279243
Ni 7.102637819259974 -0.05664173814235365 11.214611902181515 0.13758358681515012 1.0072502322590393 0.8141364735870689
Ni 8.604716452248008 4.7147577954529885 12.795461624464208 0.42932152031993803 1.7332019811790602 -0.3698035674599631
Ni 4.777398634586829 5.477505986287345 0.7076485971173155 0.32136398390133686 -0.1308097584264263 0.5283179908905095
Ni 3.4983550969901405 0.5929652993900807 5.652043588959148 0.25776080522839473 -1.6177697336499686 0.3496260640708237
Ni -0.1911687922786094 3.5237297866841177 5.786824389992344 1.2746089655885144 -0.6837126377451516 0.26499203286951134
Ni 6.264299270529131 7.82242694134305 8.046936765009967 0.6802509044487962 0.3218766618716973 -0.4565243059869751
Ni 3.2728574394624426 4.615496878314296 4.751183115691922 -1.0008098759503343 -0.2853842233726182 -0.25690899875106077
Ni 2.0923163873198654 7.943682377334566 5.378548441822484 -0.21006169938021885 -0.5033494938706299 -0.7540122546016627
Ni 0.6518177254426735 3.0654965988857534 3.105676624131066 0.43341908742807933 -0.5489508366495127 0.9880479482989759
Ni 9.19769766934011 5.217317101705703 9.415878801950145 0.7958327901818746 -0.6534396977932231 -2.160682591635518
Ni 0.15681558230878126 7.445008863046058 3.279213284246307 -0.3549778153010402 -0.18999475342701472 1.31883605372769
Ni 2.7116460829355304 5.771112681761165 9.383166987959413 -1.8347263603778081 0.3467844808569705 -0.7761977895597665
Ni 3.677457334800621 4.742585683929188 12.621609419314765 -0.8815901363543527 -1.4197135433710582 0.3217817881650458
P 1.4559079337699516 4.597940589319386 10.735060229698558 0.4684711939362061 0.28197494058075306 0.09510947681133942
P 4.6768081211615895 5.222064322249927 6.2375968572194305 -0.5698353934080057 -1.8031043625971526 -1.0794372959462506
P 2.286072274344765 6.597681494349821 3.5157475272877656 -0.06711376292936183 -0.5539400623339878 0.14416741068025493
P 6.505190282247566 0.6378391740610723 13.503160783693827 0.48313085283090984 0.6358435819780146 -0.8056168661518319
P 4.783119643960638 7.896603432765814 11.593573997574644 1.1652386079827868 0.16850675875656784 0.6632916508866382
P 7.266028348839276 0.383807631155726 7.9941761371547555 0.4885646222519715 -0.43044894905616193 -0.3156250245350306
P 7.180306841773459 4.119426376474101 0.8460708065719088 -0.13829295417734894 0.4011260317223285 -0.7401720062844607
P 1.6240175938310857 0.4381572202069041 12.095065881456469 -1.7557978642017051 1.2766015705385112 0.8693138900901609
