# total energy = -381174.8072930969 ev
CRYSTAL
PRIMVEC
9.27476500304108 0.00000000000000 0.00000000000000
0.00000000000000 9.27476500304108 0.00000000000000
0.00000000000000 0.00000000000000 13.57455608955962
PRIMCOORD
 96 1
Ni 3.0139740418087557 5.6718991260651705 12.044133910130961 -0.6336792273368441 -0.45614146872625955 -1.3343338922529728
Ni 4.864029986503342 6.965200196371014 11.086082209156693 0.35773558055183546 -1.0341987358234253 2.0663431602209834
Ni 2.5802118274554813 3.369021324729935 11.055891921268794 0.36276902921068493 -0.3334150015286 -0.3085521768486492
Ni 2.3401438075204797 7.644576740191091 7.2010713850967525 0.8371591597344873 -0.8429662533345677 0.42104153969933295
Ni 8.37263652603863 8.487383919897223 1.7644888168041386 -0.31354783029102773 0.28516156583885083 1.8519699779496042
Ni 2.9879119518683543 3.240352508451219 8.499585800867186 -0.8537373758081426 0.059451618398413744 -0.08027344023977143
Ni 1.3944794828182423 8.897105943102627 9.03341902077952 0.5474223158201281 -0.27337948560225817 -0.48716131414654157
Ni 4.535016969227254 4.387882095627777 10.172012371779005 -1.1251054874073267 -1.150311297248993 0.6281392713552215
Ni 0.4149121817572347 5.403023685719178 7.379549399886475 -0.5072259461069007 -0.1951912100262896 -0.8727036324980002
Ni 4.376919323275622 3.0555157147066416 6.021754395481497 -0.1499613916542127 0.4629116975705576 -0.9774040954318846
Ni 5.232015566743688 -0.02879536321635759 5.415569660474473 -1.3514253005176209 0.6834982077415003 0.6687153930053709
Ni 9.230005086957016 6.634721766208598 9.222607534310587 -0.3156589630967596 0.8999128459229404 1.194207484411311
Ni 3.590131724793698 8.12137386462389 4.094845892187568 -1.7091068879030693 0.5706229223063076 0.4073930956779629
Ni 3.393274835475184 1.2959443783602966 10.009959038510795 -0.30958061811316356 -0.284254223533233 0.9695856278287303
Ni 2.1712039611630365 1.619689329057684 3.64569127766878 -0.4201496240126829 0.6832673226776168 -0.1176462244612748
Ni 4.178077634224993 5.518188444007422 8.32329384821232 -0.7478621758398668 1.1440468043965202 -0.698489796054326
Ni 6.93001173756892 1.5373850635305935 4.599548002386803 -0.7405561290967568 0.5260183962230554 -0.5522937849798165
Ni 6.063034520003469 7.5353663810991955 0.421887732591461 -1.2723283970844539 0.8483264892052164 0.43099248026445774
Ni 5.727881608228967 8.823640528719025 2.8734075568554682 0.0670908801112264 1.1809112815230371 -1.2781833132033342
Ni 4.209741682287815 5.695021115467812 0.45153173681477476 0.010458219218846505 2.476840348745567 1.1307120349608268
Ni 6.385110012982254 7.806894404264746 9.698016226407415 0.9830738921231521 1.4583880771231206 -0.3637259938073155
Ni 0.06407100481042287 8.680994641429567 11.42165897769642 -0.16545974440012795 -1.441641710902717 0.12365746365236124
Ni 7.18035619723843 1.5401674930615974 2.0187676318304866 0.1305073966946591 -0.013530430386267021 0.7148060167158464
Ni 2.995016421937517 8.158315254030516 12.132082797699946 -0.4509139017787331 0.5910824757122402 0.15401884955303796
P 4.899793480741843 2.39772154928205 11.300627930480308 -0.737989139700529 -0.5567415363385251 -0.4676998629878203
Ni 3.362890704996623 0.3929699424757393 7.781668898136665 0.3197719568238686 1.4120822520780454 -0.6454415100790949
P 6.834861922373696 9.047635380729929 7.491322376576427 -0.11962854499862624 -0.6203560278653767 -0.19656957843105502
Ni 5.364950774969943 3.2827938335641296 8.120163507777903 0.2598218015224816 0.29213336917099364 1.9136548565539109
P 5.49156986816082 7.322009684661829 4.248972083721947 1.6166875563293834 -2.253256960729829 1.07061841210304
P 6.821552634450395 8.115289618716096 12.008839719006687 0.014669943307348927 0.32362809734516523 -0.948764577318321
P 8.609782994966078 0.5676545783381948 3.5564791670927183 0.037061937849303915 -1.1960234545741275 0.00412302102943806
Ni 6.883990353126118 3.5750231324403474 10.992648225505588 -1.5441850182842827 0.8562966518948867 -2.143989447250553
Ni 6.060140793291224 2.946704170514189 13.028302422159737 0.5699855458326248 -1.188291376037192 1.5426863222515688
Ni 4.59460733501625 1.9173443655193594 3.5898868709949694 0.532631787774515 -0.19594017237717223 0.30655674368517527
Ni 7.628280977904513 0.5193413994383563 13.392562329258068 0.3507915451338346 0.33645224569302695 -0.19538635675623123
Ni 6.696454602736467 5.329947811469916 0.8223767271364828 0.08037242771148094 -0.23929077144866528 -1.4137478127059266
Ni 3.697885945764369 8.072996689844839 0.7637305324350069 -0.19752551458642112 0.9018239469027244 0.8513814739814564
Ni 5.320311330527539 5.01225000761991 12.170064815751168 1.0743686231740914 -0.3240227616804226 0.9104749377095029
Ni 0.8224982265593366 3.593090374861665 2.495057426612133 0.9343612574087972 -0.6081983094569202 0.13004125569151798
Ni 7.712199052559585 4.088845119165703 3.0834605819630223 1.2710096782730305 0.38666434777104375 0.6445385386488512
Ni 1.7112498101579132 6.580139773575408 0.2555234885032171 -0.1721839504978389 -0.751457606500609 0.550033013970098
Ni 4.820911603537888 5.559322027240761 2.6545583445239007 -0.372270798053533 0.8435936025059213 1.3535243491384945
Ni 2.010527930512674 5.336087705968331 9.61758639090771 0.623865326570216 0.1889485715506875 -0.48685432442908416
Ni -0.13103480885657925 3.872594696016093 9.971692285170901 0.25703292592343474 0.4146559478879633 -0.6647371250839132
Ni 7.850643471257227 3.3687245322466275 6.038112298694268 -0.9963893782851354 1.7223992341366015 1.022119178951072
Ni 5.547134985894964 0.8949489816406324 9.14069930125341 0.1788248528531243 -0.44940852087780014 -0.028970676200737202
Ni 0.9781352773290508 8.842542499999643 0.189045682148476 0.7738503723735125 0.4027807937169322 -0.8480169283845976
Ni 3.9926472555138006 8.098455920053523 9.509302580849639 -2.0872595986586764 0.9245548128413367 -0.807374472272887
Ni 2.5871586265178874 2.2659085876333 1.2910231879964615 -0.7091483042094368 -1.0269597948728248 1.0677387765623998
Ni 7.353339841180931 8.359614755833533 4.998857246810679 0.42983959760693713 0.10591685183948855 0.404410101790239
Ni 5.034036430847669 9.370480679212292 12.08632296163306 0.6252925459350457 0.1917402753632117 -0.9494644315988229
Ni 0.31652547354094285 1.2786376666774537 1.5956890193997562 0.14497730817605997 1.0841287878846488 0.4848007843341651
Ni 8.333265148174927 9.047023246233108 9.084024921612905 0.1439277838656231 0.42734639887143827 -0.6392806326840217
Ni 2.85057123021801 3.979235945174363 4.239211320927186 0.2080608669001062 -1.0029911998723695 -0.17895752177624663
Ni 3.812410745260482 3.5983306171450553 13.589352440267838 0.43184891472748205 0.08752549381649442 -1.435564651470702
Ni 0.5063622931527342 5.710639819901846 11.502304915223032 -0.29888174363842074 1.0123944954641402 0.4981823478473936
P 2.6537236156645996 4.530676379158888 1.652173266355642 0.2667275275033793 0.5301779269173836 0.6508997049801887
Ni 4.550821168963355 5.600362862823065 5.2776520484347005 0.10424074968864629 0.028617149516060397 -1.024832464117177
P 3.1042824296200333 0.8182067927460185 5.663440540290919 1.2053357331139887 0.39083956219465593 -0.5691648497035423
Ni 7.376118664274748 5.809898356037852 4.85332505262106 -0.35211746303410973 -0.24745530953732864 0.9674295007176757
P 3.4062316823245578 0.39451048095940505 2.408737187795294 0.997571828629011 -0.731550840274353 -1.3504513666401257
P 5.943798139834856 3.748414866047397 4.114597431951653 -1.5469697801182714 -0.05345220628186923 2.0092245608311203
P 8.988907568095543 5.322963913347096 13.784419299921407 -0.1483696216870606 0.22676564239846106 -1.7005978219907936
Ni 8.307861566556864 7.407356073142816 13.401671076066066 1.4688784351314832 -1.7875340189627213 -0.8197111394613689
Ni 8.11871200703923 3.484983712817067 0.8967269541109437 0.7271413983527477 -1.1760788931314006 -0.9535869384076286
Ni 8.577312042339264 1.1358341083812389 6.497501616504597 -0.4059967295510686 0.0836618970960301 1.418955582159111
Ni 7.385616023740575 6.876505617687719 7.519692955551051 0.40771139824933006 1.0819724036632785 0.08962968464369081
Ni 1.0501260040612206 9.696952410850061 5.189268174382367 -0.4067462061225834 -1.5773306517983157 0.05695250612564385
Ni 1.7816545520574107 8.087734291594055 2.511577638214212 -0.5801259767007363 0.972178585366887 -1.13894033640789
Ni 0.5410953609882538 4.982107021034037 4.571502967667306 -0.48099683720704256 -0.27670237932790415 0.6568458952612946
Ni 9.21501706655001 7.423095349523194 3.934884018450163 0.8462773199856715 0.0788261662702836 0.6514910587072844
Ni 6.065891147655298 5.182441947266305 6.95058038413861 -0.6616042358818864 -0.6653757871091767 -0.959315870471606
Ni 8.480873034794675 2.633300582907032 12.00864958632207 1.5975436364110809 -0.7693838519617265 1.2572337075348605
Ni 6.343744560621332 5.547691471801165 9.458465738365181 0.10825038506867164 -0.8513079404310435 -1.5366547713455083
Ni 7.598063793197812 2.1927585152632116 9.030663488067315 0.6671817299696639 0.8258468200454616 -1.1578646841162188
Ni 5.402893839007731 0.7345706709500877 0.7489382095716807 -1.3090674043767003 0.6378480140025531 0.5291032057959661
Ni 0.024035553765320544 8.096257800724029 6.84662603443078 0.06457634121948878 -0.4792073494067876 -0.19611706427466868
Ni 1.1855282998049654 3.903655884347198 12.763381741653811 0.0018673922260419454 -0.1095423644072178 1.8246854312020382
Ni 0.8538997987697343 1.3339430909887044 10.517158842952362 -0.22280048710312594 2.0801648965954236 -0.06279405250808541
Ni 9.096504118059457 2.4884844005833915 4.399405063792174 1.7099386397757452 -0.23419895874805471 -0.6240015950377641
Ni 6.082641373431942 1.6556939671888722 6.836947817045439 1.0065678614800342 -0.6069490104308515 -0.13740643780733755
Ni 0.1827444067372629 5.734448141922135 2.2063404812805514 -0.17863561966045363 1.5968226990846563 0.25731291905769876
Ni 7.317761842244496 0.8876423216922166 10.99171147423015 -0.7195422458492511 -0.587045329528389 -0.0762990289730557
Ni 7.389075511124123 6.0793395570551505 11.3058681727637 0.7265305042416262 0.47876357700114963 1.2981582136633643
Ni 7.050036472771318 6.578414667266186 2.6702920560452164 0.25870697119174796 1.2030428233147539 0.24137285078867457
Ni 1.9699879322459501 2.6916945039976974 6.34387904471533 -0.8132183326481738 -0.7754277441629613 -0.5211140169429025
Ni 2.50480798716528 6.075824421080982 3.385956118332134 -0.5589231173708761 0.04681053259563551 -0.11413666864611956
Ni 3.21876085529063 1.5209687292976715 12.730856995389399 -0.5623575969737218 -0.9251963030800776 -0.8247327610456764
P 1.8207476869680133 7.373048717025541 10.628837217038258 -0.7483386012556532 -0.8720570000529368 -0.9315451281162409
Ni 4.842716576295853 7.695105660474119 7.33689846508223 0.9484352190033601 -0.3728071301729773 -0.34581337519295285
P 0.9269311541464995 1.7185026764687297 12.969904791163032 0.48994838997337553 -1.0510955115787641 0.25024521357764
Ni 2.604780680214244 4.9892114911032 6.61621119001534 0.18701304509087147 0.22037310860855594 -0.39741387297806396
P 1.5456674287678813 6.701064160992829 5.514975665375623 -0.7356054699597009 -0.3567230801269211 -0.7764978372986885
P 1.016848146870416 1.8750792609434128 8.208045617038147 -0.16128247309398674 -0.4820646163499247 0.7451033821478071
P 7.742518259682423 4.603770802938356 8.097901289100342 1.5655280027364329 -1.3146824365706324 0.44127792135086585
Ni 5.699315331710661 3.555592499548838 2.006821734377377 -0.6367848628453614 -1.5270817829450927 -1.5218071648097147
