# total energy = -340872.1432398404 ev
CRYSTAL
PRIMVEC
9.26976570922222 0.00000000000000 0.00000000000000

0.00000000000000 9.26976570922222 0.00000000000000

0.00000000000000 0.00000000000000 13.56723911772403

PRIMCOORD
 96 1
Ni 6.2313031825838765 2.0680197806547653 12.888659616280707 0.46939859084648194 0.6015509793437317 1.3688116143148685
Ni 4.561466176278937 2.2278490763209198 8.525204899503263 -0.7985303916186958 1.320057841949933 0.3322605762091826
Ni 2.1027999405746938 2.808516453065126 3.13350330557067 -0.9609343799116354 -1.8759691690776787 0.9495305089500681
Ni 2.431431664850098 5.037793073263356 3.0324814018373583 0.10008970363475021 1.5790142101483258 0.7972129583588528
Ni 3.757601387340689 6.041161753938467 1.014597147549047 -0.49328773875925364 -0.021813753440981788 1.1634848585164737
Ni 7.003789815517605 4.491674112303152 4.808650033517971 -0.09167216899501632 0.5159854374670855 0.6198081257817067
Ni 3.611046395780434 2.5997520656566193 5.47577836644692 -0.2556159909712501 -0.6066031970556586 -0.16767192156009833
Ni 6.947550148610833 7.159679460873 13.03411428668358 -0.26626858558908983 2.220757702550543 -0.08719947793564337
Ni 5.725489161744102 5.19432233243391 12.060515457709656 0.3498744326362039 -1.0671985877882137 0.3729174304985965
Ni 5.4580564288843085 9.381188017634956 8.616634449962282 0.1252615749146875 -2.136292592826927 2.206191888921226
Ni 6.221060091775902 2.0747867094238344 10.365655646583859 -0.4382129092722969 -0.8941900845065502 0.39257814215231746
Ni 0.5369205727169885 3.8118758639747994 1.2721223551096885 -1.4169866313581985 -0.4460935975719543 0.3448301853440771
Ni 2.595506513086436 0.3464287469380564 4.585889227276015 -0.16510416083292212 0.17173143634145263 -0.5768984709023742
Ni 2.546441644627965 6.788425355117897 12.867942617505376 -0.932111285032356 1.1907591208513943 -0.07087734373685213
Ni 8.440455142018203 3.073678093392835 3.390209065866673 0.7379276903349743 0.43365022960227895 -0.14952996054374895
Ni 8.6234681210425 3.0439128765743666 12.45543063974291 -1.105183551672419 0.6125339607177966 0.13695109543747383
Ni 5.550077390378213 -0.08073038719154052 12.207014830677288 -0.41710929452446227 -0.4439773225598999 -0.4866568637062974
Ni 2.129626641749607 9.219829210671683 1.017169507457837 -0.36353496084243203 -0.6706501481342385 0.6541927739091636
Ni 5.180881172550142 4.404964726404694 9.857942250806026 0.5257725987608364 0.5964931052048501 -0.8855285521768105
Ni 9.128095611906327 8.749379344974374 0.41497402746255363 -0.6640943492935918 0.41909212928244594 -0.09675241173140112
Ni 4.5684370398876215 2.580007465275636 2.8531364689965164 -1.684698120041402 0.43789949179693616 0.5015582062981621
Ni 2.896273322457974 3.8097716272205817 1.1178196935971214 1.1857549827685836 -0.9678768726677395 -1.471629258403743
Ni 8.78096143581851 1.3872203976592077 8.113859985209327 -0.8257123513501263 -0.4285558457985071 -0.015972721279172493
Ni 6.981876090024345 8.25756266994459 2.7393343396551013 0.2451436306850165 0.5092203508291101 -0.576070318574124
P 0.8344355483731982 8.872352053262693 11.969425180665633 -0.9559222714090245 -1.4820352842284152 -0.4424642283494832
P 4.736729631397831 7.0317474280758425 12.698990018696044 -0.3539642864348614 0.5825091322209323 -0.4563985790423882
P 3.6640323750187904 0.2319712451802395 2.5094914326192157 -0.039115992164855215 0.9356990023836143 0.644894122216057
P 6.306443901216858 8.108847823037497 4.751857888591148 -0.6749667732317214 -0.5831218261042667 1.470823988893628
P 4.548757327864698 3.481455074970038 12.89057289586692 -1.6869920582819011 -0.3180277204392523 -1.198002689787685
P 4.786378495078838 7.187034538677827 8.435376237535227 2.5287707190662707 1.4790646316358658 1.0339066585043033
P 5.881795946544166 2.5630994131183997 4.735956532960379 0.6631962629593546 0.6153086952494564 0.3374817153988059
P 8.018393451902458 5.626682731950253 6.928721401055033 0.5171419196690319 -1.1304492682177434 -0.697247953227425
Ni 5.318861631081097 0.5732172662624238 4.064324021005551 -2.0043862589022123 0.2345964512967895 0.24125303738135867
Ni 7.881877616310563 7.572091325168745 7.861346939820515 -1.8594043227404624 -1.229465536282657 -0.485908415576047
Ni 8.371858877783803 3.0330023626549223 9.803307180296413 -0.5790857083616802 0.5580507420682518 0.454208770479921
Ni 1.1047891843222164 1.6835469893863837 11.66606190999517 0.0905532248992247 1.2348532829571313 1.690543008857953
Ni 1.2251014699300937 5.80028689905591 7.052685047268577 0.8105346151684235 1.1190716225084212 -0.8548362652992761
Ni 3.1414493485033357 5.444856282901904 11.182755806613171 0.8427281691818326 -1.0628112573537953 -1.0033958915099557
Ni 1.893071497560731 0.3249794366931941 10.023815433537157 1.6007647144515398 -0.05356559193128195 -0.729959327417517
Ni 5.868957321413809 6.44074426286929 1.6834097968579147 1.9682126371951327 -0.7439181035904544 0.5994007657699484
Ni 1.9610281479799734 0.638453240525883 7.2289366593830655 2.2293292462696384 -1.22478124343311 0.575128523486145
Ni 6.4177552445853285 9.752998309316284 6.51634476186795 -1.8969941080687784 0.02759513600944925 -0.7459053092238122
Ni 7.651347819655789 0.819157120979801 4.239802534682586 0.1923714811893074 0.5836753846148917 1.5749001879799522
Ni 5.2961785150565595 3.7997324712522227 6.732769683433661 0.524560066509974 0.3906333597211208 -0.3860028029276449
Ni 1.5644953918779494 7.165584301456421 10.50082551223429 -0.496129836193739 0.0750795547436578 0.08680841314481179
Ni 7.630175675397496 5.169720374963896 0.22462217514172148 1.146644389920367 0.351854182070394 -0.6574948416992031
Ni 9.523849707711637 8.4660026155628 4.103723305042777 0.7650276318755599 -0.38042505172955127 0.8826111214196993
Ni 6.038529140554335 6.715416682535444 6.519967386200762 -0.22678389723090622 0.40033233217643954 -0.40906277007090197
Ni 0.5256327793442546 4.761832156201447 4.792355639832668 0.005371034503926234 0.015250755511483412 0.08959266075816828
Ni 0.45194277900217733 8.472241167701956 8.615685225981526 0.5103356953804759 0.04320893128730623 0.24035957903281183
Ni 0.9768108026978727 2.378603271624172 6.404645942304209 -0.8200950051633489 0.05389623579782331 -3.596688958629328
Ni 3.8926711395243996 7.88362960197817 10.347204178481348 -0.7741486203402216 0.2816460964864246 0.33591488513231826
Ni 3.8954984179827092 5.59232898124043 7.634651118150519 -0.8180759178507911 -1.9703412535023614 -1.1396692441541145
Ni 4.326440543387179 7.615047418204179 3.3729107565845355 0.21217540328911202 -0.3197236200844365 -0.020640301958170904
Ni 4.034452201884557 8.036441685208455 5.900487501571497 0.9124847690506801 0.9947302454151576 0.8549931025921146
Ni 8.062415567963157 6.8593019816498195 5.071922495649602 0.34983252365467493 0.1520352434641059 0.9726426694874992
P 2.040683242380813 5.392676773256574 9.16228157986174 0.2846781984445291 0.4285900414705522 -0.135281935265167
P 7.578200100591781 -0.0844484901083538 9.125664152432181 -0.09658091915054334 0.8283775568871152 2.034999355802379
P 1.3107819118650357 2.1570187986161824 8.785682527355615 0.41405945195454497 -0.026231165782387083 1.3809287092933766
P 4.691076036620206 4.926592967080129 2.918421573016792 -0.4108980235074279 0.4647621205157351 -0.010691675385891265
P 8.06151640071576 5.260591885543604 11.502969656895162 0.5321383930778641 0.38319027317951426 0.026472592369231825
P 6.960184838901575 0.23264052224479675 0.7713788959639968 0.10278293419619718 -0.3211171579978534 -1.278211081117476
P 1.156774028893368 8.048881710425018 6.438210835975336 0.028766016389098845 -0.4337520452874659 -0.6655588496542603
P 7.519763499276421 3.3326753397048843 1.0257755576896233 1.4815416324214485 -2.5636307641682494 0.5789098449054482
Ni 2.9575372022316437 -0.14043509241869337 12.418826189984964 0.5240669289236394 0.08646414243151561 -1.5926482559919926
Ni 1.2401555689999135 3.6988403442350304 10.383360898568682 0.8732798167164444 0.6834668402829326 -0.7004263509554066
Ni 8.37402800289608 7.594950566736586 10.643986842668028 -0.22883075245760587 0.13631500451537168 0.035732677514919105
Ni 2.435751375543778 3.613196981361837 7.636225124321735 1.4478362697492033 0.7756223766722706 0.5877680666270264
Ni 3.7078134771781253 1.5955398363267344 0.2616928941011531 1.14544214208215 0.6337049383684571 0.3595332958822066
Ni 2.7236610202540845 7.646666588110063 8.091881371358006 -0.880472992030774 0.16055305112712995 0.2571023457087895
Ni -0.22470560303065523 5.85529368715955 9.024791491922407 0.38371015023872623 -0.23812991837134476 1.5119683243424218
Ni 6.553687084954688 5.620351482156726 8.54920524919641 0.030234630514825354 -0.38828234299044095 0.33228757279237614
Ni 4.824115710173197 8.43925934227682 0.9347325564493298 0.007327386899348671 0.5740262915609017 -0.22590817949417222
Ni 0.18533320131319633 6.793069507601874 12.700699363442643 -1.0003123674886256 -0.4434638732585911 -0.2956364972282457
Ni -0.03119461464886579 3.9543985075699233 7.575050234296261 -0.9160148936911257 0.0012690965204107175 0.7434779307292422
Ni 3.706015142683331 3.100087655123079 10.66961589014847 -1.4426624388577478 -2.0168458248218037 1.789254601198254
Ni 1.1790029264114887 4.592519890493159 12.586991785708685 0.3611026972518555 0.11506457977702762 0.2955863607166006
Ni 8.44726841961446 -0.1844015898867697 6.288211199578663 3.0760755354719285 0.18042716434323766 -1.042652008797101
Ni 1.8432835873981674 7.50744398101054 2.6570762951195293 0.10317579875924165 -0.3158739073210431 -1.5687141137738985
Ni 2.2910039882437543 6.931049966132829 4.82989633589976 -0.9119175836933003 -0.6233981571258103 1.0619003155037519
Ni 4.5694381745548265 5.699302074384348 4.986651777346979 -0.3104578785117943 -0.5457328439328472 -0.4743263671654025
Ni 5.981566431943471 7.044187453292405 10.588198613338042 0.9380875572204488 -0.13385908677571137 -0.4638727759322463
Ni 9.128049263079143 0.7188341575604457 2.422240692419232 0.32051937651285445 1.0431279199922552 -1.2921168925652906
Ni 6.633592463022329 1.8182830300143593 2.3681618078358437 1.139909385189379 -0.2126780539571434 -1.6804915381592218
Ni 8.633803909504845 6.850588402138964 1.7095125293521918 0.5220910361441912 -0.28952267102102397 -0.38022527701391934
Ni 7.950149438754666 0.5325906652813278 12.067462219928206 0.31947627996032074 -0.07283009658784877 -0.18519424671457785
Ni 7.713649913158413 2.5505481507165917 6.477189272661719 -1.4002677759416207 0.4362390733753777 -1.3335036830421938
Ni 5.543996424251488 4.071948403077551 1.1308974786757557 -0.3367990875094845 -0.07060172147796227 -0.6632026907172579
P 0.6320209502890923 1.4991806246082748 4.349045793382045 -0.24730438578176117 0.1931690373899383 0.2247864071849032
P 1.2703471950284873 5.8755388548741365 0.9730991886168654 0.9320999721784463 0.20748031180628784 0.1717653749031816
P 4.322463814014672 0.8162584653276257 6.976762887409251 -2.2495234618293254 -0.051370641162492174 -1.9326208561334524
P 1.5596380347889187 1.9198055010812733 0.4826627816606645 -0.736707187664312 1.5171519254258905 -0.3903096578331149
P 8.267527667789453 5.668869434454409 3.385161678586182 -0.026826633274540893 -1.7068114070006732 -0.39375750717239927
P 2.6991981092656268 4.7107928277048785 5.456322982747574 -0.7674688943272009 -0.326590779517915 0.5584904007088317
P 6.566729644924662 3.236065844319624 8.424603843120796 0.7103415531865895 0.07733312666452488 0.5471132692201417
P 4.103502684625375 0.7629721456891079 10.661448299821858 0.7401658356368737 1.174436729542287 -0.3100539582051563
