# total energy = -340869.0656048417 ev
CRYSTAL
PRIMVEC
9.19055316438321 0.00000000000000 0.00000000000000
0.00000000000000 9.19055316438321 0.00000000000000
0.00000000000000 0.00000000000000 13.45130355142328
PRIMCOORD
 96 1
Ni 3.4074893934868147 8.099882416370574 10.207750429045163 1.9879080587415312 -0.16153418409347664 -0.7205709442240816
Ni 0.308670233503859 7.564440804372134 13.143779163607489 -0.5766611580805875 -0.07646589356822314 -0.4071658101585052
Ni 1.4745690696099865 2.7437200913350233 5.223571137391536 -1.2557046724848437 -0.07147641077343174 -0.7754763380127097
Ni 6.947901753577362 6.24616627739252 12.2282438552922 0.5317653260091616 -0.8181512511734167 0.6027833090889361
Ni 6.601629291935322 4.226193036439666 5.706029211917079 0.4817013194732349 0.1282525392222114 2.424164358508089
Ni 6.779080487343251 -0.21712037889349056 4.403660774842815 -2.7393816060817406 0.7356910876949717 0.21935675152889964
Ni 6.964178222764613 1.6023177549305891 10.307854850295561 -1.278729158404475 -0.29301937132037276 -1.0047971427328566
Ni 7.214308310511773 0.3936819287806248 8.179307174538966 -0.4397396303294685 -2.158538034488689 -0.2632323698659273
Ni 3.284244079087586 4.822806968545584 2.0468850179568676 -0.5624936083309539 -0.8238809545683424 0.883100402351292
Ni 4.955160120869468 7.4873596371934354 12.664092959836815 -1.6082779921094497 0.798538876259128 -1.6630674291455037
Ni 1.3844005551006024 9.04165675321754 3.198518277850431 2.1690415051231744 -0.6736436835449237 -2.7328592315821902
Ni 7.023043714093999 5.271967669911662 9.741703005779224 0.6719251581919202 1.3006997491382954 -0.7312255957244505
Ni 2.5667284235721333 6.079945937629324 6.695251616224813 2.4045661246611876 -0.2549986691022254 0.7471363534174359
Ni 7.480714867446185 8.502033439649253 11.762492367829664 0.15691185483011685 0.34442703636838745 1.4781750299420606
Ni 8.34971840642491 3.9640968488157124 7.634206291441824 -1.0724706348204303 0.20421912455651278 1.815889687287279
Ni 5.714851223646521 4.96723650738107 2.285430413772616 0.20385171391476503 1.6289260073771044 -0.2064464712251348
Ni 3.830401875768316 1.834489502309659 2.5214732220334874 -1.0398963004288349 1.5922623334074837 -0.14249670784605137
Ni 7.3835063894148165 6.008893773153526 4.4491797452497135 -0.6745024320007932 1.1372665482498931 -0.6309942243055133
Ni 1.3801269480017477 2.7443818111438785 7.850099731523064 -0.38405622072423534 -0.8159969238345752 2.35995002861371
Ni 1.4178725487651807 7.715515112954872 8.4258557038207 1.5769640124875164 -1.4696047717745464 0.5033602925039073
Ni 7.74319705829197 3.6934166847824463 11.214081966632957 2.150103016347458 -0.2820657005223465 0.10628323403997181
Ni 1.2389232932344283 6.624807866351047 2.0366081417032342 -2.4406003925769255 0.6082929260532556 1.675103020153799
Ni 3.0198962060029455 4.184624165669516 9.647153354702045 -2.4407759989228417 2.5086454090713053 1.2543121630126914
Ni 8.392463667966359 1.9298690603137754 6.55051603197773 -0.8985172511269945 0.06943958284906104 -0.9843442741951433
P 0.6317246013527019 2.9687415885573 12.61572124180952 -0.4404981057620478 -0.039645639416080104 1.3440279796122854
P 5.5471236332076 3.8480477373377804 9.711626002356185 -0.6147723631300122 -1.1666478296254876 1.7033208773489117
P 8.482273750912613 6.621343027907458 10.734772575531215 0.3252023838108206 1.36398796767398 0.161246991870361
P 1.1058532777842838 4.645346582584755 7.354177496997902 1.1163115432647808 2.694501714849914 -0.9356552936298724
P 1.8647264213531687 8.53453123470635 0.8755793795792213 0.5018952779226066 -0.47089034490065995 1.6223599241238125
P 4.450571194958889 2.299476335770852 12.488889773668415 -2.27483365845934 -0.5252331813175987 0.44213821246863205
P 0.3778741777913128 1.7158486549137122 3.620593500762672 0.752901023815355 0.24422703240801805 -0.9180257534735673
P 4.821639768327187 9.300012385810884 2.69379792703337 0.7887740835628803 -2.895037477017569 2.5337584020888495
Ni 7.76753364237319 2.4218945004090124 4.388608487301946 -0.8183993626284808 0.42615854921092416 -1.2394930957219878
Ni 1.602372898247994 5.3487915016091385 4.349478789271658 1.845465601172183 -0.04236432389882381 -1.0931456466712786
Ni 0.30116338989451596 0.742103141690863 0.304188000854157 0.8729034072136322 -0.21482029711112682 2.0331581888285823
Ni 4.950757846030004 0.387249460805381 0.6741950653624169 0.009854781306892706 0.9355902447198918 -2.292946051789335
Ni 8.723773909485956 1.126219543012374 11.774598164110548 0.823046631592505 2.450374441244554 -0.6458310322080297
Ni 3.3535316574064367 4.167189686816768 13.150881622889198 1.0960288817563446 0.023390611009798425 -0.5656596647637612
Ni 5.65290689709538 7.102946381013231 3.2706843373378005 -0.20385685612108762 1.2425259690110406 0.5272890354053629
Ni 8.591117468916346 4.606810594271856 2.7687358572756096 0.9915922140068083 2.2838816275942215 0.6821167540129414
Ni 1.5539111128022716 7.0519755746256 11.098186337388467 -1.0037902987348972 -0.8532028434609114 0.09323514260676201
Ni 8.977534265628918 4.673901630447425 5.482966221517955 -1.2731737758038846 -3.2577288589127833 -0.6688267217722546
Ni 6.489210448853192 2.132226654082771 12.483145678105437 2.6915002090194293 -3.3446473152728977 1.256476774764178
Ni 4.109077820825245 1.2730202444962582 4.994266842517504 -0.31543142046698575 0.30535732406043536 -1.0262532557241035
Ni 0.5916923910275592 0.5158740058174265 7.580279803241309 -0.6984021214365262 -1.3237016093501073 -0.8981061317315049
Ni 6.263076894729923 7.566141056658775 0.9557393819796746 2.023356115136496 -0.42016685040386353 1.392940389042272
Ni 5.551755671869586 7.475742778326873 5.753835710940978 -0.17058780965531264 -0.42322157806978733 0.21869777778866206
Ni 0.6377710661061138 3.045161035927143 10.458966840145195 0.8665975196002623 -0.1294992671451189 -1.031521188991262
Ni 8.899203183255716 9.187437303329439 4.565466892047775 0.45221770819182117 -0.3737021311834209 3.339968935960622
Ni 2.1436229396797164 -0.3030888107272258 5.585895818730049 -0.5753743209483638 -0.13996417123218477 -0.20198586435061988
Ni 7.302574380570699 4.327831360969202 0.05467643731721804 1.7371134004183246 -0.22203069881663695 2.217790135281787
Ni 6.233942842034505 7.52222859489893 10.344254035059032 -1.4094026483633533 -0.09086304283015965 -0.7125264766530504
Ni 0.5436763473975241 5.382281876379519 9.429094620357386 0.3887585112959111 -0.531648083705007 0.023042997862392573
Ni 8.8219014428074 2.5829313683361783 1.6531920605127617 -0.33356489684290297 -0.9387259621353963 -1.1823130469665701
Ni 8.373770083366207 7.247238061555207 8.400392357953846 -1.5573853190246405 -0.314524078161368 -0.05272484119754146
Ni 2.5269425200647317 6.4051628425757166 13.659125631688411 -0.35825211517693784 0.652451879958657 -2.243203433148569
P 1.850306443851872 4.939572943149775 11.781714409221609 0.2884044982561807 0.17363482401175256 -0.9998889067979618
P 7.310515018276958 0.35790310633795525 0.23474510219128336 0.12357210302740652 -0.026668253319805685 0.37350389912968573
P 4.518461809236824 6.074100745984438 0.7141831610336358 1.0675135479254714 -0.6066037112762908 0.5553508266385855
P 3.5589864675029887 7.24449927679078 4.938525220119089 0.013644330256311983 -0.11884075899000823 -0.2844938503478649
P 3.7013573224887053 6.219237957393285 9.027573149952412 -1.9947320236419004 2.835025615240311 0.5965198446777276
P 2.642219625098999 1.5647835368838738 6.6731648794937 1.0532755499492181 -2.943355961617299 0.2679847969492482
P 5.1791155139552565 0.31343093990645415 9.224352078110643 -0.15484700188128817 0.19906817648319264 -0.018570049692703504
P 8.205435916435835 6.305059340380608 0.8350517984527277 -1.048926271841587 -0.4499276266060638 0.8570849521241367
Ni 4.120437344210588 2.5556078545622105 8.937395444890125 0.14499736278071804 -3.8904521500942617 -1.4955006657047016
Ni 8.098761168916681 8.324600625347125 2.537265349082868 0.5729901369869035 -1.5369697314827662 -1.014236947989518
Ni 5.755648087973007 4.054145886137386 11.9309965599887 -3.782216934534241 2.430842284748897 -1.0323904789700928
Ni 8.979629711690292 9.097663982594788 9.85190968277814 0.018281829028323354 -0.5647281540884275 -0.1916662275921667
Ni 3.592228697345048 8.167708696778204 7.27415535289096 -0.44914652546566514 -0.6357610495665373 0.08101751749464757
Ni 5.121481556714572 0.7105023445968803 7.011881787596023 -0.4981247551365809 -0.518859416580771 0.753360994170909
Ni 0.5173886089354722 6.557128634789828 6.1272166274191076 -1.0944371117891925 3.792834819259403 1.6802652810810286
Ni 4.781302431645738 4.931779354289929 7.997149496990557 2.0610171200223792 -0.8663789758315531 -2.380688289602326
Ni 3.263124188521633 3.539557638670776 6.466135727685247 1.3492709731787793 1.6125928174347197 -0.0566534868279863
Ni 4.988154205783207 0.3918925281308463 11.413565674509883 0.5756653698262215 0.44412696076388675 -0.3550534057339821
Ni 6.748678138347527 1.1257783964731374 2.2422384913601916 0.11881324818618248 0.2194706513989446 0.007895086477360596
Ni 6.245100173256032 2.604124783325337 8.004937571518663 1.037481263229439 1.0092315243551264 -0.6861063347883087
Ni 3.4088679764219294 7.204134368450629 2.4708829045359484 0.4144186350661766 1.4295354145574866 0.5662186225910248
Ni 0.5837517533213002 4.841849794155964 0.6152689163838861 0.8409147701221775 -1.5265598490033516 -1.2322520978888585
Ni 5.480501315229971 2.9364459856640193 0.950070648950484 -1.4867869399807876 0.4143301891174284 0.6769989731704018
Ni 4.34890529877065 5.871375530099413 11.168025348881363 -0.573390971969748 -0.3736486522376662 -0.5775672148346247
Ni 2.8045707420909736 1.9647380180192693 10.950585138746927 0.31920579990775344 0.23365722731197178 0.9163398811307121
Ni 2.477580060434734 0.6481867197085482 8.747301724911908 1.8085147349794466 0.7746908659969368 0.9326026228464777
Ni 3.0070753847063814 9.131191119576771 12.587178141665621 -0.7939926516493423 -0.1608124754361037 0.4069943175776474
Ni 2.3570000063767265 2.1624635731262805 0.5524634350259434 0.35871928462134345 -0.8304493518144795 -2.2497949703231575
Ni 4.6634244001405545 5.23084913623365 4.946327080476546 -1.449399243360949 1.1920007065679794 -0.34676879712768666
Ni 1.7072371068456975 2.8939764407095945 2.4945706355823742 0.12268147289233712 1.523087831294351 1.4383596977173356
Ni 5.321440416176469 3.266111118214381 3.9083294928691736 -0.2033691178513917 -1.218208989532231 0.03802687286573451
Ni 5.63686938228355 7.523892084973968 8.16235795687938 0.42813547043163686 -0.7790452863108905 -0.40024928554433004
P 8.412443929972616 1.9957653246122447 8.816522212194585 1.9134941626063304 1.1720178356881492 0.027959204217087336
P 3.0569984680633246 3.6857701447690117 3.981020332927177 1.7367416189012024 -0.11441331934627393 0.4978542750840136
P 7.062177088345447 5.71917997406278 7.614621223210299 -1.2683745546430285 -0.1055404423366763 -1.6374222177735736
P 9.308927222124623 6.975179314586827 4.106763639604834 -0.016662805367661626 0.2255567096920244 -2.345428437958767
P 8.1881209147708 8.480123161533834 6.524877146550472 -0.33549039600038993 0.23286661308987636 -0.06425032533863773
P 7.0230529046468995 3.348127612300788 2.479478828664032 -1.0358640393409901 -0.9135052398953943 -0.4767776569193724
P 1.678498247925012 9.288248478097906 10.829509713887568 -0.3440819943241429 0.2741762704719407 -0.18138670004302956
P 6.107122402556879 2.0944626722135364 5.770837314752098 0.003364288486542593 -0.06948432004406743 -0.33748017273690906
