# total energy = -340861.83936416445 ev
CRYSTAL
PRIMVEC
9.39972577603710 0.00000000000000 0.00000000000000
0.00000000000000 9.39972577603710 0.00000000000000
0.00000000000000 0.00000000000000 13.75744881207408
PRIMCOORD
 96 1
Ni 6.7046738310059855 3.074377631603903 9.087991160799536 0.7686724277169987 -0.7591248932378798 0.3202815494704355
Ni 0.4193283360805215 1.066126270302614 7.141367220046337 -0.9189305246760239 0.4417798006879488 0.3543265548702865
Ni 5.159565746437844 1.5333114290173187 10.319530981211074 -0.24389664565179284 2.3426699013770236 -1.791889724828256
Ni 9.040101439125968 1.231298247465199 9.856771213279897 1.1359046349053599 0.8469841162447092 -1.1789636708783633
Ni 5.131178575311563 9.037817305820111 8.399431185982426 0.03105815485738522 1.6276787652335645 0.397415929860593
Ni 7.851543743684345 0.7016058538919993 0.20914107331404302 -0.6058287807834792 0.9815368866533355 1.40708042798808
Ni 6.848217039704473 3.0899905757233577 13.809864327372283 0.17927942389203963 0.03090157467486291 0.04457521550721356
Ni 6.7695413369471975 1.8981993746964894 4.2281037040900475 0.38334556781045587 -2.048071358494989 -1.3978177717392313
Ni 9.486297010713194 8.615760229415763 1.1724183666920125 0.899124031473058 -0.3338346055645219 -0.9441327349732643
Ni 2.0064278145468193 8.128008471222811 2.673030970478539 -1.4227932107376464 0.6023001988049304 1.6195072851663659
Ni 3.1475826940977694 5.0296615394957245 11.577415412389376 -1.863532743086539 0.18823046243774036 -1.3033960650235359
Ni 1.6040067647924041 3.624458969842671 -0.5386108531641319 0.09382649633385777 0.8293931426358231 0.9102939320469484
Ni 3.8951146669983427 6.637794783799532 4.959794319540581 -2.317781108555144 0.5306507527887442 0.7313677777292695
Ni 2.657650199579886 5.637701585404906 6.840822275623332 -1.1530245824150982 1.6583728518833116 1.4290839288423647
Ni 4.927326727558036 7.378342760624998 1.1762290154253219 -1.5287293458508446 -1.0370847991219687 0.02455686340375771
Ni 5.200275957745102 3.4592493937779323 4.547414260578122 -3.2150133223221276 0.41122018273353694 0.3814020709308399
Ni 8.189360479812624 7.662317868868729 6.661769723758039 -0.5678980671759768 0.25294641455888695 0.6538395043348031
Ni 4.878081565461816 1.1887268905013162 5.828315799682557 -0.06269635058795654 0.4730570135346756 0.39863746097251995
Ni 7.848930619984641 4.899099351765909 8.132275006644738 0.20238849910567727 1.3115346349702703 -0.912168780472158
Ni 6.8171791459763345 6.007157797695789 0.48782977591492016 -0.21852705653875268 -1.0606656717657021 1.2312028306887375
Ni 2.3523283146382123 5.996244716345585 1.920292489602188 -1.0745817676261622 -1.5244219767247422 1.9209076814615822
Ni 2.0611624163575257 5.165111584505561 9.366098020389579 0.19972457912026895 -0.12702715145554253 -0.17080892452718324
Ni 1.2271999671304115 3.6579595916618977 5.682101188986027 0.4929118434770737 0.08928772792323977 -1.2470927624461168
Ni 5.203819654273119 1.4815189413001641 12.743524683299945 -0.4155013266073941 -0.45460600591833966 0.9473638403160523
P 1.8642663655024914 6.638452764587226 4.2420124779693715 0.09677426610827204 0.45448207874596575 -0.2661132909581482
P 1.9026642443272785 7.56231418886459 0.3800384233021304 0.13680402833664826 0.4600040370054594 -0.03422472551082493
P 0.8944835220793234 5.673711933942913 12.000924746389424 0.2939832778955389 -0.818473667509842 0.8296193997140163
P 5.192511784450299 9.144504190682127 11.17521619615767 0.32205072555571634 -1.6739925606984394 0.4272199005959029
P 5.240412785794513 0.27129957835505947 1.0028012593222695 -1.041319920249239 0.8095313707148897 1.2614798844057242
P 7.905686162786125 7.230447479002182 9.141233086194728 -0.582942363103609 0.8268300098943373 -1.313019447045913
P 9.117902967408162 3.6091562166659874 9.272024627227681 -0.35239102841047054 -0.47839230970465996 -0.8171626620079024
P 5.501161172232602 6.322349394452891 12.647401209998101 -1.1672998613871897 -0.23328981667022403 -1.2320456383050071
Ni 0.5059054481254626 6.65602085161869 8.16838875216367 -0.22897010624894762 0.6775193644502461 -0.7492238320740839
Ni 3.6148994489700126 8.675345089604336 12.544757147090197 -0.7186999524536138 0.10877206190009656 0.949205007289849
Ni 9.02249575319235 5.898590967726072 10.263537756150763 0.9967729868767993 -1.79306960406897 0.9017825521418276
Ni 4.475434922294476 4.012771031563792 13.057868424813474 1.9207495586171632 -1.4350691998915222 0.7175974634180544
Ni 5.270698701479572 5.9274199259526625 3.4640018950101994 1.5537664913251303 -1.3731860892334804 -2.4086701195272324
Ni 6.725306228563 3.2850818792749994 6.488562861205142 0.37573973043874004 -0.7698749326655322 -0.18509551635318444
Ni 4.794414608443596 8.376809806501463 3.148736040421343 0.07975304895992716 -1.3555408653478913 0.8514359813684756
Ni 3.187907516657949 0.9103840978002561 8.435806243871328 -0.7469386355843329 1.0069219023853433 -0.29351482289955255
Ni -0.2945403997490096 5.770369311655345 0.36062141025724354 2.057266908951328 -0.2400181365329931 0.3504241344920868
Ni 0.552197216457485 1.0749056139555764 12.116156921738494 0.8968648031252362 1.0395959955795968 1.4660018849146363
Ni 4.584321342932502 1.1351296554807688 3.2270846327298783 -1.1245277605269859 1.0225328694497229 0.04261063558167501
Ni 2.7218503250078654 3.8263462749586505 3.371950382811634 0.9287724504671102 -0.020197557993797473 0.8565761308085184
Ni 8.049107175052614 0.6929994651889454 5.7370078057740885 -0.12038650621057331 0.7686217769847213 1.4462673826001866
Ni 0.3766159832335612 6.12975841789449 5.702270180073994 0.37149766733293443 0.47385714083846775 1.796312279375984
Ni 4.254513172963027 7.163906821915115 10.84136426426153 0.6910572510356808 -1.1601136280513955 -0.6845688150978598
Ni 2.118096553944242 7.69252858674948 9.740245635696729 1.4625563495681972 -1.0484727292439362 -2.231968483664698
Ni 4.538638676815375 3.2464020086840573 7.878546335238803 0.566169000300012 -1.4833393477518197 -1.9671469149347796
Ni 1.4351594949442645 3.1511639895279386 7.882481060349221 0.29511970549282723 -0.01512888522163846 1.5005888788608865
Ni 6.441133726082961 8.979200617362002 4.806783707279712 -0.6610864157052033 -1.4590259678174355 -1.0734304276305382
Ni 0.06068744799424064 5.337493151156178 3.611894356715353 -0.7195859546029929 0.5981861766365569 0.1265635815555627
Ni 7.498809643126459 6.521482579986089 4.736661754762476 -0.5861577847171131 -0.01092744554578118 -0.11232506935867752
Ni 0.6593531476238719 9.395627258168789 4.965076965293221 2.1104869446177332 -2.536301994446309 1.9018257251294666
Ni 7.653745319177614 1.7376050638711555 11.684420947947148 -0.43343759937084064 0.4345693989824387 0.44636947694116025
Ni 3.3456349111940393 5.901683477428239 13.713686335662315 0.7738555145798349 0.827961295285303 -1.174733177736783
P 0.9346466693602415 4.096475587484166 2.3055693799469266 0.3278603902589579 -1.8715610127076543 -2.5787825322080233
P 3.094342648647685 3.022096358158746 9.453389511575446 -0.6420342841697587 -0.5584418068590834 0.611878843632301
P 6.318664702041796 1.4436192479289176 7.530455699096939 -1.0573949714342308 -0.2709521071076882 0.316255716140494
P 3.582197803821559 4.017254700645658 6.078686889126139 0.450969694717333 -1.946938815418021 -1.966489226746123
P 9.017438700852637 2.5638785376077737 13.665425324829977 -2.2415353014175268 2.177379335564908 -1.986793999741746
P 7.8316633241704094 0.7623825992788557 2.542046735072046 0.2928100835230441 0.6099415174002721 0.4326009624021582
P 2.130786183421222 1.0635977441327567 3.1966671208872808 0.871111862530848 -0.35625256824840584 -0.5914205757779493
P 6.353114696140413 3.465180620592728 11.372911223683477 -1.7525927270008461 -0.06208854180062856 -0.47492209176787237
Ni 4.788690175590647 4.488086952869303 9.718674205558417 -0.19262627751259084 0.41813799289929277 1.5313109905350917
Ni 3.196602262781065 2.629197230374835 1.3037550918062 0.39067886824707554 -0.09041130000472171 -0.2991838482598718
Ni 9.636692619329251 1.7824417546898175 3.9880638529858357 -0.8272470428270979 2.657075708792972 -1.400340538161085
Ni 8.104198966433783 3.1538617107574893 2.264269805848403 1.7316168960801273 -1.5802797071243107 -2.389225894759692
Ni 1.173997520582481 7.9119745791713845 11.651375272843985 -0.8096671249618055 -0.3170481301348024 2.7155888745375165
Ni 7.255102959089678 7.964180654812233 1.865524048779543 -1.6343708325417596 -0.27598761264906657 -0.7349943187382633
Ni 7.861817643697929 4.592987889879002 12.31879056506223 1.6276952202937967 0.17144630100086602 0.023419150254888697
Ni 3.0392320578154384 9.00893194924029 4.708638353014535 0.5529188201583252 0.4174756767249455 0.13155872077730893
Ni 1.0534272411000958 1.6708200139200875 0.9331530529721733 0.9195514460894745 -1.308786897021804 2.130243815529686
Ni 2.0820486065040806 8.393428521253536 6.941953922692092 0.01770435925829854 -0.5194242879453055 -0.36789478047302443
Ni 2.978613227817629 9.377955774156401 1.1514588586862573 1.103371695274661 1.549168587541803 -0.8484694425409839
Ni 5.628865843398711 5.312809471892067 6.0824157602472635 -0.49398502193659444 -1.259821522866695 0.32036022522717084
Ni 0.798548983260802 3.3418186226254067 11.031231200358873 0.16173215903689564 0.4185295719107566 -0.4216028115194417
Ni 7.284383104142115 4.026334835515853 4.016789414231503 0.5061838779956315 3.0806490137752234 1.9217499748572189
Ni 6.5779655307469564 5.832445099111623 10.579862959807807 -0.22727909169976987 0.5317835808416067 0.015926441422269344
Ni 6.212823792478247 8.402800047615425 13.402809212927387 0.30479759490222347 0.4931617547043507 -2.5582946966673163
Ni 2.3647171528979603 1.5268162186702128 6.202063926654322 1.4647803538027098 0.40464227240570316 -1.163465318132448
Ni 5.9646052401829825 7.02046701019755 8.06420313426745 1.1081194943722914 -1.4243646689898244 -0.17395209814185525
Ni 7.668869477569066 0.022430565052531083 8.273729596328572 0.4857502927316279 -0.6740578882642069 -0.041420729038631886
Ni 7.41941016150272 8.905525568591212 10.651456909344374 -1.1187263233538605 -0.33056467656399846 -0.606468214139691
Ni 7.9347501141511785 7.093324282846493 12.38547315800493 -0.043783572843853626 -2.605438958453287 -0.6490274276581403
Ni 5.476637288302647 2.9298756509004873 2.0523774328692403 0.7266192073006905 0.7194342595164771 -0.08238431593518715
Ni 2.1875793251248603 0.5036015753959753 10.613184046869248 0.8451874293556025 0.9888797001716516 0.004339507915618333
Ni 8.69800782787767 8.448445114830399 3.4327581472927675 0.8723020261842074 -0.3794061235467337 1.8103201636193016
P 7.504035890525867 5.816794556090014 2.6712008439161923 -0.5553158596355919 0.5284403754009868 -1.0800605313525462
P 8.643517618930963 8.927003941446692 12.399491908673053 0.6154526770264885 0.746257036136276 0.22601745137852688
P 3.1150032453813155 2.322042398953154 12.31030261290096 -0.08656081591037995 -0.2501727084684917 0.2812144082656447
P 5.598711523871192 7.35552962674305 5.914918290986453 1.5174542871576575 1.9703291693175038 0.3857909440271549
P 4.218333629365327 4.659669542849147 1.650948994131691 -0.1874089949777095 0.11526538293392408 0.2806109703536909
P 1.0794456813906737 9.229994694454817 8.633665766594058 0.265019286563021 -0.22719064575102163 1.5982766579223635
P 8.587861844017484 4.1546034902142726 5.900913639906636 -0.11488537388668603 0.9826332050413076 0.007961678049237902
P 4.058416098778766 6.237817662685128 8.674195503170978 -1.398072825172831 0.44988160385947684 0.5155576059010476
