# total energy = -381170.5065706124 ev
CRYSTAL
PRIMVEC
9.26194443588583 0.00000000000000 0.00000000000000

0.00000000000000 9.26194443588583 0.00000000000000

0.00000000000000 0.00000000000000 13.55579189360561

PRIMCOORD
 96 1
Ni 6.485148493789445 9.12120895585405 2.504324124959599 -0.7658244167452424 0.17360962720077197 0.479084193565362
Ni 3.181135140057676 4.673549256448825 11.81812872704891 -0.2795269932608928 -0.9878106354771891 -0.3688646005854615
Ni 5.202109887936967 0.7608122180013094 7.204984944464639 -1.6071323085407803 -1.7326445660136933 -1.4768200585760631
Ni 1.5508291984475688 1.3377303863413244 4.589272973802914 0.658504256800324 -0.7190827897143293 -0.7032075132449696
Ni 2.4853315821873 7.959122079282492 3.739812835494264 -0.3852278724348333 2.4549695168144043 -1.6423888177502297
Ni 1.1449152320285725 8.646738078481889 8.681847330353026 -0.12087784402469505 2.812345400033976 -0.7807213884617329
Ni 7.681967661103283 4.7372158608654775 7.108101303376491 -1.1058363547650696 0.15461945925151438 0.37346944634732454
Ni 4.6836447756245825 7.088499324675967 3.3256964912935705 1.6813220044803172 0.31954287153219807 0.953901384324254
Ni 5.419413622709077 4.619654003161003 7.890893967348355 -0.7985882414398247 1.209637445813136 0.3309241167859462
Ni 1.7824796847822906 6.000406120301767 2.5477700528033043 -0.32061116489571234 0.10809611887899448 -0.3206751853644284
Ni 1.6648529934684297 6.961036448623891 7.159464341120596 0.4426169518772636 -0.5821916009805135 0.05781254013309398
Ni 6.653799235689767 5.756872559561085 2.5369391352582316 -1.3721190814215465 -0.43828772837429036 1.1787065605622344
Ni 2.2182726831838466 2.731690035908353 0.5052881443019729 -0.2487963969462554 1.315802666218005 0.7353128784199465
Ni 8.843044985757263 7.803651083975843 12.59086291962181 0.23963607060322598 0.0891458030287368 1.4688354977086897
Ni 5.23368385570775 3.8132720935114 10.307159231651603 -0.12173504981866776 0.0728591500535713 0.10858205737647753
Ni 7.4574118240241845 0.06834481243103216 7.333764868981662 -1.3081855159923792 -0.7658568126450745 -0.5531594754142215
Ni 5.938934596660027 6.011733478055849 5.140911591649067 -1.1695765732365082 -0.4265863807769621 1.2301527921576683
Ni 8.786213696158693 2.0460283069347236 11.628795137560163 -0.7762980625830566 -0.3422811936699783 -0.055821992065626436
Ni 2.004757083588695 4.3269209948408545 4.198974645301647 -0.919180693013617 -2.310625214236653 0.34827469224925184
Ni 6.073908909456633 6.735378440185238 0.48032072132758125 -1.0353637026658038 -1.050109750626727 0.9526487428640754
Ni 2.6311794174722887 4.625665004945467 7.097650125543533 1.1557982885054934 0.9045061217205776 0.6274859540419386
Ni 5.223032619880117 2.42552720850119 2.6347174801559032 -0.6972114435625347 1.1502066533503288 1.028057655922694
Ni 9.251626392105267 6.1078168871652965 4.469520666295626 0.5405145329567014 -0.16379726909604048 -0.12189137289087394
Ni 8.225958691625195 1.4107330305095014 9.27748851888918 -0.16905260395770888 -1.3612944800022169 1.0442085546509434
P 2.810425823535056 2.5953449553704524 3.0116906495395908 0.8102641351158563 -0.4340369235177364 -0.20930862326427824
Ni 4.480002408544436 2.616758570356094 12.421889862063399 0.42993601397548536 -0.481049544821849 -0.15393220337650262
P 3.73114643430825 8.056817066682383 1.8548793763831815 -1.1633185081419384 1.9657544054626273 -2.0472210946795517
Ni 8.799884325794855 4.94483160200654 2.297353941329133 1.2903842261449001 -2.457877948710451 0.11775755322815848
P 8.244056530587974 0.19427668910718707 1.511633576796299 1.8859103394507906 0.37068442740301966 -0.8223233802732353
P 5.971740403009137 3.043826817323189 6.525622263740031 -0.6850107877312848 -0.4260269087290663 -0.3443902695931811
P 8.963376164776923 3.6824193458828782 4.4000607157831615 -0.3232462885257143 -0.1391794705473603 -0.8414251340996929
Ni 4.535333263182941 3.8919059997519256 0.9113697519109518 -0.27363248215332875 0.5192234847884091 -0.525717834263501
Ni 0.5408577147997485 4.103170946906977 12.186575350603972 0.9802495353004796 0.8299988945406223 0.16718572595229914
Ni 0.5053288968564439 9.338725715342711 11.041870364708693 0.6519235182590127 -1.2515104318978383 -0.43247677811946805
Ni 3.0093631229626476 8.515125851429136 13.041498183600567 -0.4291587694898287 0.3125551273604552 1.2915957299544982
Ni 2.3784672700314475 0.6037842898749848 1.8486572022710042 -0.9437920638043938 -0.03519223163041681 -1.0873010149650435
Ni 4.489236566909784 4.061510721904636 5.512381313790337 -1.7941643797950455 1.4242615677530568 0.11379034105029436
Ni 6.760052259528555 8.814434840129822 13.404332995166097 0.39177801484852526 0.6134631574002853 0.04439600961687193
Ni 4.218185769957018 1.4049443153857877 9.774945689371794 -1.572570511405511 -0.9961296968658457 0.6944914735282104
Ni 1.3578102813624622 4.6757350752795395 9.802612969079885 -0.9810825727247361 -2.190671167577808 -0.03778904582331557
Ni 0.11741644518056726 2.9491975334528178 8.051910088646313 -0.7667626122887955 1.8300806340756803 1.298095735856545
Ni 8.170025810613824 7.545418817793028 8.876224048457551 0.6129558787465638 0.17170675375110428 1.7628092625225316
Ni 4.950787032125817 9.067924990883292 11.728958433088806 -0.10070316884903302 0.6224167670491474 -0.08014591352297165
Ni 0.6580972568461351 0.7227400701812499 13.432678249189477 -1.5389150281345947 -0.2329108360642505 1.800485694027383
Ni 7.124667216768929 3.6424911044455515 12.007245587043425 -0.38062379800391866 2.338019804199522 -1.0713696884467678
Ni 8.38586615820266 0.8033106489535652 4.585856242588293 1.3969327980311168 -0.7981760936030705 -1.3452821637343606
Ni 6.214931271814494 2.2052874374183324 8.398626338724165 0.9763090625954928 1.3527612457202252 2.211478591241462
Ni 8.75764986025224 6.081651894806112 11.039037135978543 1.5043915404364283 -0.39971012521140836 -0.748586198490085
Ni 2.617453216170939 6.330455501795421 5.004025613570006 0.6803100398215057 -1.5728610460627366 2.2058064805573494
Ni 4.083192933272017 6.917792431163702 11.823131103110219 0.611126795957625 -0.99547457978035 -0.26610197810423847
Ni 3.8669265362500767 8.34838307003359 8.518961222521503 -1.371676080346857 0.16795191469436235 1.0315332731761202
Ni 0.6334002826423233 2.1460850901050885 2.5485295322275356 -0.5504690730662519 0.49339983885708577 -0.20813414334020286
Ni 1.266700536287309 2.0535304817350566 9.97844542251129 1.5483604898182108 0.3153812839553407 -0.14850511882366035
Ni 4.114359375498091 8.220410787050628 5.444859888198502 0.5741417340928434 -0.41960120770838055 0.3170769264902088
Ni 4.127390930984595 0.47917964980239486 3.2308467731512884 1.2486264254818238 -0.054148203907629325 2.0143485123212472
Ni 2.384663510699871 1.3448713453179375 12.250382736572432 1.099728956315751 0.5703490998196307 -2.3180670152266787
P 2.8059986142084403 9.033396462913363 10.65551669824133 0.11629690952223196 -0.5362472730399152 -0.2795380490044863
Ni 2.883317324372858 0.33975312042983874 6.647705802601941 -2.092219513767113 -0.1694974048046113 1.1226431419097633
P 7.61880120167332 8.631724466937024 11.053120848325934 -0.7967799845864924 0.8822460247707968 -1.2225340992701461
Ni 1.1395525663379642 7.874004812103408 0.962277102000519 1.3586187329422665 -0.18983560214133113 -0.33941415653482837
P 3.1112630330284032 3.4117297647538325 9.917864897901392 0.21245925307811794 -0.12853201813584314 0.16280508038610025
P 1.3242079478123292 5.050454813639868 0.6041871844475951 -0.18662609406509792 -0.23058141660012546 -0.5764001911097171
P 8.454284139992856 3.6803354084383417 9.992163288062862 -0.15963799551202829 -0.1779915583185515 1.048154426672569
Ni 0.503645075401258 4.4861708633802655 6.308676040013961 0.6073156497416509 0.6705796999076193 -1.2432746742516072
Ni 5.935470629529997 7.17370921129703 7.879507333151405 1.0335747290861812 -1.3204692184557387 -1.4365455273267325
Ni 4.165114829702812 4.951565035438445 3.2992360429144707 0.16537052712043132 -1.5740234418019536 -0.4539200355949085
Ni 8.483746384486508 7.0296581931864415 1.7228327641475456 -1.658399848466505 1.326096334834529 -0.3617246471065706
Ni 8.074479594267858 5.636652523871801 13.274834343779315 0.9368400579665931 -0.5756211468518474 0.9593230695604575
Ni 3.8058069664878587 2.7260495118918064 7.942731216635395 -0.3558121382768775 -0.0867896440917344 -1.1205479499436315
Ni 8.219716141235782 7.154527724863093 6.583451064728719 -0.18065007898732113 -0.7823483825421945 -1.050457877994765
Ni 1.7469601287831837 6.7652482102236 9.684257362757647 0.047378489283963564 1.902894275603297 1.2558584244538886
Ni 6.9262578481606205 4.0130337059726084 0.9999861816080192 -1.8246738612378122 0.6333640100892705 -0.3230537128989339
Ni 6.73532286852005 1.9314673191503817 13.367501947868561 -0.4540871573003921 -1.1015955772108448 0.4155594335388392
Ni 4.917184698575684 0.9996601611722516 0.8950066750964482 -1.2286088447093162 -0.8723889294710588 -0.9555682305037155
Ni 7.272784228382413 7.439184317842636 4.129582306981828 1.6361058129549952 1.6324972696681304 -1.026500081627587
Ni 1.6754393956866773 2.3673436750497197 6.620987872174139 0.9191817214548815 -0.09243758640613112 -0.4348560769849221
Ni 3.867936088167652 1.9042927748736207 5.327493457516603 -0.00695766226475576 -0.34929927685902423 -0.7724064408381341
Ni 6.184653976231423 1.0524625050447176 4.937249774486105 -1.3171941472488926 -0.26669024650754064 -0.6407019385115805
Ni 6.080438580116181 8.849296798090876 9.253440806973645 0.6197050245449391 1.6406075574800907 2.507457816521107
Ni 1.796085480809067 6.477072078448839 12.421090556279117 -1.363093995104801 -0.13005025455258248 0.3884137263619827
Ni 6.551510323967698 6.826645638311756 11.804532192966331 -0.14637470274421888 0.38915009030737496 -0.8986494058294846
Ni 0.7472721817783383 8.38244850079362 5.480226622118343 0.13296897086127424 0.5048584743159886 0.9312779904977833
Ni 6.207873670335662 1.5494399068178775 10.753551598993285 2.2808083879855365 0.2304034962613645 1.4111941930461374
Ni 3.58705836842087 6.221998135237523 0.8869552670051774 -0.13413856568934318 -0.5500664383111945 -1.081813252377595
Ni 3.879819162573612 5.88528015392135 9.621114984382599 0.7520168214381887 -0.565578932124497 -0.7380405617637548
Ni 0.35105917571226625 8.433667052208238 3.2234316606264164 -1.1348155156062392 0.8467668580275804 -0.9049889748942673
Ni 7.9027261010612255 2.252430733385856 6.213175207194564 0.9926972741455291 1.392944245697014 0.28780414566802043
Ni 8.739301948796118 2.9208004125419285 0.36293298817402764 1.7124256678636571 -0.2742680588547986 0.7047887416891604
P 4.032187406573952 6.507145611259556 7.402397727877251 -2.161208896452633 -1.6338350146429474 -0.7747276327721432
Ni 7.490810394801962 2.643859019079271 2.7388393306347445 1.3078260757704314 -0.9711036071351533 0.2889187188884379
P 5.258811510316767 4.996652179794025 12.467085371166096 0.1637147366845632 -0.10722374357637017 0.5638053851638419
Ni 6.925868846504307 5.670282643254528 9.776206239977133 -0.8516560677990817 -1.5054279521207428 -1.2599685899675204
P 0.06018318720380586 5.774238704932227 8.216395734240821 0.4178942523196029 0.5363447178497278 -0.28870351755383833
P 6.181115913547809 8.185706282140941 5.816139740483715 1.2716789364259131 0.445113235936556 0.1285009077875916
P 0.03901779232266931 0.870662580966578 7.343077753872692 3.003285290983079 0.18625405543765985 -0.30891315973249384
Ni 6.661116171606142 3.8070388050661848 4.645081744762032 1.0293205817955176 0.07355694745154429 -0.959935763443792
