# total energy = -340889.67971195665 ev
CRYSTAL
PRIMVEC
9.09086853864670 0.00000000000000 0.00000000000000

0.00000000000000 9.09086853864670 0.00000000000000

0.00000000000000 0.00000000000000 13.30540502538671

PRIMCOORD
 96 1
Ni 6.499025609361869 1.993136580355957 11.226581833240706 0.5040922855739254 0.1956702065452372 0.8470548215816444
Ni 4.723088061954583 0.4884969159381212 5.994324220117578 0.017000648323054594 -0.20044140268163546 -1.0267615628190898
Ni 2.947532331029127 1.6268836655963683 4.797809547448403 0.4273623397110382 -1.398798904705578 -0.22675021577949334
Ni 3.6438565034607557 4.636052085834938 4.918715372766812 -0.37288657726066105 -0.9643362065043328 -0.11097189776489275
Ni 3.6249838602160946 2.707778853046734 2.697923442381254 0.016852038560332266 -0.03758258623946431 -0.2940077033755711
Ni 5.14138619953483 4.498089063734274 2.4240055710569726 -0.016278682555365513 0.789559298468337 0.721125531175971
Ni 5.096795488978441 4.949150691802844 11.121921390137235 -0.6303164815121984 -0.004266488585837814 0.3322495204655891
Ni 5.832255850797481 7.77349266223062 12.492777104756703 -0.23908071232038824 0.40869201699504454 0.31305957780069954
Ni 2.218044669890117 6.611725107581552 0.32319765191226724 -1.9876170098636734 -0.1835286860866968 -1.1221795720097834
Ni 2.5398705097283862 1.602756500292259 0.179989198620771 0.6780209866770129 -0.3621432227012279 0.9646200562933388
Ni 8.114854778722444 -0.36871835832796646 7.024083271608783 -0.31641975252218413 1.1267209115235628 -0.2641212002287838
Ni 9.03529613511873 2.2700626201049294 1.0533889462820756 -0.22755985616498228 0.3994571286603379 1.0301824155751806
Ni 6.944659988867306 1.0861042551667393 4.758425177347802 -0.34508935254273476 -1.9372863799299216 -0.13787129325889805
Ni 0.5778956088107959 7.240549580547088 2.19410114013203 0.646795195893512 -0.22065695839756191 0.23621624628839966
Ni 8.032746053392106 3.9266643352036086 3.5478996579692477 -1.3420651994589596 -0.5802218788486523 0.8790511719825829
Ni 7.773447207887546 3.978518649783352 12.540836890776562 0.6588919791570459 -0.6556205074946257 -0.4536125316568188
Ni 8.423435222988713 7.404276124302554 9.048380622316245 -0.3778068973804139 -0.41447134268098296 0.1171489731098821
Ni 6.988014341292059 0.8951378326934016 0.32333037859404573 -0.7398974124668354 -0.6486255642340313 -1.1292619327778617
Ni 2.0337818539334522 6.772406210351005 9.196562689826987 0.10373167126271167 -0.4113878186596528 -0.3088241995631133
Ni 0.13671211857924442 4.937941650800595 1.4457917446126025 0.17547470543396876 -0.8320850876456897 -0.8984637721812397
Ni 6.634270461746659 2.1621540096453304 6.895273845116525 -1.4451175852664595 -0.3582886248418281 -0.12018287484019946
Ni 3.7142834626208665 4.568943293719288 0.33252761037180273 -0.1457455538006522 0.41815187685636374 -0.46213933818090736
Ni 6.0762911278975205 5.664147508369605 4.609671294201179 0.08470113699382187 -0.8007022024590339 0.7649839231218181
Ni 5.352312533139178 2.9228324410022752 9.230278903346157 -0.07522687895479947 0.45592009674407286 -0.33047314529145666
P 0.4455371072112568 5.382185127407943 12.123339658721294 -0.8293833724438103 2.092361438661616 1.1836867873856451
P 4.0323275011153115 6.42217140609098 12.332620545106334 1.2149858546092431 0.3745847908986904 1.859113530972921
P 2.0970270268877425 8.626270683525746 1.2585825781378286 0.9911672106542477 0.6945056145955975 0.16735104788556984
P 6.377126152103843 8.2475269152892 5.829750407407198 1.2528209231791456 -1.5866005071360159 -0.0320328600658287
P 4.807487686175891 1.3793484040795683 12.523699694350498 -0.9087607832318737 -1.6433830633426987 -0.2819206903040499
P 4.326008011721659 6.533034548850441 8.159073672752479 -1.5693301500913424 0.08651402183284455 0.3202501820118678
P 4.914769026701057 1.0469589749107129 3.6927553766537744 -0.8637878180656091 -0.0510893624766475 0.2654700009471944
P 0.37327197441720095 5.704138239406822 3.6875399453293713 -0.7664491948134349 0.16616859754169447 -0.5842459124063809
Ni 0.6418625967331145 8.808924415737561 4.524556218619875 0.25663363360248703 1.134553263083788 0.1365299487396552
Ni 2.111354235824923 6.72362460936312 4.753688834799407 -0.58944673988103 -0.5442554880563724 -0.24997987573139527
Ni 6.332762713262829 5.970446144613518 9.010659881172183 0.3120229090060691 -0.2302392027693583 1.7700528314588226
Ni 8.766988238816742 2.7763240024035474 9.944060270779097 -0.03532130100911336 -1.6462578137873327 1.0524857070580713
Ni 2.5258614811927296 5.748974403415815 6.915551027562198 1.1687759317120838 -1.5519170968212175 1.0155636372207415
Ni 0.5573020641373225 0.34469301075234493 9.152109251386683 0.14898205846007892 0.014377351767594592 -0.2888313013809542
Ni 1.5060569308349085 1.1656948098907316 11.26656438249617 0.145273242149924 1.07986769861545 -0.1979309775549559
Ni 4.3904259067272795 6.900923819960724 1.2555616824970768 0.851295084915237 0.22947661357172092 0.7937779645353749
Ni 5.777874274742779 8.206090736142201 8.161774569817986 -0.24510146459317145 0.8542647090665224 -0.7947357004629539
Ni 5.658538442434173 3.0513864140864526 4.495417257448337 -1.1663092153391463 0.5272401844452984 0.12813632535932126
Ni 1.028259058169736 7.476539438922887 6.935136394906271 -1.3854350818041623 1.026927913193625 0.07660833268335837
Ni 5.268812904910752 4.9228962632428335 7.30076931242632 0.3665472653061946 -1.91507744793305 -2.205082200796815
Ni 0.6767415323481393 7.403757944791501 11.155384877508908 0.6704010082379099 -0.3264375417695023 0.5088665670341171
Ni 4.563888770769369 0.6562534417505993 10.142550296118179 0.5086698776422788 -0.14548407260914945 0.5053968633179619
Ni 8.02135519501756 7.381885314903903 4.623841231111321 -0.3349630627420102 -1.0493273639347476 -0.20525347935829813
Ni 7.488103023801118 6.269308450330394 6.901460181209006 0.046611529210951984 -0.09085661507225644 -0.8044308162635306
Ni 2.3525713436543243 5.69382010352884 2.536715069232133 0.34245551446431344 -1.3809194533219962 -0.509138332638265
Ni 2.588706655927962 5.259440219368726 11.381111145218416 -1.7415452109374328 0.3478481462347945 -0.7297806357478077
Ni 1.251439882667053 3.630902015684435 3.5135979925112726 1.3816586454808657 -0.8765044943013292 0.2091232467263495
Ni 1.7342377330704544 1.1578402994074044 2.9345469342995156 -1.4899679088119306 -0.21512291595321015 -2.332485247534538
Ni 1.1772311221631182 3.335548785252935 8.029851520825103 0.04107080189838088 0.8490744231148346 -1.118641476949538
Ni 4.06028192210632 2.8634327054721136 6.598070622921879 -0.24347524184365812 0.510885654346675 0.75016382738985
Ni 4.486098208031139 7.050250427830089 5.681328340965021 -0.5496959423456532 0.6006644629737203 0.917529016342807
Ni 0.5075086494725912 9.216140784476169 -0.18569826411096715 1.1164694089988836 -1.2938040504597266 2.077248237169261
P 0.3890973585021268 5.648711213461399 7.898074834816921 0.1443676996165191 0.11917731639382056 -0.5404481984951403
P 8.608152582376126 1.763228513083568 7.523434684673168 -0.28779951768233014 -0.27380706005798 2.4911287403437803
P 1.8198373519489366 3.5964203510278843 10.159249312677002 0.4083577735840773 -0.992973153514735 -0.0633057020371813
P 4.069672789385575 6.263581203102968 3.6041148622235877 1.7187410685587237 0.1252338070005456 -0.2890110214919281
P 6.830815041202136 4.055972850382828 10.386638300256186 1.9792084740850044 0.40261650022492596 -0.72188734904266
P 6.547661756451916 8.088873076220882 10.206190012770358 -0.5678340467072608 -0.27019568855763787 -0.36677969303197483
P 2.4494800030898194 8.588089035342906 5.739446264020473 0.9346109115257581 0.7179777295756087 -1.391062969513901
P 7.147404540718187 3.7442833290502406 1.5292031914154631 0.33958719177758295 1.3164410711329524 -0.8244278282107479
Ni 5.281540120971699 2.881705351388187 0.5970400690270444 -0.24934095659581573 0.2936045543998814 -0.875324615060615
Ni 1.385157469124529 1.0573771103434593 6.886225703584053 1.0321847907171902 0.07900948592568328 -0.4415645993533492
Ni 7.179631669958228 1.0231590808767423 9.124048467232882 -0.4604082144224136 -0.8274267629380718 -0.3432677259529637
Ni 2.726560587605246 1.8251373283514594 9.141438389806442 0.4199303089130252 -0.13697757780003508 -0.4832681497397225
Ni 6.399498779765265 1.8934461151242838 2.337706864382 1.8491319942801767 0.0849181381006344 1.8107965890350877
Ni 4.181635927247448 7.39818524233053 10.38114287017844 0.9235903920455385 -0.9892013451771284 -0.775630861312703
Ni 8.325408386713578 7.1203228431142165 0.007385421662795123 -0.11609636347565166 -0.6636325791658249 1.0943705202173153
Ni 7.838001465922391 3.981836816827813 7.909172058135206 -0.057810997471197216 0.4784231629425954 0.39268150049940115
Ni 3.3824485764375236 8.507434848990963 12.577732181050385 0.07703359314623506 1.4302807773639432 -0.3253175692324462
Ni -0.0157390208330837 5.042577548558808 9.922014005300953 -0.0883230500171253 1.0515148585043697 0.7649697820544309
Ni 8.898024019032803 2.40860745779695 5.446660294885838 0.2852613246415087 0.6725496791497966 0.19259311028181028
Ni 3.524066127721402 3.001123001514328 11.528694124487432 0.5857330384748686 -0.8610976728279557 -0.2500310406843049
Ni 1.2262581766036083 3.438121055835551 12.61883290714549 -0.20625440981898668 -0.12082205108609516 -0.9887938253260647
Ni 3.2896035352729167 8.499753065011319 7.684191241652126 -0.03992280433686673 0.007051250419826567 1.589059767309786
Ni 5.8242922498907745 7.900337552015185 3.552010548756933 -0.6313181833038353 0.6133713690174274 -0.30165210729470626
Ni 3.2194765747771 8.253363252940003 3.217127494326994 -0.10094999475251645 0.8369784111822488 0.09740444349310322
Ni 3.621774783595013 4.566652394828317 9.122398474579265 -0.7604297280922323 0.337232061281845 -0.2324110136096965
Ni 7.2627403908362105 6.283990203143558 11.319653237033824 0.6684798799557972 -1.0040726058620062 -0.5165860471655619
Ni 8.316990242376123 -0.15674657483289767 2.1827648269691724 -1.1160868288484844 1.4457827296542842 0.06291566568761424
Ni 4.6724428329006304 0.39701277780517413 1.5922447289127786 -0.2087658633869308 -0.43247574967820357 -0.9868019917070167
Ni 6.096772854887031 5.302558209209491 0.24290437304433846 -0.028716908318718287 0.8183268575193325 -0.14441989301069322
Ni 7.926382890597051 8.838433375261728 11.602300160402194 -0.5176543405290762 0.052511953855786976 -1.0835580029828435
Ni 0.47889150415955234 4.886978241345118 5.696350092264384 -0.3540110805123967 -0.2848532905698126 0.6486900989233796
Ni 7.120831931756654 5.916646384150174 2.5338678091819267 0.9051195869348605 1.2760292429748088 -1.0576561955154171
P 8.544943772896294 1.6063201207893243 3.4447692080536725 1.5123383060873308 0.11401068459121656 -1.0427150008245527
P 2.1430177312108354 3.545202397251188 1.2930115157564126 -1.2501893990935695 -0.27600021105455697 1.5187691493143392
P 4.727297134123312 1.291885157135019 7.953890949939065 0.1863052203905695 -0.0918148652204677 1.4010226518297741
P 8.588825395700717 1.6964197196322126 12.169269454224667 -0.35405504637645474 2.0837173898333727 -0.17069193933334473
P 6.529980016995814 7.825528794182663 1.4006864908926069 0.15624259667723414 -0.06828952840501788 -0.759793122949498
P 1.971627585212957 3.110986148726144 5.838691276690013 -0.15475418505716576 1.766126499821223 0.31329354818837657
P 7.013859680764396 4.068363704305021 5.838558550008234 0.39529065598747404 0.9859519850018956 -0.09631301020113735
P 2.437789146050978 8.693088567845717 10.168602907394936 -0.11947607858116198 0.35903630164113004 -0.027911124587971282
