# total energy = -381171.3760580018 ev
CRYSTAL
PRIMVEC
9.25491057858356 0.00000000000000 0.00000000000000
0.00000000000000 9.25491057858356 0.00000000000000
0.00000000000000 0.00000000000000 13.54549713245640
PRIMCOORD
 96 1
Ni 8.335981068495018 8.115094122587104 9.306541668485536 0.6360891223299174 0.7656734929896749 0.6693658821051762
Ni 4.878911102119019 1.5729182926961658 0.013931416586717298 -0.4893431522892088 1.624758506262976 2.17867491444788
Ni 2.711827563380701 2.1932471703669956 0.9008267013008225 -0.8565277940690861 0.0977973080561477 -0.7085183839349216
Ni 5.069987981710704 6.5422221044428115 11.67605601086296 0.7483044055836081 -0.4125221893744121 -1.6536538491410875
Ni 8.374509260384013 3.814920330915966 2.4004516567772654 -0.907284198686347 0.8761933908188135 -0.365136501001597
Ni 8.941751972146777 5.826678708839246 11.927582263056655 -1.3676011389465348 1.7704693501709508 -0.29867297006172433
Ni 5.530706675063109 2.5070904360762696 11.536739994013713 2.184712893111844 -0.2904431259527643 0.20622098547789
Ni 1.457148618821691 1.5245891507205875 7.4999109750844895 -0.7384280270101605 0.4779410810998542 0.4659882796133523
Ni 6.2968651755047516 7.2128699298197345 13.497600066841457 1.310832209586607 -0.8452532495965314 -0.37237132818713936
Ni 8.725557265798729 1.402470608329214 9.288052208539384 -1.798170158520329 -1.612407955117423 -0.7307093182096641
Ni 5.96432699083901 4.1529651872545275 3.730416520759625 0.7524474812177041 -0.6575449782108481 0.047098239039383406
Ni 3.52210422157753 5.397500750043097 10.042956737965646 -1.438344013988052 0.7472363693304099 -0.6862559729922956
Ni 2.6637297941644853 5.723329124687334 12.311163129419775 0.43061915608543905 0.9693467723450467 -0.2521599141018496
Ni 3.224855010169713 7.958824960913869 11.022458506868956 -0.09580855976089307 -0.6379254042077078 1.7681581855392712
Ni 2.961386221628779 8.842724431139752 6.474706607769881 0.6107395878215353 -0.656970593764617 -0.05357613345424321
Ni 3.6327096554630396 6.9716592007294444 4.402232315825809 -1.519780107077357 0.5486106797012744 2.6068348103595493
Ni 1.323840889787561 5.841273702499813 8.558559812019388 3.0895951672249176 0.2733743433959356 0.310469191365704
Ni 3.3177465455984523 9.28313785113053 1.6894755594435094 1.4024277597074168 0.3998391945901049 -0.9240691314541698
Ni -0.03930375337837708 3.717734517073464 8.14046460839669 -0.5838769591027363 -0.17733772678463652 0.018175385357446117
Ni 1.0347822740611667 -0.28465883133436254 0.9665374904507272 -1.0490116324665417 2.3670840685553296 1.9150435093713212
Ni 2.8429603884768264 3.4735992363048362 12.013189258529634 0.29730411473865576 -0.9940224207148559 0.37458093424394845
Ni 6.587432341622187 9.120778958430881 8.155580653511342 0.4529373599666651 0.8736837370230824 -0.4839857446320374
Ni 5.676832454965904 5.602108308602285 1.7625532572515068 2.4536723952695354 -0.1040304334500531 -2.3765192458263007
Ni 8.418201692261972 5.875627929809915 8.97020711958418 -2.028098772027804 -1.1425555645629744 0.46001972073474323
P 1.3259695191736935 7.776373657791206 5.695325616876207 -0.28395648978715615 -0.8357982748312187 -0.8891751477904623
Ni 4.599375789167972 0.017257631375308405 4.49508683161305 0.734592198203838 0.9800178789056476 0.24312248648992965
P 7.13147299307611 0.7666712224763893 11.13175714740959 1.0380201664520448 1.3570213065481596 -1.6359446047867823
Ni 2.6392505562239634 4.888462169625489 6.1350671303737965 0.5021469889220965 0.5816940925188047 0.6058357227620147
P 8.504864673008681 0.3504390323120759 7.145818104156566 0.10115491167447095 0.24417509612416016 0.36804647555954034
P 0.7348195229315503 2.8593045601981726 12.08484540210411 -0.5040159238100351 -1.8005425154072476 -0.14259158155270282
P 1.2725409215817722 6.544471047663811 10.575050225617142 1.0710781253482777 2.8272349155512986 0.2452449321495712
Ni 6.636955367036074 0.6635678189404395 5.829710617477928 0.8480241274734492 -0.2280517081997363 -0.3715256923573924
Ni 8.389918686157536 4.828592154412925 4.907425480982817 -1.3591828329758529 -0.013189244996764382 -0.6006762900482623
Ni 6.0035215362749685 6.93591673686317 8.868480846711954 -0.5519083766159397 -0.4929226421103511 1.9814990698913937
Ni 0.28156769126928344 5.992563722391575 6.627594950683316 -0.40637262483324854 0.29754014200886175 -1.017730562965073
Ni 4.034613393385571 3.0002661001120043 10.020308121297198 -1.6204943316699836 -0.8363713737258692 -1.500118109872055
Ni 4.9800857823329245 7.556606556038606 2.742529803057028 0.6978495913671658 0.30530513066626125 -0.37385665448341415
Ni 4.861308262586741 0.2623230306365724 9.701054434983 0.4039591302957495 0.5047067792294727 1.0553144347561179
Ni 7.66668446003277 0.6815862039485309 0.12022776420186568 1.135625155991728 -1.8481626883883717 -0.5842166018303422
Ni 1.356038722980406 2.4425559460349624 9.906716127833842 0.9501781698363958 -1.3476588914966532 0.9571700277731968
Ni 7.74365754961739 2.3218163852893876 4.134045373975961 -0.5283046211540708 -0.22123648505011576 0.5698644468737282
Ni 5.774545798699753 1.8437354800744437 2.672959716280962 0.39971295342488583 0.10895486733486397 -0.1642047889471043
Ni 8.04788496344757 8.187652619923092 11.936590067324143 0.2901829303128422 0.4178538859999707 0.6779687932828388
Ni 3.483390931481045 2.1240296956761977 3.2012883063921156 -1.5523791240593006 0.01490519924660659 -0.5119269511269958
Ni 9.577906746557982 2.491218264784022 0.805664936357221 -0.6763657104617772 -2.2580888349008337 -0.3613042717397003
Ni 7.011779237202852 6.601305452273545 6.863977393031235 1.4339602830980593 -0.8859373575794548 -0.43344402712874386
Ni 7.054250020911379 9.172504652513895 3.3645662116919515 -0.7279759784389012 -1.3895244213821876 1.6028359951582718
Ni 9.219936068183149 2.9250236787674146 5.895948011028141 1.0277182703054042 -0.231388228772137 -0.07331834907817696
Ni 0.876607526341824 2.2290173989643933 3.1982813860114447 -0.4547461310406297 -2.350686601033913 0.7486396774358397
Ni 7.010131863156192 4.563041011037731 11.98008444412009 -0.599173994471123 0.7398429050798161 0.7263155600173427
Ni 5.264674276348441 5.443395850590186 5.690693534233776 -0.3890619014689429 -0.02955148840487169 -0.6071490422567996
Ni 1.6249679086422884 4.0861077147092235 2.2867782201026126 2.2740769827989737 0.3808312860290345 -0.6327022081355554
Ni 3.372470830642802 1.1516347724494567 11.74665524367267 -0.9820415942038958 -0.6480828043566839 -0.26888776837949174
Ni 6.233024803741531 2.2872307852199247 8.976519893950618 0.4308675246508193 0.6672609199470314 -0.23140391250142084
Ni 1.0525887216216823 7.1214591800509135 13.398230094150575 -0.10513703625067056 -1.2451531222212429 -0.4697395191256684
Ni 1.4978887342901888 9.26231430278793 10.005841770890836 0.20239569819452882 -0.0922241848437444 0.4084847860802449
P 6.923218999829373 4.441783175311184 8.05231066158865 0.28046518880444604 -0.6281948071835052 -0.4284481165760492
Ni 4.074909273156092 7.383030711965077 0.09382813235863768 -0.22982242694691385 -0.5703568131291145 1.129757127246725
P 5.9378579471679735 7.630201603336537 4.863659935312898 0.41162178904732977 -1.086296227849613 0.5851815368467729
Ni 0.5695166432417766 0.546041563076887 12.218932394591771 0.5639110575037708 1.0244061752130358 0.11611641808030969
P 8.025960080770407 1.273901393406822 2.1890602489135773 1.2625967716189868 1.3848074755224926 -1.016488720138172
P 3.14822435226895 1.2727815492515089 8.9359102727184 -0.6045121188545847 0.05068364239779659 -0.18495050613488792
P 3.882286823531867 5.895368653638697 7.856293510839063 -0.39509036705120987 -0.6474120035419044 0.2929980311641341
Ni 2.469589539238843 9.242675382973266 3.7690890892504623 -2.0786983393522265 -1.4364185148305648 -0.004640584095804911
Ni 0.40091253702142293 5.94317026572293 2.2875500796278447 -1.0534575840530371 1.3459303388413206 -0.9054751705020664
Ni 1.125813572504634 8.541597412285025 7.92091869900204 -1.4565461388183754 -1.8939118695990285 -1.2163747645369696
Ni 2.626941525425894 7.009511784161102 2.1419490531432817 -0.9384673091573709 -0.11101792051147977 -0.11433412936890633
Ni 4.703715648729954 1.2925222730802925 7.20010925939539 -0.7018903370954428 -0.8339843615509315 0.46524420235847613
Ni 4.399617803645016 3.6404560154464862 7.193769645788866 1.0106579723890077 0.7180720890616279 0.7441145358719765
Ni 4.692720815205061 2.385027423147143 5.037136751845421 1.4342868131995428 0.584068249177936 0.2545662095504971
Ni 5.5396561733952385 9.25851978953439 12.18806171554663 -0.48967456748669863 -2.028189531969397 -0.503747757750313
Ni 2.60946825463886 1.5152787108838526 5.480508041191883 -0.500208634248803 2.425994469738293 -0.6191784626175078
Ni 7.042625853481021 2.733132367062773 0.20525447679436495 -1.0641425745707092 2.426886899645575 0.5956407845068838
Ni 1.3022676937046287 5.531150910761084 4.305856306641075 0.3561047298166319 1.898795680053891 0.22672810429230628
Ni 4.927804793627439 7.612830136563622 6.99303896918555 -0.4014260794612506 0.9643004681703908 -1.8059981392051803
Ni 8.409196664467595 7.7317187152343 5.286793512143468 -0.7620055572197844 -0.18710251948088422 0.4228477396701363
Ni 5.817979093087226 9.054319447031679 1.2815052277705017 -0.16184837289978576 0.321576099912143 -0.4029389165613513
Ni 0.7980583255204291 4.490926749399718 -0.10672762643859954 1.1743233438928744 1.163369673094848 0.9512518625165487
Ni 4.007052270290344 5.239436135757211 3.049999211991392 -2.20403190515543 -0.9365106996516324 1.3669501356260974
Ni 4.875810707143565 4.440256115099395 12.961455704919048 -0.30773816558778616 0.048994427620831754 0.26088289579714424
Ni 5.612918043919688 4.6542666625990625 9.84658697513079 2.4347367347072972 -0.13069662988732975 0.04623049172244941
Ni 1.0477484034958249 4.504300094890853 10.688575583725804 0.2744035559913984 -0.45228327132243396 -0.7564712576651166
Ni 0.29517888795704345 0.5819543172940514 5.16403082799003 -0.1095909582569661 0.01454035970802012 0.4614716226899214
Ni 8.13135500011508 3.3691298079976115 10.402928327963446 0.0896674798601617 -0.20264046721548326 0.1773608667130881
Ni 3.3948677137490635 7.9686444208212 8.784918260940698 -0.7028668420760992 -0.9035291025192891 -0.9094349264807629
Ni 4.525466074917309 3.504991892295101 1.6084330857672275 0.24556143494872548 -0.1353850365019346 -0.6907464046634814
Ni 7.301346872999843 6.506359326741669 3.411663525096685 -0.33199395281135724 0.08858401698799583 0.0001781774490771125
Ni 8.208735305756177 7.52723147050998 1.124307798586705 -0.03698840429889114 0.5970160675878557 0.014473253915510556
P 3.334886639612005 5.3120594174658216 0.8019666741715755 -0.22963319375424324 -0.43434057080108424 0.9319325933626467
Ni 6.509589290462366 3.156933222931343 6.18731202492882 1.4119956059015102 0.7557804022456791 0.6574092239639323
P 7.0956194702853415 6.756852730937571 10.74061687025259 -0.44411821901313836 -1.423261922843949 0.21819718400315968
Ni 2.3757540029519055 3.5950606800596208 8.236813778341338 0.02869582527279574 0.9992247908514018 -0.15028355088032183
P 1.8614401236208398 3.5677772042756293 4.603843134405738 0.15274075417156274 -1.579371079267112 0.037225974230993955
P 8.212955544886944 5.386774308919066 0.7271981042381591 -1.2493147097981 -0.2164200374980789 -0.48748630158612816
P 2.609125822955004 8.737570139464816 13.097547310993823 -0.799768634901171 1.7246240097020622 -0.8510940246480245
Ni -0.07168020634144964 8.212159622594738 3.149815271362324 1.8242336883766002 0.3658993473095505 -0.34409433561931707
