# total energy = -340865.6542735134 ev
CRYSTAL
PRIMVEC
9.31842834442474 0.00000000000000 0.00000000000000

0.00000000000000 9.31842834442474 0.00000000000000

0.00000000000000 0.00000000000000 13.63846180323410

PRIMCOORD
 96 1
Ni 1.5088398688819253 5.982971273064422 12.484497225448889 -1.9141091704825097 -0.8440466308829399 1.9985328854452291
Ni 8.902639784661647 7.960388296138093 13.105115715291891 -0.16508204934573506 -1.5259576966429784 -0.5377197438203836
Ni 8.93310172593743 1.2795972205718693 10.040581057637281 1.257268417427538 1.3120005188630954 -0.40354543979709856
Ni 0.21386724203748186 7.367121256289794 6.024013357541345 0.3093900993689123 -1.524201376073504 0.14878228374444696
Ni 3.2040669354996227 7.667053499741513 1.1523522219456561 -0.4215878991211062 -1.8655736847759676 -1.2048060858627638
Ni 8.779422210636042 4.553421908408758 2.4346834693056305 0.7122863356177862 1.3617678200942096 1.6322553288606534
Ni 0.4478939713053192 7.937921566124047 1.7883703459741462 0.7390731167933271 0.8576120282722004 -0.5834355006899435
Ni 1.1283777702740934 4.830579913720981 7.2904939587985025 0.8634584597506484 -0.27831343256876584 -1.3659787728517636
Ni 8.251151206394532 2.6337139102114806 4.725713120042395 0.05284439749454124 0.3408285203838517 0.6472975894512272
Ni 7.44251665759367 6.896727008629471 1.4978441237900237 -0.6520608151678253 2.107217786948158 0.26502597143124035
Ni 9.043394640266028 8.37896276544582 10.461558749537552 0.9426114132327315 -1.0035573567884843 0.44329495178089456
Ni 4.9593233155766665 8.8817199137029 4.025105243869833 -1.1598472617638864 -0.05700187130634054 0.006028208471950909
Ni 5.187261383960565 5.973680800304569 1.8739927220562953 -1.6328507963528072 3.5072179110506885 1.4723381115453094
Ni 7.0097036302347355 0.0889443956798294 9.549036773845526 -1.317626606800621 0.09045012366245714 -0.4796722048583481
Ni 3.479612852760236 8.108355615048518 9.181602769485988 -0.07852586142104541 -0.8172215402702957 0.33635505799353044
Ni 7.918036040678184 0.47786762695159885 12.036582753601873 -0.08287256842551534 -0.18012917348684462 -1.081127282054164
Ni 1.0747036247407442 3.494950985320634 9.68168459705164 -0.9303536789113009 -0.6455407546611205 -1.4651022559185025
Ni 8.838771278848178 9.26110107465763 6.884995107722094 -1.1386644570386841 1.4175941830352103 1.4289610301112552
Ni 2.458611328836973 4.126265166872521 11.382946277670623 1.1435634370021983 0.9420475703094614 -1.3350486589318105
Ni 3.4911397482506445 2.4918781169539965 9.493964864105578 -0.7639508538716133 0.875768387466253 1.6982830578146881
Ni 7.474972742470866 2.479717568356597 2.280336754556293 -0.1649501517535611 1.158576879691895 0.3542211396406738
Ni 4.853643023129842 3.0594915243972074 0.5274155725470717 -0.21727955728489676 0.2551909876186895 0.04016860179908566
Ni 4.984250110594325 1.0176189345432969 1.9894965013470884 0.48198388371066025 -0.011553509165554296 0.03956747787997701
Ni 1.8310058816465917 -0.034080286885263496 5.984379287541867 0.5236460393361368 0.05401270677102957 -0.2116583544433774
P 5.327130988900768 3.8558071113239234 2.6050960858456005 0.13384314593611144 -1.5630540872746437 0.9358800080461689
P 5.106479931247265 1.4047903013427974 10.525810242743626 -0.6606274737909139 -0.6222429604754446 -1.3051976370086489
P 6.0762860114968795 8.65976427612324 0.7636936340303357 0.6818347039961483 3.369337618930726 1.9767798100388536
P 1.7020481559458942 7.658247585239948 11.371640228924857 -0.37624572354088104 3.0944424680148903 -1.0002007816114258
P 7.6992579870615225 0.38869120241347427 5.161203331778367 0.49451466918781933 1.3418597683163729 -1.743159092391772
P 2.7466625765326134 1.8707676141102723 1.1289620357124512 1.2267231976508293 -0.021444285916705004 -0.9140539133100128
P 6.721820114243886 7.384406940311385 11.78323519562764 0.06225592061642826 3.3119706509754834 -1.8882119910007742
P 4.403488401181052 4.693748116323116 9.933941898944727 0.7446850636634659 -0.13086400870312945 0.2863926100324745
Ni 1.251436931022949 2.4016570966321416 5.5299186199939525 0.1612055971094643 -0.13503870890610933 0.45997524065005296
Ni 0.39885853925226544 0.25009356290127494 3.64517895487453 -0.47525453540662665 1.5491698730933836 0.7420483973715671
Ni 2.74527413075406 9.432299234681707 2.5531877824265865 -0.5861212750522229 -2.54627247539546 -0.7160946536202828
Ni 6.181668114246297 1.730301629775254 4.126207392618649 -1.5339741391895518 -0.019697992649559626 -1.0315183607777847
Ni 5.1033023472842665 4.616069700148463 12.00636029592682 0.02301780105141197 -0.5239484010679042 0.8214731164577981
Ni 3.12070427821814 3.240697676140525 7.251174851666911 0.2847219071982709 -1.0112629529628583 -1.151129165164598
Ni 8.525383225300944 4.90359911587364 8.276159071736174 -0.9315145319886217 0.45462477497141707 0.3473681212745824
Ni 3.1204526806609527 5.311168521661423 8.287152021299661 0.7030180229419828 1.224311759995859 0.9192280013117846
Ni 8.806389741395332 2.8699174242703926 11.850841322929549 -0.6177823536009296 0.6502088495607511 -0.9985488478302997
Ni 3.2684293179994217 7.013179403895141 3.2677751643507342 3.3583142712370293 0.2524648469367781 0.8603924192308149
Ni 8.572441286923064 7.183277989410029 3.7280598494261388 -0.19562726912244374 -0.4415077779734848 0.67972665651421
Ni 2.798817818294793 0.2890939797937621 11.083459455079405 -1.1631472726713967 -0.588267117750632 -0.7875276127502888
Ni 7.445834017977328 0.9601894625082221 0.5932092655944268 0.5344421015103764 -0.09692596119478791 -0.5736637660151604
Ni 3.45361443851752 2.212958928741461 12.213651523293663 1.817036913517845 0.18363075888219987 1.0285978446968802
Ni 2.2115052539665996 6.212745071772984 5.423388486909516 0.7010984373217668 -0.6964421694966779 0.34009318487972395
Ni 6.371829275339882 8.110284529653624 5.859464827769455 0.6614630823183318 1.0162766041273659 0.35013000029043573
Ni 5.66785931032905 7.246317155127582 9.806599056824053 -0.8876743948752196 0.03933067927882258 -0.5162332918118335
Ni 4.8926499629219595 8.684569931576327 11.5499492813893 0.5956150734752711 0.08022407505907474 -0.8040883453224474
Ni 3.8921303438393737 7.982603428594952 6.422255948699903 -0.18228607192884735 -0.09060233296960526 -0.052656706963767376
Ni 3.564000537126557 6.444727337927971 11.468336624894476 1.03537990061572 0.34774761610118815 -0.9666226885456642
Ni 6.822878466380895 4.180833881498093 9.743834784733798 -0.9518036212549609 -0.7742550640110988 1.244821449913437
Ni 3.633133954784876 0.756916341313946 7.952218830271932 -0.1495919241299359 0.1728670926077926 -1.3568570130561537
Ni 1.23661131200497 6.246850518413966 9.672191914403234 0.2834821212538989 0.4130227831599145 -0.11333371312884996
Ni 6.75971816109877 4.77732509744961 1.2894132526734023 2.424765482427198 -4.045518724185523 -3.022812048162097
P 6.915177496156559 3.3047339136587843 12.941236248653558 -0.6552628670448908 0.05112381525900873 0.5191419808181963
P 1.2704744795168086 2.1217501550469433 7.883030433888154 0.17737835021458484 -0.3000060870508511 -0.18149005839011323
P 9.11873413100164 4.956583697731736 10.641955129883845 -0.06940358740480304 -1.7284058453419977 0.8834595854629237
P 3.9113169871819373 1.2735216054871916 5.137513092162146 0.9452349668985075 -0.6431655695607247 1.8800816485841556
P 1.4769801633995432 2.104361968316869 11.629638614335843 -0.8212854259270242 -0.25762427965053053 -0.9199700216841318
P 9.414501037117699 1.3647117423256212 1.6435573149566096 -0.36125310678679073 -0.46183826200072076 0.054870683895950664
P 5.431926030683414 8.784510072348057 7.668851956354002 0.02435451758496451 0.7467594296939912 2.027341067926173
P 4.45409678388793 4.9357197373412545 6.580489379786386 -1.8383924963754856 0.15465545469577235 -1.9307786607183908
Ni 3.8893348154261784 0.1112107794909297 -0.01651877739357083 -0.16686819471188036 1.3695217530080157 -0.3434757281987117
Ni 6.817566962395824 5.178120006049416 3.7147484749653072 0.11947993523590392 -0.6283033077369115 0.32257805881409607
Ni 1.2010708274452144 0.04851546376819945 8.656986452723329 0.7661866851806676 -0.5411768491310487 -0.21308994468358136
Ni 7.784214095538528 6.381539077361715 10.00093394183854 0.06312906725000095 1.4825129951957823 -0.1978114212579561
Ni 4.882884250331864 6.374829809170046 4.920675135264242 0.12625376362462773 -0.34046213818336846 0.5700626789274633
Ni 1.4086574489810508 3.1283733444983386 2.42287236175988 -1.9077204933473468 0.4645695448889547 -2.043012713025159
Ni 5.464298249708215 2.5624745278152212 8.26629831118003 -1.4856001187615382 1.0229810127307348 1.4866028489944396
Ni 6.093403963813678 1.5140302333024245 6.42757490742741 0.024170940819248695 -2.191351224363968 -0.06576110555620933
Ni 2.893986923908004 1.9606624894505882 3.4889499176603085 1.4175890408288876 2.193549003346235 1.897589575560932
Ni 7.23248860791031 9.359335943097312 2.8214289839435205 0.5303638176759446 -1.4026553023371908 0.11420223177673236
Ni 5.723658057456429 5.549971877144606 8.045737642278553 0.9485545181900437 0.29313584229357903 1.2153553221335198
Ni 1.4043150615125541 5.9637100822975055 2.884712292475826 -1.8933313145052102 -1.7280626030699657 -0.4631531241574023
Ni 9.062292412339227 3.5432111241604285 0.4455699553511495 -0.623063656604527 -0.299150166808459 -0.10942949297843735
Ni 5.757493269684135 1.3692032246428216 12.48936610410187 0.8607228059870402 0.9245846376380077 1.2530651779794677
Ni 3.826295649708625 4.340458553891542 4.178428795219941 -0.34687446946761546 -0.0355904955101 1.0903421157842124
Ni 5.695041164933353 3.611310196305865 5.481788939146774 0.9986380651099963 0.5635989255799907 0.42386203986726356
Ni 3.3464152422995257 4.732671190262838 1.970553068976473 -1.5488973361582872 -0.9436617088741168 -0.879469490466924
Ni 1.2666073318785551 0.37717735272232733 13.047016248280455 -0.05560730495165907 0.273782891688264 0.5747863096553779
Ni 7.276974783392291 6.031315277756612 6.111108045254444 -0.09109932721068181 -1.2956814699880976 0.16532758969763786
Ni 7.626341287617347 2.249366027109307 8.29968530701882 2.1301412285135504 -0.2665020417561345 0.07655433951697138
Ni 5.243908108039944 7.203079649003496 13.400551817212389 -0.3655496772796156 -1.9603851707309141 -1.5384663706329504
Ni 2.1301646955706612 3.9382845179412276 13.632419466702435 0.44619747013967026 -0.7223848575043688 1.1971493406484544
Ni 7.28674981441043 5.674074701834389 12.546839372748755 1.7275776930137474 -2.4749385037371634 1.1128981467078576
Ni 9.097702438906367 4.95273518694957 5.142764026364931 0.5291834242145983 -0.5432776975241352 -0.2753870029505902
P 7.522440814926923 3.765977464979915 6.772341835569956 0.1308802066530456 -0.3420063427420368 -1.6139344190642786
P 1.621658077210442 4.138947547440384 4.2683879677137595 -0.14787931231420337 0.6836743283080483 0.5769174970657677
P -0.07029263010699058 6.0383040987896 0.7111582004039614 1.1385497858376907 -0.7738696556472221 -0.09395222327844464
P 1.5919602470342644 7.844485688127017 3.980017097936211 -1.6553253233062395 1.100124649092273 0.9671883312411473
P 6.395591266852042 7.2844202073994335 3.6137693294666726 0.21329666137774878 0.09723500779477447 -0.622857711241308
P 2.153945323938909 7.334795629405213 7.629368844888837 -1.4162235279399287 -0.07942034821085678 -0.6734665345371111
P 3.68167364646599 5.785998341070683 13.676240306422077 -1.6552757010152268 -1.3681768089443471 -0.36348816676489654
P 8.014509726217554 7.1903879500075885 7.795444665017137 0.18489934118197834 0.18495436278962984 0.2256014468870308
