# total energy = -340891.0183962584 ev
CRYSTAL
PRIMVEC
9.08814686630360 0.00000000000000 0.00000000000000

0.00000000000000 9.08814686630360 0.00000000000000

0.00000000000000 0.00000000000000 13.30142158280183

PRIMCOORD
 96 1
Ni 6.577428286287627 1.5995774989873757 11.55679406770221 -0.5424562300641045 1.0016933069965521 -0.21180876397831264
Ni 4.886742113058043 0.4752828266179345 6.002585717479571 -1.2493113673639904 -0.6498519804419647 0.12180344116275799
Ni 2.6817213453084014 1.3699200228676136 4.92273662829033 0.7936846334906202 -0.24887327293077782 -0.2746462681298238
Ni 3.3094941913886826 4.274419116973947 4.798448037959257 1.127331034303736 0.7168279322418816 -1.1138916209693783
Ni 5.1057755452686635 4.559705141227032 2.724477441950785 0.41716714434559116 0.4680359061710004 -0.0924301302069634
Ni 7.273998405586214 6.145695860364822 2.743511657146085 0.29833615554759585 0.47051856338353804 -0.6682672497243588
Ni 5.015693831643848 4.582343715544971 11.685698527923321 0.9503118672007828 -0.39712153854862575 -0.027113311277024276
Ni 5.619246765818344 7.953782717271299 12.225562636340015 -0.39295532298607805 -0.051823412429194624 1.147076078141147
Ni 1.7018373296680076 6.554653389763839 0.37972913965035265 1.2274302510201829 0.09777776767212193 -0.09828967431153394
Ni 2.6072803327679592 1.5719858845236008 0.12477026212507335 0.38115190259324677 -0.23689450330234685 1.2684591439370347
Ni 0.7821204828009918 9.105414535986931 4.491743977537931 1.1207065870086828 1.5568304749624349 0.020348481749364954
Ni 8.687877795766502 2.025011838999972 1.2402621552555118 0.18121032236616536 1.418837054303376 0.14943868638152327
Ni 6.892296229209879 0.9033381882416482 4.949738422010134 0.9119569215716681 -0.24366781747043842 -1.538681829077866
Ni 1.0012320730762994 7.392280639527595 2.61959568084433 -0.3748395872219738 -0.6579476129659055 0.002493198735498932
Ni 7.721126152622865 4.142450133565357 4.101467134413712 0.10651643309670043 -0.8142128353509591 -0.30526425012599684
Ni 7.402650215319152 3.923480318384132 12.802219199300565 0.8995318084344379 -0.7226797630369682 -0.7199525939137923
Ni 7.910532225429037 9.000246498248194 6.957175602232093 0.23420435806469342 -0.18356416731032257 0.03295048678409164
Ni 6.773586852356837 0.6974480343042525 0.43335738661652223 -0.24499964890798448 -0.0663311191270664 -0.16162314426285715
Ni 1.916317600203282 6.310473054647662 9.307989333878085 1.288810453899877 -0.3319895819359831 -1.3352867430845454
Ni -0.05774154232397741 4.7055244607498485 1.5529680279930027 0.5044267860952086 0.1405257001626096 -0.07095216283884556
Ni 6.560796977174086 2.2287135671261433 6.858904559294594 -1.5622390475725159 -0.1332340515972028 1.1986215543186067
Ni 3.289854705599414 4.224316162251024 0.2805638230424862 0.2402089123875605 0.26620765044416733 -0.23067191943140275
Ni 6.023087668424508 5.8725606887263835 4.816657958216524 -0.26967863971190326 -0.11844069533811215 0.6336967108383409
Ni 5.177671876633264 2.596274586682442 9.834552939077476 0.9822390549266825 0.3988022686851584 -0.7365909738014217
P 0.1210114045024721 5.582339800621575 12.608324490663147 -0.48954549810800213 -0.5682796188851117 0.20197120906260058
P 3.973119777607169 6.182248387826384 12.775576387389497 0.5765935380674456 0.9107603301604057 0.05308916651549567
P 2.3865019763224757 8.630268031574845 1.2319946678781415 -0.6234511218509328 -1.3323801109607118 -0.2150357555560426
P 6.378806832366084 7.867717964645492 5.823601931717884 -0.22037233727760758 0.05715690882696608 -0.4759363919649997
P 4.667944972670893 1.2374875439591382 12.64544866257457 0.3602951137488956 -1.0166234459438233 -0.3245007297581056
P 4.123037851452503 6.117958835548141 8.22569280668651 -0.6737501272158009 1.1902688114785371 0.40764712067029796
P 4.6940188665762195 1.132810266161456 3.8017191417494924 -0.25624256881165547 -0.8123600984129363 1.505699974835207
P 0.010127831079852117 5.877241084460521 4.058702858438978 0.14106563182647963 -0.21497584885238463 -0.701910648810417
Ni 1.6217707540995427 1.1514409676274442 2.3809145835120904 -0.10179923012668919 -0.30814594254916605 0.7031087828835761
Ni 1.9007859568835879 6.443178177967836 4.947437303175408 0.2921634510779807 0.46581781547375906 -0.1711411110556214
Ni 6.18374793209072 5.718316656882117 9.220732216358456 -0.4295989423510408 -0.3431782515629509 0.6898112944437217
Ni 8.39448514433895 2.320558381279935 10.127276702881666 1.31692469563759 1.3388983716952036 0.5300401157879387
Ni 2.5968016992117238 5.025000094229785 6.988380663965565 -0.019568666160546942 0.4765344305603148 0.9269161139846618
Ni 0.45286782071758697 9.209473819784765 9.259265959878354 0.3448713229946576 0.05127268213204718 0.8927662075758303
Ni 1.4682355977256898 1.2352700360773325 11.298547098571861 0.6924878128346202 0.9238184488959446 -2.274773494645366
Ni 4.060138785673917 6.822571964991801 1.5495490670703174 0.4976802113999946 0.9951020269322797 0.007504793017477398
Ni 5.636950476284562 7.879896081701308 7.8917733810895525 -0.13075139438466515 0.48559576943163474 1.1086547980504713
Ni 5.427123337042255 3.1030932835867073 4.729599871117433 0.03176855066084851 -0.44734212526707473 0.12574751341217053
Ni 0.6226162314403776 7.503628617264806 7.063307892373533 0.3289129998931884 -0.9220094207116636 0.03116074187352053
Ni 5.123706459411295 4.410314179910979 7.529429866758436 -0.14327266678012743 -1.3276562231224813 -0.9929988645463479
Ni 8.252246554756423 7.296455216963022 9.020997464422482 -0.19079436651017462 -0.07245574396756554 1.1437999784930364
Ni 4.611889281625911 0.24385316182213929 10.443877755447607 0.057429959982694644 -0.30635619763859495 -0.3099863381920145
Ni 8.230462266261803 7.813879781482315 4.611017728323185 -2.117113705905631 -2.296250433572219 0.46881160799476035
Ni 7.417282132080246 6.309000774824496 7.090921318390244 -0.17823195646413173 -0.559646625800462 -1.528387903351026
Ni 2.6287192716744303 5.119525911765268 2.4006404066983964 -1.0428191305025847 -0.06894773081430705 1.0404881683765628
Ni 2.5601946428678213 5.166348045400765 11.437586660390469 -2.1630438927788425 -0.3609222058099333 0.4112404944485111
Ni 1.2414045353405239 3.1417360848712828 3.675701985848256 -1.327935444925797 0.5927704049376242 0.31306600555860276
Ni 3.616473622665822 2.67774073689762 2.802622783231489 -0.2933196761696109 0.3704394012717491 -0.5441601001290887
Ni 1.1432434589824094 3.240415185611622 8.000074103118692 -0.6286810027913043 0.31225250851837194 0.7062925799281965
Ni 3.570378540794852 2.479591866623019 7.086878001764772 0.3685074743563589 0.5753923186704929 -0.4077728476148848
Ni 4.023940695947561 7.035516338674514 6.1849221206904295 -0.10318042674493197 0.286475656664584 -0.7082322201530706
Ni 0.6218255626464552 7.132105165591839 11.094676330910437 -0.5287728190397409 0.5900316658502226 1.3895976978222842
P 0.24039421305240513 5.529964809134508 8.203053323553865 0.3001408128565024 0.37483881589102547 -1.1894877103381385
P 8.336093799500425 1.762482534976562 8.01753879531732 1.7298217518529175 0.5729723963750906 -0.48802186237462397
P 1.7918190736752004 3.3608785748465824 10.197734380567208 -0.9971702223152181 -0.10260141431301038 0.6738529713422524
P 4.035473554562361 6.19894331396932 3.9079977510585437 -0.5155159540298347 0.36283587789287836 -0.370805012141284
P 6.8252984091087745 3.8687060560741275 10.577330833270535 0.2449230300337782 0.6453021562877532 -0.542653176566259
P 6.38957628662813 7.603789085975369 10.169083088156636 -0.5093594475101357 1.3122586576204884 0.643312379551234
P 2.2410825352701482 8.498017315607502 6.074227580726586 1.2908315980949638 -0.2924303315861222 -0.9330926751090189
P 6.91224471199907 4.026994313358572 1.5997220005255754 0.20332592331828206 0.2883798156658324 1.1285062855587595
Ni 5.25443945482019 2.9476405281839155 0.6984241012981293 -0.06555078931761614 -0.6356245239886731 -0.2859447238617785
Ni 1.3398109916691658 0.9105868943339761 7.313188313323597 -0.017078295638525427 0.7711185752646462 -1.3514026748098018
Ni 7.0556284081107234 0.6073081565382752 9.220772204205504 -2.3674594496168777 -1.1955280029949475 0.4284031222707267
Ni 3.0202729994600985 1.7541941448609617 9.360689681029779 -1.149383129007769 -0.44176051741423916 -0.44897991798081377
Ni 6.390366955422052 1.6655937992063687 2.6480733896461217 0.1884649470460496 1.0864407238472773 -0.6957438578780727
Ni 4.102862164986897 6.690557540847927 10.548865847874623 0.5963555511857214 1.209813309269368 -1.0042674954816317
Ni 8.420259129391408 7.290993240582018 0.611277859172589 -0.32980645824173527 -0.3276762992726099 -0.550411223245123
Ni 7.668442164135874 4.113822470337132 8.13282194073003 0.733298419093079 -1.311083920586097 1.0877545575626943
Ni 2.993472053790246 8.432828036770657 12.244596851535315 0.7225131555521169 -0.3341570219009471 0.5131682797332646
Ni 9.067698725702126 4.9312831217823385 10.344795140977956 0.35392366300491307 -1.6820354856075743 -0.40913810339352763
Ni 8.734245522049171 2.492787856149172 5.915953864477434 0.8197605046420656 -0.6037677844893924 -0.8951717316935293
Ni 3.4027567564833006 2.803593397337132 11.629206605819624 0.489195570967751 -0.04681516058132582 -0.7029429467296733
Ni 0.8200053326210488 3.3117298755646005 12.613379318056019 0.9545351612535109 1.5477156571453603 -0.10616342063265587
Ni 3.2878553132469666 8.702809621380462 8.173165134328892 -0.562937637846908 -0.9984359764015194 0.07933113093116015
Ni 5.646302179605781 7.961698493357579 3.5793730799367482 -0.21388724377389617 0.7850920067256026 -0.026845659437934415
Ni 3.048209963512024 8.229998770761918 3.598353675064414 0.6442899129731549 0.4423593273405027 0.3489861164939796
Ni 3.573386717470579 4.276836564090996 9.334219543912786 -0.22893282525310896 0.21804934557138575 0.4042396376506458
Ni 7.295273757845666 6.03641998015651 11.503907413535858 -0.26775648298852595 0.35001147243470043 0.19666805168213228
Ni 0.711337449450823 9.085138879903703 -0.36588880049788786 -0.09830972891619198 -2.231891350569859 2.5339748889750293
Ni 4.327766540196068 0.39771185623120636 1.7693022805278193 0.6991577686556282 -0.16906545947351528 -0.9750595064591077
Ni 6.216456173347349 5.8471684058503 0.4039054284502653 -0.9998392845069489 0.6848446944670656 0.5323934465114637
Ni 7.897418029226393 8.707980777055656 11.463405177363507 0.40038066891587176 -0.22842940325412917 -0.1679956234481042
Ni 0.34546591643234253 4.77374918070359 6.0414920750287875 -0.6703832676260971 0.9226506538400884 -0.12778305578496055
Ni 8.31307352300611 9.015032913509248 2.443750941075986 -0.5563075341249 0.11456038644709947 0.01123366393229033
P 8.327514588679016 1.9159268098798492 3.5351856001329534 1.330847219255953 -0.4437883464775454 1.0377913382706903
P 1.8091319938179842 3.2218753656162002 1.4251805010451448 -0.879077397234828 -0.1544911612037662 0.875568612750621
P 4.926911723048123 1.1103171021964222 8.128432365701704 0.5665358967211276 -0.11829979888487369 1.1808076660656375
P 8.654942350833458 1.6374114551839158 12.368620067972339 -2.0687543407656372 -0.45960654445672455 -0.4892369657286478
P 6.495762196837204 7.9756306227953155 1.4890938040352453 -0.6505158392782088 -1.2475442481612387 0.14802715074597733
P 1.916035867644528 3.1654016198066155 5.8274198622963524 -1.5911325906784146 -0.4631307555598992 1.2093978189985042
P 6.746922228892833 4.302928634290437 6.197132046260943 0.8843998378890059 -0.1416652130836915 -1.769849457198765
P 2.2087196436016687 8.248420444845603 10.228301454377307 1.211256726584114 1.5961027901994964 -0.49441388194389685
