# total energy = -381163.0133934703 ev
CRYSTAL
PRIMVEC
9.26505006340966 0.00000000000000 0.00000000000000
0.00000000000000 9.26505006340966 0.00000000000000
0.00000000000000 0.00000000000000 13.56033729342288
PRIMCOORD
 96 1
Ni 5.877025007392151 3.197489179590377 6.265228746825323 0.26286135967975377 1.5731356398803618 1.3218781829881237
Ni 4.3661084584935 5.567516749130664 7.460599004417257 -0.309769337085202 -0.42759990964314093 0.7209962046869584
Ni 8.20734257289398 2.6512866905378303 9.947551504187441 0.025549566334330195 1.5878693465461104 0.43736418811875644
Ni 9.133412109444608 0.0051337641711874885 8.729792253417969 -1.7801055877091343 -0.24839504774277865 -2.0400747134427575
Ni 7.654478512935308 3.582118462757093 2.4526171512013275 0.11889269527386621 -1.4388790605559154 -0.7290596984213831
Ni 4.800935782229597 1.3453686365889985 13.488399728496352 -0.03840019704475322 -2.0462813564741014 2.3595880172886012
Ni 8.869914089180083 7.930595531216718 6.823738001711813 -1.5895565044405464 -0.5755738385536797 1.0607723725468956
Ni 3.6826998448946333 9.203789428781082 9.193799851936875 0.18066422005470822 0.9756084369840424 2.208497911346584
Ni 1.772487438775866 0.6338813626450671 12.657775030397096 0.08333228167075327 -0.033346436670929666 0.898740165771078
Ni 1.6511152845752592 4.304356900650213 2.6543951147923575 -1.1061955378767012 -0.24876888614242962 1.9859285664176571
Ni 9.16627524157816 7.375841401070495 12.17491768777734 -0.765665522569875 0.785506468555202 -0.8990196446847097
Ni 8.153633078397725 4.716318081136914 11.850812343336996 -0.0744797163761298 0.4676906070164398 0.13791885866738182
Ni 8.913848955990716 4.760706935394556 8.507959162729028 -0.1662393028786298 1.0033334137031367 0.033503531074084235
Ni 5.549292395900695 8.379274104611586 3.4432270256268738 0.5418759320806023 -0.3249696989747242 -0.3669758682031809
Ni 1.851444194355833 6.350524649573539 4.158521308590731 -1.021667179015318 -0.5673753619032873 -1.3415851744987477
Ni 5.915864096736344 6.3561207397366815 12.798178523677358 1.6067623267958713 0.9890982439403609 -1.0465300036952687
Ni 7.135098343456102 1.3090218456783893 0.6190146635129837 0.1262285668136471 0.16382375145860173 0.4087884333635928
Ni 2.0688022659242473 7.3138860121285525 10.727501011645458 -0.4983582113036256 0.6476228340011297 -0.4202334419757408
Ni 3.0982326995941096 8.432492551461074 4.041780752854619 0.14119033032980202 0.7046347326097994 -0.5428928033808909
Ni 5.524573242663503 1.6172144668485404 9.927292545990873 -0.14227430742260014 2.6013748156862424 -2.2688548151680856
Ni 4.7706298038792 1.5409353107009376 4.64190675905701 -0.8453848900783891 -0.45070281420919156 0.5199259101720723
Ni 0.639238414519784 0.12722118022708312 10.687959631515891 2.0418045516496703 -0.5348915303429692 0.9155628937553716
Ni 5.51653117931647 6.059750322288665 5.618061302567763 1.140305592186533 1.2240379375091823 -0.1820202198619704
Ni 3.144891491086801 5.327987413058276 9.48784288884022 0.07581000515177912 -0.40443349882900675 -0.1859997733350087
P 8.449327147200195 3.185416819519889 0.3157593874553139 -0.12320134995154912 -0.730467120291871 -1.387044335272811
Ni 6.260246002968141 6.402223628233034 2.157924634297261 -0.4755047037442198 0.6882442070669179 -0.9428428125172472
P 5.914909796592629 1.1489310477827954 6.403909867321928 1.7541153342929596 -2.1781889759503974 0.2240546712252012
Ni 8.587496836940169 6.757806979841056 4.562090206842705 0.2941681402128353 0.3457673524463658 -0.9494268934926682
P 2.092965516165101 7.854446085768261 13.344090090161819 -0.7336933405386525 -0.4405171319254413 -1.895759978551361
P 6.845602593062807 6.310768320285386 10.564194314916046 2.725488907260048 -0.902939034343774 0.9455046756201265
P 8.672058947733218 6.437616118999928 2.306640730382772 0.08986931145832264 1.0115486025240774 1.9635946788071472
Ni 4.053144336604776 6.681518558643514 2.8300965953301347 -0.3765069476220677 -1.2376634987124169 0.4693803360140368
Ni 5.620605485281006 0.5578597748857681 11.681851186629823 0.7698052557698614 -1.775648323268729 -1.2000009511646366
Ni 1.1341254979803093 6.922465447356566 8.433770201847658 1.499262446739979 -0.7610233958121732 -0.6128196102790157
Ni 4.984532011820377 8.570198988704098 5.6165696295275875 -1.2169656040434333 -0.7749384632313686 0.9874763920662218
Ni 2.3179116636335384 4.590637678714683 0.6014703649485357 1.9341907717237334 -2.5835634985364346 -1.1871595764255942
Ni 0.024154911695908506 2.611641541848945 7.767808603788882 0.7433347202831585 1.0443417377946982 -0.9830684928065135
Ni 0.07241840983803062 1.1157343738514387 3.590221675433723 1.244961575035727 -0.45870357302648096 -1.8015005084451425
Ni 6.555198867775493 2.7822481714252785 11.971648977651128 0.05918936587596258 0.3543890326771058 0.9637271121654242
Ni 9.005461769787326 0.09941398584522966 0.14056377864420477 1.1408025864276095 0.3780933182725811 0.11360110785762373
Ni 1.0526857090166961 2.776744731761526 12.41673919720463 -1.6248698350298596 1.0745470577334848 0.348808967486167
Ni 0.9760915411711683 2.21041855424152 1.38017094367478 -2.6104541522796914 -0.39314995549538745 0.6585749621372594
Ni 1.5721492639453531 3.670432918775427 5.081058081599627 -0.9385927789916416 0.37559523444107573 -0.34538631495786326
Ni 3.2363467990344486 3.036536732050458 6.55033471655753 -0.281206952066477 1.2154280843529843 1.0141559582399373
Ni 8.165612787968824 5.007954058066112 6.050107258312178 0.2723764982590406 -0.9547400781754656 0.11303289405897952
Ni 0.712297039308598 8.54835200094799 4.991994083041229 0.492092690009888 0.7042539522316129 -0.31208821502636575
Ni 8.08381166205759 2.166530012680583 4.89181017154607 -0.6604048162571464 1.5644054590962155 3.500120637884275
Ni 4.891446055083469 3.441901196980606 8.526943250053993 -1.2812017883146838 -0.006718292560440042 -0.3473678641642663
Ni 1.8517499410038194 6.571690656666873 1.5265689242655591 -0.7492451722303225 1.2552382743713868 1.216533401602021
Ni 3.8597364191286174 6.324156317447209 0.470620064660355 1.0376455567214453 1.1635491360955057 -0.362749231716343
Ni 5.5798577956493824 2.8840803353045814 1.3313589545762703 0.06663399507946588 2.062947761386189 1.3084171723872113
Ni 1.6807263841802318 1.199647931148759 8.682426538614934 1.515096071338126 0.8945983756885625 -0.3800044192523649
Ni 3.816524226213226 4.617997371184483 4.94168486187258 -0.2540031379581755 0.37758809650138847 -0.3330979845088134
Ni 2.269158970854638 1.121348994114459 5.1191494814137455 0.16785241300202058 1.4621884247058174 -0.032055228663331894
Ni 1.4713825808090328 5.847469498086811 12.612388330261025 0.733418232500395 0.35193620026123906 -1.3926213151399565
Ni 0.9423852894931677 5.063729658698757 10.42795360857337 -0.06230168625269914 -0.16454340323344566 -0.1877031291793606
P 2.3676557167559094 1.145762400703665 2.868133331349613 -0.18314044950934266 -0.39575242611524103 -0.1971385635606476
Ni 2.185940292302741 8.626243275784972 6.9346749301661506 -0.3537647688295456 0.39342454931301274 0.5189362925652934
P 8.940921431912408 3.924499118202071 3.9285247824005567 1.9077819427129015 0.4388839671973926 2.511409087859372
Ni 3.918245209493261 1.021647791721121 7.115691769853918 0.3926856142644592 -0.3703044183557816 0.5849033434847217
P 3.8229541708708767 7.647696496379976 8.015976672424372 0.6445053714180706 -2.818283105674649 -1.5410765545622878
P 0.8925624834463157 6.258902570726989 6.1931281282002 -0.30830895048959156 -0.11551477994056879 0.11185147215636866
P 2.0531258014274973 3.5977022767544535 8.484486158708629 0.03734218809388408 -0.21007069824128335 0.27730504590890953
Ni 6.862168502353699 5.404312894455574 3.94973340821587 2.225203911247355 1.0943926317045023 0.26810049659150603
Ni 7.326004697448735 1.537914904420831 8.147714564496708 -1.9110390161976185 -0.4133308013186366 -1.9214391284850199
Ni 3.5745025917072533 9.077367822363732 11.61644919911058 -0.8406309203331717 -1.1282036667166762 -0.2678220461191388
Ni 7.238042313328082 8.788659601215251 5.114823629597237 0.6356597481019827 0.7590503312462025 0.1591623414271904
Ni 7.7510573934992095 8.662275054997657 2.493963363059009 0.3043293970165533 1.016581022741662 1.7733901233621716
Ni 4.825275068419291 0.9585620666866226 2.3306965060443336 -1.685894197232032 -0.5497406795406596 -0.7380210213797289
Ni 6.896671548326451 9.147383804752584 9.614197786898009 0.3582431163158733 -2.042550685787076 1.0888591034807829
Ni 8.514766194919194 7.176920778880645 9.609193733425966 -0.6439759812771619 -0.3748956372708898 0.6218809491503354
Ni 3.6736571561541917 3.00951058137846 3.1590160597187724 -1.0023725924517641 -0.40386579925099475 -0.043320774274822164
Ni 6.032909472615448 8.01656592960049 7.750153124625166 -0.7247091347621712 1.4840304602815733 -0.41242268768207035
Ni 3.8278461172386566 6.144516264180372 11.661971168975757 -1.2817368348825473 -0.6405541000798065 1.9020949196304533
Ni 0.9607115582724655 8.403363234452929 2.692838586504157 -0.024045213874661815 -0.13849170045171633 -0.7314935046738564
Ni 8.077696729097866 0.9908137055242036 11.455229918132417 -0.4898817984014982 -0.39114140970579087 1.3524707110629999
Ni 6.77733770511242 5.982655841746434 7.885390426059452 0.8308481299147948 -1.6795569421600947 0.7682397110549544
Ni 7.8704838872126315 7.493118403198074 0.667467168673861 -0.7907826293524769 -1.9356002504767504 -2.1262226101854353
Ni 7.035258165313679 4.83461423875778 0.7327264744240436 -0.8796785211539367 0.2083837974571637 -2.3783917802586654
Ni 2.9345748574720094 3.938239187261575 11.623934432956279 -1.7155896674139357 1.543408545129574 -0.5389063079293169
Ni 5.470539471419386 8.147119748290624 0.8245116181495191 -0.010040157844821419 1.568505854417834 -0.1818037329757901
Ni 5.853880912644584 3.6386352673848563 4.0891195990128315 -1.562834772174986 -2.008442431249457 -1.1220219633859965
Ni 3.289694956583082 2.2296250027650206 9.962358906999913 -0.6399056678625302 0.5137701749833217 -0.3686925937839715
Ni 4.807995750283098 4.316707212218871 12.984863720917792 0.18053232246253426 -0.5954194125246971 1.0392758932360167
Ni 6.751099083685235 1.5362657255316927 3.2679193097115027 0.35087150644215054 -0.939249438739034 -0.8360602702433537
Ni 5.038806674362907 6.9788618063351215 10.151227876510967 -1.29679372921567 2.3338510175338127 -2.8545896534151676
Ni 3.126176090210066 6.789771402130528 5.900509129472477 0.7959132657108228 -0.22960594006073362 0.6529547877370045
Ni 5.681875260527464 4.520223299178453 10.54529083352555 -0.23472372090327315 -0.07871329484150315 0.004684035739230643
P 0.6657605464751012 0.9786208998045091 6.627532965659079 -0.5038331183752678 -0.9854256801847803 -0.6395822230848404
Ni 0.12249322524322286 5.188733712475443 0.7969258584612071 -1.313215622217119 -0.9485869140898762 -0.1394242395683147
P 4.221610739645205 4.56673384987212 1.8265906978945257 0.2203168014493238 0.9681609795670617 -0.3699172102196919
Ni 2.9034350246271057 2.3787459815328655 0.5371523882721532 1.767436476881898 0.07790596844885937 -0.33883668676480355
P 6.9528640762063505 8.75304474924982 12.623561980487432 2.2141006022453418 -1.9024805851046462 2.258021471998008
P 4.179686388671332 2.3886225247678152 11.918084944438917 0.7855267802701762 -0.16764132543247903 -1.1270050184228848
P 6.929247463911897 3.71200519785162 8.288498851329459 1.2895141648351212 0.6542035725424411 0.09331613235634251
Ni 3.097964013145879 8.992796446520744 1.2076696113859258 0.29675287022087604 0.024494899817570717 0.7268266953258062
