# total energy = -381162.16962002224 ev
CRYSTAL
PRIMVEC
9.33184710897166 0.00000000000000 0.00000000000000
0.00000000000000 9.33184710897166 0.00000000000000
0.00000000000000 0.00000000000000 13.65810152153946
PRIMCOORD
 96 1
Ni 0.47048652570124566 5.153885735244469 2.445428215799146 -0.8085211842828204 0.6155668340068495 0.3608525289142624
Ni 7.008907593316925 5.882171064393439 9.241904712652838 0.7315081599618757 -1.5725008345098401 0.03368016586126457
Ni 2.7994047663393813 6.32001199001573 8.428304839410503 -0.11846486370782824 -0.13994103130373317 0.3397203749213375
Ni 0.1240286442241589 8.379597264413475 13.556170585888959 1.0299286476931617 -0.20797653471641603 -0.526559613438506
Ni 6.814105288869573 2.9247967933984986 3.640648369711748 -0.6833722236865972 -0.18211972155431214 0.28331911331347337
Ni 7.729344839206482 0.2685173628196146 2.208064290736036 -0.47672469219425 -0.7329739458741247 -1.096143552957338
Ni 3.6257024836852625 0.09255979004177031 11.495928349468072 0.9216846903823932 -0.39618668543918223 0.8757563032813951
Ni 4.169917132344458 5.964104680347822 13.445827095172442 -0.007273907953593924 -0.4928668491717512 0.36511670350725506
Ni 0.9823635252298345 6.547615736385595 5.311731126335997 1.9730064590393506 -1.6821218746737934 2.061765311042314
Ni 0.9195723268616955 8.624623568982296 10.87328232700343 1.1128680648008704 1.4234485849334582 0.024232904405435685
Ni 0.05569432878575756 2.469141372006627 12.57752673484129 -0.6050168264051451 -0.5712857527012871 -0.7383496083637413
Ni 7.333469229181784 8.479905286952617 7.3096655540591815 -0.34824615300416156 1.0429371441376878 -1.879395164040092
Ni 8.293137702703069 0.39860610843338357 11.64577168182601 1.3027478899165756 0.9105369012956899 -1.3175826409365632
Ni 1.6481068163234187 7.493482408312741 1.730891496716873 -2.1240667401846967 -1.3434024302131442 -2.3131024721325515
Ni 5.205920113668347 7.677730393893988 12.312422961624877 -1.0739749872800988 1.1999528715355205 -1.2682909937902866
Ni 0.698458880024436 3.075412802681386 8.281616604496088 1.680799299207628 -2.456191562146963 1.7928263777099123
Ni 7.280716298545095 4.862592133648104 2.217966313502459 1.2031040155699926 -0.3676543823274442 0.5845305335263353
Ni 2.42243547817386 3.643059718955781 9.787053479188689 1.08790959508332 0.1993106315113019 -1.2240240535521114
Ni 6.9582170008494755 2.6510750595518044 12.461951810741626 0.478874391547401 0.2306094416245835 -2.1605866894876016
Ni 8.87875775614468 2.8485089448304937 2.645915481389939 0.9655312552536985 0.1611572603700321 1.1245125910183342
Ni 8.682751643444695 0.023689826590181987 9.09289471422482 -0.5315156718922007 1.5126702355054529 0.32306451153221133
Ni 5.9152804572642985 7.272280308929746 2.6625513648935697 0.9199072867669963 0.5578838774730843 0.445733128908742
Ni 3.489093576628745 0.9651089402754318 1.2849803898784824 -2.979931446748487 0.32593746220463216 -0.7978431357436839
Ni 7.172560192746541 8.799940977061453 13.090620607208198 -1.5957412930950194 -0.22428272807560728 2.068413412486451
P 2.984669923234868 7.2533926507644075 5.672797080981078 0.35430161516962205 0.08926047422973014 1.8771922428515027
Ni 7.081733326677747 8.351573728113815 4.604828791218676 -0.6643267770193719 -0.0696846089803316 0.33484144956248135
P 6.308319185825429 1.2809079718827543 8.201635210917292 0.5614016608183557 -0.6438268572938074 -0.13998114051304927
Ni 2.619878695299469 4.859727256643778 1.7156488579583433 4.01345629643334 -2.109121174618458 5.5906815330020425
P 1.7441875122079669 1.0321209330053212 9.314783637541101 -0.6964678805282909 -0.15713759768767777 -0.15458526357946925
P 2.6310022568276725 2.6674804464365205 2.3071125139410276 -0.3137866857747112 0.9684268316339386 0.1003126182788337
P 9.34612464542069 5.005901306792919 8.82882864238587 0.14420109213166776 2.1830167363563433 0.9393808221105758
Ni 7.916802980128083 4.5982209104148835 13.646969456416993 0.08584142124585216 -0.6254025891503486 0.43383226370609795
Ni 8.375500583615755 0.8771189556702063 4.306904912385912 1.2737844128046902 1.3157769551863918 0.7097483996872809
Ni 7.601965128753482 3.9953276083250318 5.723577259178956 0.4423071339463286 0.018995824376212445 -1.9355925371672664
Ni 2.032541582024647 4.40345593335521 4.205766355470923 -0.41584302621752894 -0.5016093712510716 0.10331103878552529
Ni 1.5414904652666044 1.6325692912022287 3.9446510136279613 -0.716191069988831 -1.1304330702678274 -1.9486449994758506
Ni 5.135175382170604 2.3087175916112046 2.022928846512732 0.3281028452870672 -0.5067618619862885 1.0297507273544007
Ni 6.586510874346628 6.619620267217488 0.16813001958165558 -0.8364611052261981 -0.9478988868839159 1.0436969051218477
Ni 5.230556189536179 3.645616645011761 0.24871238410207608 2.35498831373306 1.2795154017511965 -0.8713368340574607
Ni 0.6521206609603032 1.2374962200126185 1.2101949686645384 0.060554621654605394 -0.9444836905547799 0.8682317127695757
Ni 4.374844490699613 1.8038273458713456 9.23638679156926 -0.3694646960633056 -0.4047811119764126 1.2988765798866275
Ni 2.786554813131046 6.895758949416367 11.539675114642622 0.6294412779960966 0.26328790569421107 -0.6024007289385368
Ni 7.988602210327745 3.6893830070648423 7.853749556861502 -0.6611293531279969 1.30121679798403 2.254656926401149
Ni 4.736117612346311 4.761509567814633 8.762163794361392 -0.6552793221051231 -0.27960052681130554 0.969283523207279
Ni 3.7431157816280933 6.115747192791869 4.096174078431437 1.2175423024825096 0.38138998674598185 -1.1740495214061972
Ni 5.024760969417498 8.339442327118292 5.703896394025449 -0.43619896416606163 -0.3355621297785898 0.3285191068888794
Ni 8.760485928285242 2.1208675131189794 10.24113088526645 0.1983428682813939 1.2193467026811 -0.37029336261218804
Ni 5.1853620549043935 5.1416890113205085 1.9200694970257621 -1.7244129221325204 1.139273808487909 -0.07299156186637751
Ni 5.057142478228628 1.5825505917129923 13.029377562244026 -0.41104149106382754 -2.3260744589121876 0.7057377358659911
Ni 6.136529215881893 5.01171504742385 11.752167801295522 -1.8565655677400863 0.222292694228772 0.27349415680325156
Ni 8.561036364071912 1.7799751451447618 6.880910114597846 -1.5018682597939426 -2.9609374221444877 1.7425122028363926
Ni 6.548362284139165 3.344011352569201 9.787804692865718 0.03956747787997701 0.5585644484798767 0.2749699700178297
Ni 3.0512246554656954 2.4588856722419496 5.348662843705139 0.37617013310793923 1.241172797417256 0.8335920112085191
Ni 2.3417989889413056 1.839456337410507 11.33540471831061 -0.8851074054789918 1.9036928602451921 -1.3885836547354733
Ni 2.9802186322542026 8.72998012070496 7.8666153742096006 0.37961155468932045 -0.6062139320370398 0.9112951196179532
Ni 8.331454266155085 6.920329702355763 1.5778109466625105 0.7675614540410072 0.827504924474175 -0.022719810195018935
P 8.372831675396741 5.243648770764425 4.104764976705652 0.5219334275204044 -0.5549638756128119 0.04324261273871908
Ni 4.287349093981128 1.0727237989526472 7.027803650144492 1.8518033704647527 -0.20578132683731012 -1.307561252144819
P 3.8909042412943315 7.277636789061615 2.0089833344760315 -0.1885474794575269 -0.07417658331341419 -0.9769227849200917
Ni 6.353662630007928 1.153117660165291 10.454033239999124 0.12848033896230132 -0.9322095011731172 0.2466538966819559
P 0.43164831200642245 9.075557075832833 3.0262255707526893 0.6967828406655484 1.659317218074452 -1.3697984037081699
P 9.246152569370656 6.058272347613845 12.844870151318412 0.5451139794019257 0.734949838653573 -0.597682754637577
P 7.185652773974787 6.964310696887996 11.751552832583519 0.015487554112637842 0.4067490343360608 -1.4002754892511045
Ni 2.8453081213370592 0.06200452367281383 5.316047105536327 -0.10690878343911264 0.7152184216629166 1.2028800724846445
Ni 1.2388306741221262 4.651823039121259 6.9301887986263555 0.6518067901754903 1.5460374981119889 -1.2471341572070136
Ni 1.416070442666728 4.335790711340946 11.666326941035889 -0.5890016819238115 0.35686783323490157 1.2699809798981998
Ni 1.5182261708959577 1.2530337451338087 7.119845522682222 0.8869352027163498 -0.7050242547387342 -0.5678438168992735
Ni 8.288266478611021 4.529155911362675 11.308430081604714 1.1160557185002327 -0.3247956352907051 -1.392424625748118
Ni 2.967499324902742 8.188882308916922 13.597158857114064 -0.023416064931095156 0.6891746893009872 0.08808856540881603
Ni 6.390411443177445 5.884718658602498 4.755915125586313 -0.8352735126760001 0.6399457770718463 -0.8391738761716709
Ni 0.8400519265207294 7.9289437129705265 8.377838211269124 0.1419367215775233 -1.3764413629459844 -0.4847118241647846
Ni 5.216231804514542 6.934346136429052 7.913790659942426 -0.3471022692077055 0.6392973448545699 -0.45593346648051153
Ni 2.4493018654554857 8.032312581299308 3.571087849588107 -0.15952383853166718 0.6106226026276967 2.065154796339837
Ni 0.716339631907146 6.376880265143978 10.523266212295887 -0.811543258938596 -0.8976194219030734 -0.9301413057901787
Ni 5.249611820946072 9.048588038235092 1.012691094533952 1.382039168748736 -1.2493175380115773 -0.2850733770004187
Ni 5.8645618692560895 3.322436122491008 7.314487319362557 -2.199616549696554 -2.273403867991349 -0.10650023514678435
Ni 6.752627081363026 8.110634772495793 9.367572962380777 -1.053205101722599 0.5878056047331812 2.6534293702896368
Ni 6.6289894415248005 1.561805896010647 5.661501813469553 0.7440831684134088 -0.8676619563090348 1.6917722532793638
Ni 9.060812757699813 7.3895069699341835 3.9234807857060803 -1.901838580645273 -0.25456209578543904 -1.697297039752335
Ni 0.8129027842774391 3.5206165555232682 0.7245768531831066 0.7645581484383089 0.5233056252775826 0.7781536277345567
Ni 4.410174863137346 0.09225557183219024 3.401686832455997 0.8456846807069952 -0.30734350125252874 -0.24000785212034798
Ni 7.3526088472139515 2.4089229638342307 1.0271302612727011 -0.3178557136377622 -0.3365527758266333 0.16783852904494964
Ni 3.1801254569665947 3.770514084184138 13.264597962069695 -1.341264300824219 -1.4279994375289342 -0.8210758810193794
Ni 4.507254066642295 3.0290895145723247 11.37080601278493 1.0359010632265127 -0.06434725592781822 -0.8327360909661271
Ni 1.8072148063031725 5.5611835258988 13.764770959191681 -3.007077153925344 3.7891925945211256 -4.797338599121557
Ni 0.33506183001883016 2.8422379437005 5.471175995989549 1.512906519885975 1.5401267890545087 -1.3118871332136826
Ni 8.410243049697552 6.2895621735169644 6.997482613133217 0.006804681626659249 -0.2377463097796809 0.1405508969735902
Ni 4.4215130571447006 3.985669146763211 3.6845183152656373 -0.3239584841013905 -2.0505725276502877 0.9091402780584794
P 4.086639730433647 8.107219316523208 10.009229823390095 0.41995499150337356 -1.2969765346504374 -1.6650836882445839
Ni 3.6330373153640947 4.9097366242860945 6.2490731561020585 0.49936916906664325 0.9036800262748567 0.021982932028994397
P 3.5929663646911876 4.913077425483323 11.159187720188399 0.2633444699637594 0.6098276175302272 0.06588246162542202
Ni 3.3497877658124544 3.0139905862563574 7.636121554848725 -1.6962115199976402 1.607421300536109 0.037301821774251884
P 1.5928249551715092 0.9265348178484342 12.97607031990031 -0.27026176590888296 -2.361087998872895 1.2219612574858116
P 4.940373077723252 1.7222203445591493 4.668229359190667 -1.6362233123694658 0.7081764272144707 -1.593070945351708
P 6.220049245812614 5.298240075244283 6.8163216025129865 -0.3205276040429706 1.6647743845342813 1.0484403333441041
Ni 0.13466974926661715 8.820349726274692 6.067871085355381 -0.03967803531591231 -0.3076201519526831 -0.0371642677551231
