# total energy = -340892.6064743899 ev
CRYSTAL
PRIMVEC
9.06587964409417 0.00000000000000 0.00000000000000
0.00000000000000 9.06587964409417 0.00000000000000
0.00000000000000 0.00000000000000 13.26883125229277
PRIMCOORD
 96 1
Ni 5.950961362952949 2.030267519668046 11.274579255130599 1.3654321563196743 0.5805427525231808 -0.21724304762000649
Ni 4.46239829362206 0.2660917316809626 6.116559630129003 0.018943116761406083 -0.03593425200276392 0.26517509541459494
Ni 2.768003489111516 1.5562579938634156 4.720399634161624 0.07301367335356458 0.7581234485565589 0.6865837886453595
Ni 3.6062256703560474 4.264453873876086 4.501875667249607 0.03286898281387888 0.2657494798608262 0.30855294817959766
Ni 5.081461896367957 4.497057152131214 2.488861423445744 0.30725685507599343 0.40579181262911407 0.16655991944284218
Ni 6.988995535184075 5.975946927706082 2.57171177925469 1.6992040269670605 0.07478156388726476 -1.081431443558144
Ni 5.105078513269957 4.477855618696114 11.4370026511976 0.25547355185611487 0.1816785202518355 -1.0897762159784135
Ni 5.559469475168282 7.905066426347022 12.485400030638198 -0.3261675759375673 -0.023051225392508687 0.7075740177437814
Ni 1.6291204698869752 6.447898498794109 0.49409044958118703 1.271690763500455 0.953035951000165 -0.8127334225919551
Ni 2.6849147006635965 1.6118590347309647 0.49887179459236347 -0.6465038899053382 -0.1489118673437758 -0.292697983425212
Ni 0.48433193655496337 9.360520902616067 4.739360921781791 0.5291155470911404 -1.1270659535678074 0.9345021538620357
Ni 8.650082297276981 2.0965753645898224 1.4178936296330846 -0.67836320050778 1.6011722343026038 -0.6092714879164411
Ni 6.792501656207512 0.8578751954941113 4.868387429809027 0.3597017031392708 -1.0397080956774287 -0.5415591721711318
Ni 0.813867601726093 7.6009061587608056 2.805747466519614 -0.39719712898156756 -0.464606054553845 -0.35457929431104096
Ni 7.642563876482374 3.9748262116234216 3.8290532104133153 0.0906252157877407 -0.6963719783803749 -0.09396250769108978
Ni 7.680867218674678 3.797642656639665 12.294912297034985 0.19195521958749523 -0.020866301926047933 0.29323765797876594
Ni 8.027147563852715 8.667851421702286 6.951846279491435 -0.18527420802289382 0.752751128501052 -0.126086384808828
Ni 6.632026517711428 0.7928347605696096 0.5862170136105276 0.36820639817617234 -0.692371341861414 -1.4075295997103565
Ni 1.734175885111687 6.536680659761972 9.320451527037003 0.4070261992568474 -0.299376166776336 -0.2129876147777622
Ni 0.1460785213596636 4.735988414492906 1.3067658881124191 -1.3339723951484963 0.06767709163199956 0.47014781030768066
Ni 6.660457116791916 1.8218429428630645 7.164717670342648 -0.021697025357459408 -0.39810087174275954 -0.014751190167245564
Ni 3.501188386890953 4.374885355827433 0.49676216436084897 -0.8784909286037387 0.18013688679632847 -0.11371372217608804
Ni 6.098880257913805 5.685285755155212 4.656590345715161 -1.0415176380823417 -0.4467304598250048 0.9519414323844058
Ni 5.397289951268137 2.937082147546179 8.943749715572459 0.5289990761179342 -0.4665863182086674 0.3769250089960928
P 0.26998371388289294 5.4995621413915385 12.326518673812505 -0.440902283179002 -0.22227238251379783 0.19356652993867307
P 3.846689066405431 6.234705269209683 12.473537326908344 1.2546942289424583 -0.46750548758882704 2.917207585356705
P 2.365940785469753 8.31723758597563 1.4959807721904725 -0.6954160422250089 0.6217953314150646 -1.4231364530096782
P 6.222375672669676 7.928356671575904 5.929468881690157 0.7804043714419463 -0.18667905879022043 -1.2718583994265709
P 4.57954759251175 1.0618139749696842 12.695339515959235 0.519603236725331 -0.1142045457695775 0.5260435930340359
P 3.8506871194011243 6.150628299862602 8.411683202060068 0.2383080958204218 -0.33661782473661384 -1.176303607547697
P 4.80944017270404 1.1228636096023394 3.703158057272048 0.10378283621562127 -1.4430252215138053 0.23380249464058442
P 0.19080685257248386 5.603230477005499 3.611245448006196 0.018135276148130056 0.030962766930101516 -0.32029337654497747
Ni 1.478400218065191 1.3810961300770281 2.6182986158283206 0.3497600185455267 -1.0368027491051757 0.31563916560241767
Ni 2.0374114329574033 6.521785419236066 4.696118488269637 0.2349486924298857 0.3150976912766509 0.5958197332869093
Ni 6.145297562535011 5.7005164332340446 9.1992008241218 -0.5339646476533255 -0.6228489694905595 0.3770126836138926
Ni 8.825017514068147 2.183553415475729 10.311460980699733 -0.3911102993575393 1.341433736522548 -0.6954396963740926
Ni 2.368760274090299 5.284582933484773 6.864072244358313 0.09695989975651689 -0.12117480643982355 0.6174761352144204
Ni 0.6252982082904283 8.872713107742397 9.031336993581519 0.691085533170455 0.8792046668413117 0.7239457742335855
Ni 1.5864745712662431 1.203577137540345 11.469458500913207 -0.48430250454150786 -0.7174812495551643 0.6438266001834912
Ni 3.9843453854226922 6.564657964852019 1.7122899446651927 1.1242433965173477 1.5459354253164859 -0.7952787174506175
Ni 5.823993716230297 7.906335649520258 8.098976529578067 -0.7527339021098715 -0.15534913832868727 0.29021712598488725
Ni 5.119756172680451 2.4687569283816844 5.314936405672714 -0.2748835809516104 1.679137338124173 0.16322674130455114
Ni 0.9472665835851283 7.415128149718278 6.941867465585857 0.5059733046467221 1.0499135754555209 -0.6902594377247339
Ni 4.845640230780694 4.596065625523438 7.130803120565799 0.041794824548598994 0.5303681885513188 0.01931978337453447
Ni 8.13333621405353 7.235025381436079 9.087663304833775 -0.21575617866183483 -0.6611532643873969 -0.2253433081296377
Ni 4.670133863561571 0.17854343695508068 10.623079747604674 -0.7632659119894467 -0.4594988152342668 -1.067263379587878
Ni 8.227004884238353 7.237083336152684 4.687506809039231 -0.5445015426289075 0.27907859286956455 0.23318285877871453
Ni 7.143976750516009 6.079551802161381 6.745210400772735 0.15264228092048548 0.21485192168001063 1.330526859802057
Ni 2.2836316626853934 5.320937111518178 2.52857450994832 -0.8479788760578105 -0.7817935384799891 1.1781990247981966
Ni 2.3542639322759813 5.126002563868734 11.482767212472568 -1.3128926916600616 0.3889526295845882 -0.40279647744621594
Ni 1.1310772967091387 3.449993363610495 4.01387476913601 0.05416465896786156 0.579447462576473 -0.6359137730943177
Ni 3.955225779476733 2.462020979683724 2.333761445088314 -1.7419681574074644 1.019173466059187 0.1812370618390427
Ni 1.3579872024443227 3.3963324210220356 8.192800226307622 -0.9779910782836059 -0.37356123473018243 -0.4593417208311122
Ni 3.6826510371444767 2.5864683118195217 7.335594092743402 -0.41084685855451825 -1.026668231774335 -0.3194292287724692
Ni 4.2214090765437655 6.828565726087034 6.197844308494965 0.1478101496391648 0.5817280310805336 -0.14565710785190397
Ni 0.7007562457032557 7.506720733426879 11.453244174875117 -0.32029106255213224 0.027649386286152385 0.37932436246620477
P 0.23665572652967534 5.724803925241898 7.852759926202001 -0.8819611465405263 -1.8533509174575307 1.4623810003325977
P 8.856757159278859 1.5268120162443386 7.895684147332864 -0.8851945658761594 0.6755375581335268 0.0766687536076486
P 1.7210666229081202 3.339371498183162 10.345176987708768 -0.20834728779227343 -1.1090425204071932 0.6625568296031429
P 4.143433444308026 6.400882846105521 3.952825134503355 -1.5252527001561538 -1.7857342467498214 -0.6938199013824825
P 6.9611360865315435 3.783536147657127 10.143239047907002 -0.2897656402697655 0.11588013369978752 0.4635395609625436
P 6.337213172208114 7.76191618416561 10.327383385407979 -0.768621005653773 0.11579297330261992 -0.8474381730629921
P 2.333639055710895 8.549695810153816 5.677056656052738 1.064489930607799 -0.2800640967112854 -0.14163333140449158
P 7.094848747831963 4.02617535486063 1.3863942302373078 -0.9442705461027092 -0.04083400329722645 -0.05362858395873345
Ni 5.398051485172078 3.070667886529276 0.17649545470626618 0.4596625945056406 -0.3387220155638102 0.48599557597321463
Ni 1.8060501802360842 0.9252636932891 7.221721202816622 -0.7679160091669484 1.3111134882724518 -1.2733105584920652
Ni 7.2798742888503565 0.6171679272778703 9.394133558595282 -1.371096296583987 0.13106995406634847 -1.402441643664488
Ni 2.844011825428739 1.4807845444549133 9.426987400434497 0.3947460963379137 0.21164961269262908 -0.08259411795314807
Ni 6.271757519988368 2.182755618052552 2.376712863858604 1.2562839420270815 0.24955718637167987 1.1746318762722285
Ni 4.0460477634015835 6.749728835269456 10.484565796357497 0.5615325299692653 1.0726531831448816 -1.0540034292541784
Ni 8.179699123395883 7.024488454635641 0.47806832019504336 0.07563439880586328 -0.13524953936533482 -0.09791043659524429
Ni 7.859836751980773 3.890531661160929 7.959600413161072 0.18447433782941777 -0.028516362272137986 0.09880029539936533
Ni 2.991713139274183 8.456407906920964 12.528749441532094 0.3431862219827509 -0.684907172273885 0.6031332362291871
Ni -0.27165546211964103 5.006550531507602 10.102875031234154 1.0097308325890482 -0.8618072973004707 -0.35770498442421617
Ni 8.614607509585033 2.556569040210003 5.664464148998274 -0.11437706679169979 -0.1302140338239564 1.6798875860266358
Ni 3.435995645185663 2.7172708257013083 11.710552882197286 0.8657526551014638 0.5033698055856041 -0.49203843973318484
Ni 1.2015463804631672 3.3627342704505145 12.723681269417597 -0.8663658632054305 -0.19100571119003235 0.07621084013462359
Ni 3.1760950028261496 8.38335504742142 8.203349284053175 0.7875173283376437 -1.185405569848965 0.4428339529840761
Ni 5.6288325215856325 7.850426368739209 3.5605318229435867 0.2680896979582286 1.6421828723870104 0.32770792384149366
Ni 3.0446216138385096 8.636963969193605 3.4585606200298384 0.8920516980073088 -0.6463555372529319 1.366295532761234
Ni 3.4688050642138157 4.183957927053492 9.467961550818481 0.3452814139488828 0.7374137268130333 -0.6820005401500513
Ni 7.457474874305319 6.4342543496818205 11.44159361273279 -0.055518344782278586 -1.0682306285971537 0.9417878888901715
Ni 0.4163786344478847 0.01187720913754703 0.4526929226101306 0.853824279094994 -0.38755034992042287 0.08707092277757908
Ni 4.389408895281178 0.20367858872505942 1.536464458476799 0.9136929304261684 -1.0224783620627036 -0.3696228189077247
Ni 5.907644589226363 5.613320801232726 0.07882510517382654 0.2777295350408378 0.3863786982098249 1.3059360578365702
Ni 7.706877227846208 8.965656507542514 11.56019073262795 0.5826870525596932 -0.35438954689773805 1.003242396651227
Ni 9.206310287067883 5.079857235641795 5.77759454336871 -0.13904345919012828 -0.7107794120549565 -0.2072476269701915
Ni 7.934766248600746 8.989119004487764 2.681962850197842 -0.47628709043619905 -0.2574718132330663 -0.3166151563624418
P 8.57049293843527 1.7618449502882336 3.6416306507734677 -1.0408653492103235 1.144010551841946 -0.492390423755965
P 1.7609292964275418 3.3590897867673655 1.76735519203604 1.2397936576815423 -0.8277725763132647 -0.9151512601392499
P 4.909409629355998 0.7793828081092689 8.38599412503377 -0.2507198392212134 1.847053514484593 -0.18246167827476317
P 8.668395374490816 1.5752510120629124 12.450304196722259 -0.3907146065810174 0.8833739677276528 0.6899622181992892
P 6.420700859367622 7.76648538758926 1.5039025379674273 -0.7430506133838365 0.643862338517433 -1.2687183111356923
P 2.145132216845911 3.3112310072565565 5.950169005057657 -0.17630928552012215 0.03403420676657364 0.22152444860417977
P 6.569644198746874 3.9777544908016735 6.068606565468182 1.5854815630402244 -0.43398267324103323 -0.5553533977417467
P 2.3467483179144617 8.463171053258352 10.428134320899458 0.33819956740143686 0.3090779674451323 -1.1682167167745041
