# total energy = -340893.6346890468 ev
CRYSTAL
PRIMVEC
9.06122774036891 0.00000000000000 0.00000000000000
0.00000000000000 9.06122774036891 0.00000000000000
0.00000000000000 0.00000000000000 13.26202272097061
PRIMCOORD
 96 1
Ni 6.415068392827092 2.1148271427238954 11.613062567999403 0.4741229929053447 -0.5936924025312614 -0.8818639588410295
Ni 4.634863331972194 0.3216237505726963 5.880222172242105 0.6246065756116146 0.09510099217090719 0.44431028041928644
Ni 2.804042252559516 1.4965705078839726 4.7557219885285225 0.5559576069846489 -0.5491267001057445 0.25108442164948375
Ni 3.4806622557364695 3.9646949229973774 4.771994141433295 0.4728811500784436 1.37252197328692 -0.29204235211908414
Ni 5.089247661832268 4.370012704255523 2.8539741484174894 0.1376910589272919 0.6681718617970751 -1.4202203078041478
Ni 7.254853925214559 6.075888513368665 2.564981691441333 -0.11579580151609735 -0.25879104626512206 -0.24983820794720846
Ni 4.820319481600203 4.656383748025671 11.306591002573917 0.45229921216203395 -0.40901263355925693 -0.03467286879183706
Ni 5.501624139555955 7.736766265167461 12.551403450806765 -0.1359067133333595 0.8023412807243536 -0.07896603428225756
Ni 1.9661414555569436 6.411380473107613 0.35132554921761994 -0.18372666103011584 0.9709146310527988 0.2101383182544252
Ni 2.834578590285924 1.433468117401271 0.502920796635002 -0.7596524836065756 0.8445202280852487 -0.2704574268594568
Ni 0.694403568880766 9.2761601356909 4.71146604577198 -0.5974896647901645 -1.3846308407353123 0.5490783633663124
Ni 8.637225778984016 2.413485211407102 1.356280954407611 0.28026310009596894 0.2879452992315751 0.9316754830465179
Ni 7.115573792516453 0.6435211502253148 5.1049109002280755 -0.5633230462107848 0.6820355071530447 -2.1952428461088904
Ni 0.647655788475926 7.496063809569746 2.517596000598529 0.6786406225388828 -0.009865837050486234 -0.4119652884296776
Ni 7.7116938478116825 3.810046947930136 3.7834558687930686 0.07394364136700168 0.10372961438018265 -0.12222047409551855
Ni 7.640409168614754 3.992077953445212 12.757482048812083 0.814324678338475 -0.4140013450230999 -0.4946113426666836
Ni 7.72055572861181 8.846440467935064 7.082397919128413 0.16421173092563976 -0.5198138100742402 1.6105048245574392
Ni 6.893655262172993 0.6990438236432864 0.33027450476480363 -0.3962455637015756 -0.423555050149806 -0.19036370673065928
Ni 1.6128713668508705 6.565738488884871 9.248497113303674 0.6652130362790674 0.8204346478909548 -0.9448742411249792
Ni 0.13763551985022948 5.137208740641134 1.3847803281218838 -0.22852093452667094 -1.3808240653947121 0.33372173413574135
Ni 6.274030381933461 1.9669479048322107 7.046404910013624 0.5646895875410081 0.13066680509065884 -0.29247301189859953
Ni 3.4820214399082676 4.55713611980094 0.6249320413690163 -0.1805202382776762 -0.6852234179627231 -0.05107907806400235
Ni 5.963266512893435 5.659796932242061 4.726067308268222 -0.08638161002003833 0.2152339876097777 0.6333328997410189
Ni 5.100284237307273 2.6864003318764436 9.429788722629292 0.6548579182969884 0.4583292204061977 -0.03643458867795016
P 0.15696764938711122 5.645434886160057 12.458662690273824 0.5421718660544662 -0.6589534285226005 -1.1946137187107941
P 3.9123391486996963 6.221004076777692 12.4561962240634 -0.32033682818840314 0.05386049746388144 0.7569602814863932
P 2.5014425497780937 8.407922347973784 1.433850501214937 -0.9135898291894008 -0.2666190269499731 0.734773718087025
P 6.264470786591811 7.758757865067161 5.703783756532588 0.5225587198092291 -0.9880412634307565 1.6501664048131195
P 4.711376339616641 1.0098829008741517 12.742376982049496 0.7239974534071273 -0.09309270349162677 -0.7986910855662761
P 4.059701896606097 6.2748911985756 8.12444817873513 0.5087413543101625 -0.5036459420651261 -0.6709661367127606
P 4.802795067011814 0.8394865118696706 3.6990967439862183 0.5275646576642528 1.20080364957159 1.2192875673083903
P 0.34280437058322405 5.614681078966161 3.6523607431775336 -0.6288715215355556 -0.006731919407194858 -0.4819633148853699
Ni 1.4036476166720102 1.037193441499491 2.5910281907868997 0.27841010604763017 0.30548767899071255 -0.5836956963298657
Ni 1.9323974431850912 6.693719270501424 4.889309857915136 -1.0002061809280645 -0.7813037433277641 -0.8826538017321767
Ni 6.148233356219597 5.411356188092906 8.971665730173992 -0.8369629845632811 0.26065586738800267 1.4207646103433917
Ni 8.764336682730617 2.501071039437802 10.12361780966678 -0.3822595338351288 -0.1906061617587685 0.9341591687003201
Ni 2.41761713128937 5.09130456054559 7.018713797820181 -0.6136986704498593 0.7800464738818954 -0.41545144720606514
Ni 0.5807757721184055 0.19453640601840497 9.390268177527297 -0.7588821810994544 -0.1668669091602997 -1.861193810540717
Ni 1.4378265679788382 1.1078438347495807 11.40274059700973 0.09499737671350736 1.473848634652565 1.646632937738564
Ni 4.19022888323782 6.709676092678339 1.6615591561302578 0.08879947543291158 0.8043503407345826 0.21004807253346403
Ni 5.747962678852729 7.757788313691279 8.330672662508222 0.01308408687746779 0.6671261941413802 -0.18556885644517718
Ni 5.5018959763903155 2.776396446505133 4.517694407380907 -0.041609705120986405 -0.9054707996266922 1.0614218332054364
Ni 0.6244961963112595 7.659383379653062 6.782636192897705 0.3040000387015926 -1.3564772611192315 0.36653775222449775
Ni 4.967990311252212 4.682380410618272 6.856624742473732 -0.194626081551439 0.15675064666190422 0.29914990969814287
Ni 8.231871752814621 7.279273934167874 9.325655280368336 -0.23454554345419604 -0.23780595937302265 -0.6529876978574689
Ni 4.589819968518789 0.1576227761579181 10.501360462447476 0.21679336167709762 0.536790547137895 -0.1317322702406957
Ni 8.208702193299361 7.26687817452107 4.5284500847937394 0.08084962445821559 0.2993712816803296 0.8080303606893309
Ni 7.230814487829348 6.218213218611599 7.038871405210735 0.809898010025689 -0.41044242402724795 -0.9597717270621019
Ni 2.2225651414084626 4.979054070410653 2.7386609632820984 0.11340698956894663 0.7014851312372242 -0.06863816999368824
Ni 2.169457285202386 5.3002202289788425 11.334096359597215 -0.011341136044432081 0.6411958474288635 -0.13366136894260852
Ni 1.202134971361154 3.104575995399804 4.077555233764063 -0.5474225729304444 0.8061082039659536 -0.8109434205710679
Ni 3.705897195459117 2.407867250163668 2.5649680995996156 -0.17433493540257072 0.5629170690216176 0.29540766904689125
Ni 1.1725500625550047 3.2834536936363086 8.204868387812109 -0.31524552970842484 0.2088800203672919 -0.3926642741082205
Ni 3.719099404381187 2.638194599916654 7.12791246642804 1.2806099203669559 -0.8149821094168157 1.179099682235595
Ni 3.9635803919765022 6.999309178460803 5.999328387339594 1.5632718597124045 -0.8552275872004238 -0.34922857152208886
Ni 0.9140513555345403 7.577488002688292 11.494791798106178 -0.37656196922971924 -0.839460039953522 0.023935941990307165
P 0.23876425896873052 5.618214957812837 7.756161823299027 -0.08824463137070608 0.2767283474698331 0.621784018561155
P 8.471876493870813 1.6100986311404013 8.073003963955335 0.30382443235567674 0.5128168099311168 -0.5603331103445253
P 1.7585034202451815 3.419408355727414 10.465923812720343 0.31791639167236857 -0.8684199175209818 -0.8136682757013988
P 3.8694161125542976 5.975245456060886 3.7643194617769256 0.564939241657969 0.54483475759861 0.9811838741892909
P 6.844769938127306 3.8595393742392274 10.407730795466177 0.2784378739617721 0.9060320714468009 -0.282424626523662
P 6.494426626004505 7.9171118823095075 10.413313417921145 -0.16909785537334748 -0.25153179359954747 0.9329003565925545
P 2.488711524702247 8.664654115570912 5.911918347128448 -0.06568037291694495 -0.9553743693253547 -0.6929997194740323
P 6.983760111535427 3.9726234973328687 1.6431376799884811 -0.429427449770183 0.16419116210034948 -0.15095280903320454
Ni 5.207487623550932 3.070442350232036 0.1655459137567226 0.23272597374695403 -0.6185554843215283 0.6360191883239305
Ni 1.3065203157552843 0.8993658236196473 7.098617516911875 0.3578021721237128 1.4679173567697945 0.3972457228313158
Ni 6.904021306789911 0.8230983752489046 9.352962196502551 -0.8397896553787989 -0.15139529588726186 -0.10940532460872125
Ni 2.7107569122350736 1.7036739307548272 9.428329864951564 0.5453060408080738 -0.591554273142336 -1.2738312068822257
Ni 6.126196450180836 1.983892400840633 2.314050921889443 1.371124321608445 0.38754443638315195 0.07448305881023946
Ni 3.9102006989360665 6.834920383495671 10.224754703890312 0.5434648738342769 0.6811549043203042 0.6664294251846715
Ni 8.087626067275545 7.054383321102081 0.268770514868137 -0.31754306749334993 1.265626559584246 0.09319297651491693
Ni 7.593825396433311 3.737539002978588 8.143638046995363 0.7576413667138178 -0.008098974958050568 -0.5358045290755418
Ni 2.9612908000087987 8.520906797561494 12.49828925174122 1.0716751355023286 -1.0188250815808324 -0.6972448679036314
Ni -0.031458770717668574 4.975556436475224 9.951835052807063 -0.7083553759944962 -0.35223470533826434 0.6652706289898801
Ni 8.648144558497464 2.492526301611095 5.966689844760805 -0.07500653541387728 -0.15336501801912297 0.660063630867644
Ni 3.685717841121814 2.622382757384731 11.447791209445382 -0.4670871691044859 -0.3450566995325864 0.7479580779877828
Ni 1.4561211869312471 3.5027535291421024 12.762283593429657 -1.1539614924070707 -0.6381514041755849 0.04968142638552734
Ni 3.3948433671291074 8.294466714539851 7.963102144069266 -1.412613184880851 1.348554149617413 1.1547904160662692
Ni 5.886835056299295 7.914910003951194 3.637083513086518 -0.38542224783382656 0.21968019630658941 -1.3101889195756533
Ni 3.4282883589831643 8.217627502694173 3.663925588233977 -1.161040253630723 -0.10151718010989615 0.060813531742946875
Ni 3.637339945833597 4.5431999514260974 9.16604718919681 -1.2094021898738783 -1.2263750702827911 0.5093327080372584
Ni 6.838019323407373 5.963810186562154 11.505189557020438 1.2193330758343452 0.11746239058524287 -0.8398557327300439
Ni 0.5808392007130893 -0.01546660975228656 0.35805169862246045 -0.12059193735316005 0.16639639728178438 -0.04527121313297365
Ni 4.591641275309 0.1912435558315276 1.6958812748365153 0.18403827873326367 -0.9067596936414449 -1.555328950716244
Ni 5.806543516657248 5.383746626949772 0.4558359385555558 0.4230470001651359 1.2002991991313456 -0.18954429615315743
Ni 8.269068092982842 9.152474376057231 11.249458148973755 -1.5150824444913713 -0.4072912799927759 1.1089679584155159
Ni 0.03374491849463377 4.838867814931348 5.6169436675508155 0.026981927905482563 0.6232354062957008 1.2692502723797623
Ni 7.894531302602027 0.048344368745312845 2.507463735659161 0.4121102986479741 0.09582012972511886 0.4425128221992314
P 8.568596039535999 1.763985463071436 3.848466553852975 -0.6370915954525027 -0.4968949964945377 -1.3650205227035523
P 1.9224119701362776 3.1770386342122925 1.6150487798940918 -0.9201939647694797 -0.7003276205940133 0.10460661766849726
P 4.851064227566287 0.9217624604025442 8.236472138174769 -0.5754571104701574 -0.3637406490953349 0.23507544781573708
P 8.592744211654955 1.8150364205641905 12.55241196546224 0.016129301461694803 -0.2857472631389918 -0.45660889528098136
P 6.35669596326225 7.799352165664879 1.3664657744682887 0.024683875899925233 -0.5131266278620518 0.49590615021870726
P 2.069584432258627 3.141980743807701 6.095013140788652 -2.891268754003756 -0.18853616660361722 -0.06819696869121158
P 6.69979935436327 3.852444432862439 5.963811998807716 1.5864580680208806 0.7236994625507344 -0.17492783179156324
P 2.395199653682505 8.60884601347686 10.15506208241995 1.21991851602417 -0.7664743916244153 0.1856681010272028
