# total energy = -340896.03283238865 ev
CRYSTAL
PRIMVEC
9.02234099859064 0.00000000000000 0.00000000000000
0.00000000000000 9.02234099859064 0.00000000000000
0.00000000000000 0.00000000000000 13.20510804364806
PRIMCOORD
 96 1
Ni 6.364377171398132 1.9197014744964196 11.284873974141496 0.25954257971916594 1.0693290038676553 1.1260382836342415
Ni 4.512388363822621 0.334747786724351 6.024843935168805 -0.3614613661428549 -0.5843754960057097 -0.5536238166451497
Ni 2.693150652972347 1.4912756265631273 4.683877797893121 0.6309697988254811 -0.22307096715569322 1.0577544116561783
Ni 3.5929216235281745 4.309611256687721 4.983198461641904 -0.10344730725307345 0.41419083532608664 -0.826939281778692
Ni 5.338843793885537 4.6407311602183485 2.820808653709274 -1.3522603948244065 -1.4621776260725399 -0.9108693449344443
Ni 7.3206640840715576 5.956143321941722 2.5403329529715104 0.33623910124095635 0.5416771858062348 0.013895784145485745
Ni 5.234798160983216 4.692492328789335 11.597729051167834 -0.3684951330611847 -1.020611998277926 -0.7105220446285118
Ni 5.7962764671553675 7.757480708851811 12.415270408623439 -1.3507568136956865 0.9002164932062883 -0.1835705950682258
Ni 1.778817624533729 6.549235909911457 0.3945767323453945 0.30347656209795476 -0.8928690517022817 -1.1291380056054876
Ni 2.626231952032656 1.4558539169919764 0.20499389624382344 0.5320013532793677 0.35244862112128333 1.5443606246301984
Ni 0.4419413142953872 0.14038581675629028 5.093342294620419 -0.5149531395478293 -0.5092303781314391 -0.9663596646922648
Ni 8.655582546378943 2.385182075666777 1.4945408116608856 0.5041028270968867 -0.7141704400143765 -0.1310632691981291
Ni 6.8783077421041705 0.6909164147283319 4.733410448312281 0.14295924930476672 -0.1560759891923828 0.6077828191860565
Ni 0.6008373652228882 7.3157288637110325 2.394191785085461 0.559742785058694 -0.17446117656778987 0.4899609883788658
Ni 7.661058953837321 3.7262357296472084 3.8707339292925798 -0.4288227263066486 0.20476265576480865 -0.7545200474760166
Ni 7.640109078742004 3.9845994778080542 12.688141178388832 0.017984609502878706 -1.2715244131259198 -0.21916289035053868
Ni 7.6760540840735025 8.829037046252955 7.0205485521074875 0.363665058662393 0.2562243139792103 0.027746059765016734
Ni 6.926631398870111 0.7870711084582313 0.35373440048429244 -0.28246833527740384 -0.26282973511086993 -0.19045703777541395
Ni 1.7203528568258692 6.6611851132631745 9.238055839349888 0.8231818716187886 -0.5850231568920377 -0.4061461106447392
Ni 9.23607994673754 4.79006894341287 1.365936367384985 -0.6223609741105475 -0.27265469162109174 -0.5197461900610985
Ni 6.210347771041869 1.8399981167909822 6.884007154721617 0.5513571320981601 0.8628501367426881 1.0967901854024014
Ni 3.4468950393689592 4.4701638093669445 0.5392553788046786 -0.05593074972934883 0.22599662544292046 -0.09884863213879751
Ni 5.978581883251821 5.6349570155170134 4.71471164722053 0.21142464116601653 0.9285734470824265 1.8110979223255907
Ni 5.313427860145869 2.7882641685859677 9.247245995582487 -0.449164266077478 0.5889677433620825 -0.2899296766514555
P 0.13753836603274078 5.534727832728954 12.39526517259896 1.5334702029699396 0.37492777606040595 -0.0896512819102456
P 4.029070595096949 6.23218183552536 12.5427524737168 -0.46219770222266854 0.1732103348798243 0.4702784223482739
P 2.3563105854406734 8.339475817765889 1.4514528192006346 0.3319497298369831 1.1509381321997145 -0.0758241462191662
P 6.163160929203581 7.745607308496327 5.848595216381346 0.6076972014507857 -0.6015622921976413 -0.5628167959983275
P 4.7607102467892 1.2201091769551435 12.636588425887915 -0.15774874890911542 -1.729072275281403 -0.8267487630344408
P 3.84702682688067 6.0771058436484005 8.236580533302265 0.7360782958310613 0.5202221012562525 0.12292547058234315
P 4.739128807845188 0.7378677734744635 3.7086809613556677 -0.544118962478508 1.654798504268492 0.17654325590779918
P 0.2156980012451514 5.480395297059705 3.504675011418019 -0.1404241415877388 0.16177278246684398 1.1283504767071857
Ni 1.4855735072434717 0.9320438832241937 2.7455794747548126 -0.5873919142345303 0.3225667459601864 -1.1705988438534356
Ni 1.6887836867317638 6.5190381356030915 4.826295445774074 0.591877975030342 0.11818872722830613 -0.14389230264199734
Ni 6.171479527324977 5.629687968550749 9.155920058592901 -0.8338851169689058 -0.25998892322796513 0.5129505072955036
Ni 8.595692248841168 2.3308134506347455 10.153513051439186 0.45979629187002746 0.6166330704878349 0.7492896523150128
Ni 2.3971276547478273 5.156619578855344 6.903141734868967 -1.412237032488355 0.0414675231161673 0.6423677562497776
Ni 0.5139576377281247 0.1636129306431907 8.935672090934931 0.14522516252080797 -0.875952221342285 0.9926080568658325
Ni 1.545535983506811 1.0808854376804542 11.344573900290591 -0.8936547808283706 0.6694525282817115 -0.06404437997541874
Ni 4.061099904566533 6.834684724840667 1.56467327035637 0.08010091921764916 0.12935040027208047 0.12031065866731537
Ni 5.605932145499083 7.745192280824327 8.045898776103963 -0.8718083743772405 0.5705373045710368 0.1798221837693871
Ni 5.243342317622003 2.6077902876507326 4.851635591851897 -0.2031505740826824 0.3523478338773609 -0.26655577781220546
Ni 0.6531651367895621 7.524713341244546 7.063873832128035 0.27672603347698793 -0.7515401389120864 -0.24295793588760736
Ni 4.995002389974032 4.5129116595829695 7.178494550559736 1.0768471666215713 0.47453205541830534 -0.2657857324154003
Ni 8.153859202634129 7.035585185110871 9.092852092662119 0.11301489633685051 1.1885554283318565 0.20578466927141978
Ni 4.70361687486708 0.1846710738268551 10.425075581803709 -0.9231162806225973 0.8345975696548982 -0.14992668176153534
Ni 8.157242580395 7.212161414865582 4.581155742370853 -0.1984328568920389 -0.2151671389275843 0.3964034294356786
Ni 7.397705851271776 6.211105647660304 6.930212365892218 -0.20224888820401943 -0.9363862582586261 -0.375973700826417
Ni 2.213865870537634 5.273070930214194 2.546750543908332 0.9049632638626544 0.013311115286609335 0.6623426567098076
Ni 2.523521625553292 5.2357815961190415 11.308074923240378 -1.1737397034752624 -0.037190750117684336 0.7156825057835287
Ni 1.1529919845201482 3.286026704765387 3.687104033582003 -0.12278843078384659 0.35939342787023265 0.17957381520400686
Ni 3.7330295521910384 2.7694345435541305 2.8848402056263542 -0.31806705831761994 -0.25748621141076944 -1.150526755693909
Ni 1.0743803300388852 3.4079004828823276 8.354805676841881 -0.2257289736038306 -0.24933144351411896 -0.7474687970561901
Ni 3.499964447340816 2.798161676329104 7.171191868000671 0.28489931331639967 -0.5871551156333759 -0.670681001372174
Ni 3.9924940259167547 6.890253321185221 6.056179426638892 0.3861475560356253 -0.4106838506140927 -0.6583638745677177
Ni 0.6196453366370557 7.4507121028587635 11.218122186504674 0.5606336723040797 -0.4296249104929697 0.6582553740143114
P 0.3411193637236243 5.432820494571504 7.9093573787180915 -0.6308888090759006 0.8658508712422249 -0.3135367745474342
P 8.455376806342304 1.72791357832883 7.994147532107741 -0.23565111781354903 0.17948048415925222 -0.9877414728021505
P 1.8161159809695768 3.08041658265205 10.403855036487522 -0.44296019414929516 0.8308453017013174 0.7645074977060318
P 3.9341194816158507 6.096413652737107 3.713315737771027 -0.26482542538466003 0.18522844238662292 0.8232978283713627
P 6.997619175463544 4.007218485932067 10.451789830369481 -0.3532942569510302 -0.2750630439522682 -0.5336391459931068
P 6.330489259745243 7.779251616950433 10.1982385987357 0.4202460403812311 -0.4349352669622896 -0.5685272161195435
P 2.2908895930564612 8.423988083062111 5.920839805033684 0.5153228641824222 0.27900943019452595 -1.344125424422098
P 6.9774001099645755 3.7810374270326315 1.6834135895497084 -0.36267132729055607 0.5155308664281701 -0.8296137432870615
Ni 5.181873110462489 2.9685215133445073 0.46984019619449907 0.9695966835723236 0.25272555679733244 0.709798536198926
Ni 1.4854923061772107 1.2583458568233399 6.893118816590161 -0.20462690151789276 0.49795274833509084 0.7224388506707558
Ni 6.8004990759448205 0.892262578628901 9.179622649834464 -0.3806633929926025 -1.0818795868391562 -0.6411140863483346
Ni 2.711520138628706 1.5690482033596942 9.031078832621159 -0.37148018383143766 -0.5884072428729221 1.4591352397017903
Ni 6.327214150072719 1.8028711848283518 2.5745862694225745 0.25953538063031434 0.6321728179946468 -0.05142720543204047
Ni 4.191418593574609 6.727706831212257 10.340259263626043 0.10551961640106988 0.8983982090506271 -0.24648060432888522
Ni 8.071025092707298 7.113502119358568 0.22963390868366385 -0.05691599646075359 0.494144173222278 1.0798952094192757
Ni 7.539131041676206 3.821556759096829 8.209444039191935 0.3016742187818933 -0.2846177775202389 -0.7917323948602558
Ni 3.053250314817426 8.30155491982204 12.344517212888094 0.7358155290879779 -0.2815260259687926 -0.3089172734975518
Ni 0.04491501645112175 5.066621730416161 10.171458487082848 0.283614275956389 -1.3910442004608237 0.23494714976798892
Ni 8.450450608322475 2.358548125933196 5.748552796045687 0.22847851132450972 0.33966843863747953 1.4250174720824749
Ni 3.78951842728655 2.6697376788671168 11.328463608744425 -0.21098446830480436 0.10830052158031672 0.04026861771205968
Ni 1.3824301084107162 3.4723560848121044 12.623395959322725 -1.1406349505014939 -0.15739933598949665 -0.3208798451760667
Ni 3.013976065769229 8.239986466914875 7.945526138098843 0.7553163181250669 0.4096950043382621 0.5380557870035637
Ni 5.972527892645035 7.936114032285133 3.5660918890014983 -1.6411192070091867 -1.211766576340997 -0.4806312263375078
Ni 3.0617674044341268 8.23430239227661 3.6251584468337583 0.7823290992684849 -0.4895300714890344 0.13712104535643482
Ni 3.293858096489218 4.228852285120892 9.320112223508753 0.7751315530787812 0.2900870281649262 -0.9336171801539211
Ni 7.250217647919865 6.164072185613842 11.466563164368436 -0.004030461315631769 -0.7189249239802263 -1.2393905087058525
Ni 0.5866416143723407 -0.1662312139130705 0.27287528093574115 -0.20489918134267293 1.0753726389585738 -0.18537088150175818
Ni 4.542586138130987 0.31092519835153715 1.4634426077510936 -0.08298286875113452 -0.32476941003846005 0.13567968492421792
Ni 5.959833459286246 5.51799139073851 0.5667157749459814 -0.25333747934971856 0.3462682033421843 -0.44523562044703324
Ni 7.868834437717615 8.998675096012706 11.196372932023722 0.5006400653592669 -0.19603376053224303 0.418314370576157
Ni 0.0857293790560672 4.755711870043807 5.641815798913852 0.028163864028725692 0.05407029948184235 0.765101679646605
Ni 7.919106920073818 8.78313137679345 2.4712173120724272 -0.06916498903143573 1.0807210477546807 -0.14666498029112804
P 8.611066317386568 1.661067056114704 3.7052082624219094 -0.4460437181706254 -1.2370340926585341 -1.0485683742815362
P 1.9153436839404172 3.1893433018707222 1.593895729635535 0.4307968193138838 -0.5338458626872741 -0.15679384119501386
P 4.529774414343153 0.9923221414118809 8.104780375951961 1.5805113635191426 0.2739304730097218 0.48980749352013714
P 8.65527578679529 1.6920858634263742 12.429888405018543 -0.35510457068689166 -0.1311522293675096 0.37520674075340543
P 6.20164121227056 7.670054227510891 1.3374131395097335 0.9773449600591749 0.10245897519787514 0.7915860990903787
P 1.8230722056459288 3.2218598177378723 5.873051173070995 -0.3485048059821869 -0.16720963721169912 -0.2925491165521736
P 6.733887134588782 3.9127636011892295 5.938032777463328 0.4086094845835673 0.40496417452149613 0.3406925090266197
P 2.426946490746975 8.613917377046397 10.115997256592573 -0.16307736021088043 -1.2135594065753614 0.27948225606588645
