# total energy = -381165.6748551152 ev
CRYSTAL
PRIMVEC
9.30291509675901 0.00000000000000 0.00000000000000
0.00000000000000 9.30291509675901 0.00000000000000
0.00000000000000 0.00000000000000 13.61575659717293
PRIMCOORD
 96 1
Ni 4.83657631690647 1.890808214354948 12.148754192317332 0.831212198122433 -1.3599369375330577 0.2933289321409916
Ni 1.8267669460209366 1.6431273996941813 2.456064506263217 -0.6881863572457889 -0.3591699990055169 -1.3039851047577864
Ni 1.1052700536745421 8.949088136867447 7.13863199209143 -0.4269291088283615 0.6025933045653171 0.35052080797095114
Ni 2.974997862154291 4.5563539048267065 7.403063635886743 0.5326243315753472 0.7037903823316332 0.9700646243476777
Ni 2.0979469245125735 8.502259816217986 1.5482888305438214 -0.5516597509402434 1.0053370743967267 0.9893450698438444
Ni 6.881068690598702 8.083944930699804 11.05580398926085 -3.156227876752803 -1.298643637940215 0.8717173573253311
Ni 0.9377803681595015 4.609799152731834 6.319699156666892 -0.73479994333927 0.2327786813617604 -1.0040497230438707
Ni 4.558781965697592 3.2285767250608104 0.6592669016045727 -1.4039809631271498 0.8357424818926187 -0.423239061571284
Ni 4.239775700090157 8.567473251868975 5.0270330395021325 0.39084136196686886 0.30726148306168377 0.5306234990952344
Ni 6.443822372619785 2.2125867486961908 0.14713025556893602 2.263658101458495 0.42712142734482567 0.3007869310809336
Ni 8.459792008265522 4.730541689295914 4.635579391373207 -0.18576554583701554 1.0855048422965692 -0.3573619992625007
Ni 6.309702243977798 -0.05915537726355477 3.9366420684210564 0.4813423934719194 0.8499568257197878 1.2989686253798016
Ni 2.9432842241893513 0.9824157553568557 6.1856246123094545 1.8263767028615316 -1.0322554960541255 1.0544572289621452
Ni 7.368457721581732 0.055156054013004004 8.449543916865645 -1.014516941123782 1.3748328808082837 0.9148008187783665
Ni 4.759864478050825 8.996077161613973 8.051691723652446 0.31017994226005935 -0.1599634971722471 -0.6619150822540858
Ni 5.441265805824356 7.16536577954225 3.647416294997067 -0.43788560783986524 -1.5743872528992757 0.0033434625509361775
Ni 3.653766464922226 5.12381312705768 5.009086785762572 -0.8176640271243532 0.8128321529533484 -0.7906265633905868
Ni 3.9292536931580013 8.327690612224998 9.974385679903794 0.7200235563610438 -2.5357741469672974 1.5525169351887456
Ni 6.72730080502449 8.014396336559033 6.830303612566763 -0.42932769096752516 -0.7680353083536322 -2.075747484254019
Ni 0.06928253076564725 0.5488747885077232 12.364659039481225 1.253817225654144 -0.19034108102283995 -0.49515230277181815
Ni 7.473710904314301 3.611838226052181 2.4281111066278256 -0.509357904848239 -0.6096149872987888 -1.4751290440268854
Ni 1.313273934947081 3.550885525569258 3.646599499041267 -0.125316596522339 0.616577534659551 0.9768104277119434
Ni 8.596861161030386 6.604027875522168 10.293185420793476 -0.15366892241278698 -0.19277103062057122 0.45196753985422805
Ni 2.6146773500809433 7.033115536858301 12.089675098958534 -0.34273653603984194 0.8698016283598569 -0.43628663878386154
P 0.8461113022225926 2.8147179359301946 12.202168740602254 0.7826941959173875 0.07861585003169042 1.3137766369269115
Ni 0.7190167351503097 6.649919156273429 4.939388414686853 0.8192673670557309 -0.18057397433374708 -0.1780013285105644
P 4.034841780838279 0.7160863168578615 0.6726807750518142 0.9552147038190388 -0.3805152974505124 0.032265544901925076
Ni 3.4799880087224393 1.7317934845999716 4.055371454132802 0.8010847826094333 1.1138162876467528 1.234892877945815
P 4.806816291136496 5.043845267877092 8.439018598592387 0.3712402999064897 1.6159535063768362 -0.9510657146476718
P 7.58887169174991 2.207609689056636 9.649419036518672 0.227531316919892 -0.12447970244334047 1.101257734255452
P 0.0033062560670987238 0.8086019480792555 3.453636571086919 1.9610055779237325 -1.5534749282266407 0.25513982266578
Ni 8.915606945011824 5.066981618014612 12.219542865056146 -0.7229954945051742 -0.18826105856535966 -0.012308899274340092
Ni 7.161970215489095 3.619727098153756 11.541832003748057 -0.3437783470407951 -1.311673988761612 0.4262030292956144
Ni 7.084765322127103 0.9745175803400666 11.866336292247036 0.1132313832230308 0.5497496784017242 -0.42245358955551116
Ni 0.14691535822748983 1.2398646309924497 8.89257292694166 -0.5830174393159185 -0.3009365692849204 -0.2578114559606721
Ni 8.132878264726083 1.3817340880078 6.550077479320914 -1.8900397882381323 0.25756925804287895 1.1574620493611614
Ni 6.0464948638246625 5.6981379007166755 11.076513208819007 0.1342915463274397 0.8524317696228416 0.5593743459756817
Ni 1.8243295822348367 2.3971100719682874 7.758094510369341 1.2730061398777688 0.4189784865227172 1.6619672541027892
Ni 5.173388362233733 3.801347911879047 9.991977492573698 0.1596076564947251 -2.116853510265709 1.0989380849833397
Ni 1.611953330811661 7.22597427216225 9.704602999277318 -0.05131356267231162 -0.5370841671189137 1.8961816394698119
Ni 0.621693357346258 3.2464383222719233 10.20988432709167 -0.1906573267116781 0.08307105758956661 -0.6132615829124406
Ni 5.737572958309335 0.8230577480304786 6.2346007397457175 -0.2825115298105135 -0.13444015609016202 0.7601764744308457
Ni 5.5486493561409596 1.766084030079223 2.2936011858383667 -1.5650821734482658 0.12069529570024376 -0.10403454721511114
Ni 6.0872137237168715 5.705198813364193 5.609610429247575 -2.009417907788849 0.168409056836439 0.4410580920305759
Ni 9.03570758042613 8.706365776015808 5.412726322530475 -1.5141966994523084 0.6530375772587979 -1.191674176466496
Ni 8.307400954143 2.387155952689178 4.302865280197764 -0.30443712623901115 0.45078457528972043 -0.19217659156968192
Ni 4.561237935314121 6.9035166250103766 7.004136025674791 -1.0019177643025325 -1.086969599767554 0.5574277637722723
Ni 5.886270755091851 4.340796056400301 3.965330398358364 -0.7424114371379407 0.627884217921622 -1.5957983715852002
Ni 4.322050682243846 5.739768446299868 13.12565797040982 -0.7449984811388266 -2.8895219465159783 -1.880471942044039
Ni 7.6680301973068685 1.0348469855036435 2.1768468090265793 0.4354808550531145 0.7708054148996015 -1.0267263387057801
Ni 9.04243358812594 2.3318408188260125 0.2850162042895997 -0.39499883577866807 0.49302702889869926 1.2738237506830579
Ni 3.86446819160686 3.71158408297799 2.9021030094110007 0.4608558434827934 0.47458553436406004 0.5271373403188471
Ni 1.8380420792604517 4.784693958757314 12.81276744126415 0.31631870816794555 0.5971340812229586 0.6178787699694778
Ni 0.06186717704847113 4.558223790784745 1.4973925814073636 -0.6705953836369031 -0.8262183444522674 -0.9685700420800222
Ni 0.10291908130534577 9.152328925550357 0.9456199348104415 -1.2066894189284059 0.3461555890237199 0.4313123254977217
Ni 6.427467847673359 6.84027540738478 8.95004540684298 -1.2841801542167173 -0.291616320325259 -0.18472450616701092
P 2.675211419379231 7.821974838270148 6.131106738280138 -0.8611917752036589 -0.403898195150827 -0.28876111026465107
Ni 7.824161023345467 4.796183059046755 9.430531674737134 -1.1550285002190042 -1.296226286747974 0.19627287312624261
P 1.1052142361832573 4.866475886404656 8.886554871089645 0.4663721453153323 1.2177076244157803 -0.8507638950021155
Ni 3.4149327226300894 5.422985577428608 10.399987538909196 -0.19377118975031143 0.5003091643824094 -0.5221332022360362
P 6.77626204779641 4.659699989940381 13.80542384568871 -0.09392008448892858 -0.19349839570489902 0.040090440262982564
P 2.3826347358951145 3.1630190815468975 5.646916979839244 1.7144887210402733 0.7883827616617325 -0.8400251684283726
P 7.167793840413135 3.4934214182916308 5.8883927500521915 -0.28270641943013897 -0.10224043142916585 1.1246069505043534
Ni 8.292330231496123 8.08564736418399 2.9999873530024637 0.13233082305664307 1.051848844805021 0.9159752987024419
Ni 2.2464400571603784 3.8576305489244813 1.3340864168641133 -0.0823668324336904 0.21238289131422775 -0.5568729197100667
Ni 3.7822955415205266 7.581596812052466 0.5477500660583359 1.8573109305465432 0.5976105066387449 0.3219633080482326
Ni 2.230746039194156 9.295761272321679 9.00219382836726 0.28595886492916556 2.1098799071613534 0.16096134230914214
Ni 2.833026073071585 6.876742835024136 3.1884020857086277 1.0243598953561326 -0.013834591890247142 1.0860774269705875
Ni 2.193134352983463 1.5048860796123382 13.652383448084242 -0.7109084814336531 0.5716472498057639 -0.4397663698023458
Ni 5.224340428861475 5.567580788601696 1.6619527789214772 0.2552375245859088 -0.28192608962068866 0.19484591087172892
Ni 6.43159834202843 3.0023949474598783 8.073857779733133 1.0773816989688025 0.8547604177560182 -1.5620842671622066
Ni 0.8369516519027688 1.7287700371553822 5.8066303585268 -0.4922760096652877 -0.3409917854345934 -1.9345561254829524
Ni 2.692031090086362 0.3414281518565101 11.47809680132459 -0.4994956673421785 0.8394351002528575 -0.2631056144800759
Ni 5.458625045613907 0.7963574510744289 10.109141197654907 0.13228737141321734 0.7793345354165353 -0.40926305900716614
Ni 1.9735018276932723 9.138672246016027 3.992670735881145 -1.1226315719455375 -0.8505499792190965 1.1701332170709267
Ni 4.65319725220571 3.3515891729371368 6.102459341169774 0.526375779562474 -0.27268837307250454 0.28888863698145084
Ni 4.773121132230949 8.855203116526534 12.2483809719284 0.38979209476674803 -0.7595748362911048 0.617111295675834
Ni -0.22182801328072332 6.7746433405491535 0.2536439833130183 -0.12945890082548672 0.6896624275706833 -1.2587488586278064
Ni 3.456330695332929 3.420774953384557 11.805814316738527 -1.9311522420077256 2.0640181116322323 0.699927042721485
Ni 6.1860665007821245 6.996303901356023 13.287590094375947 1.5019898729734713 0.4215817284735191 0.1974496670431632
Ni 5.9139469278538614 2.198595164214152 4.522908994340419 0.2756731667324414 -0.4554873800820285 -0.5304586913825962
Ni 8.655683493929274 8.920277008449313 10.369746552422653 2.6789920492500894 1.0991949381891521 -1.1652162393852834
Ni 4.4855122054711725 1.9591474295178832 8.000210321149021 -2.2956904473036914 0.1189456599989887 1.4104945958759516
Ni 6.224915474716295 8.49759905569571 1.7671482835797185 -0.8981264434464791 -0.9534373002036419 -1.1803199277959413
Ni 7.708228093947087 5.614411663789583 7.063568629811726 1.2175687848450707 -1.4787193324813048 0.389913965056593
Ni 8.598489171192856 7.377788545541497 8.064367875923208 1.7212692342972165 1.063200522372414 0.5497676761238531
Ni 8.959088770722628 3.476462203856287 7.891120616182148 -0.6001049909258245 -0.8050841335768135 -0.3517940182564199
Ni 1.5443676517810692 6.669418066562227 7.568399696529714 0.0965814333711756 -0.9902287580003785 -1.1674793243878474
P 7.593253364815761 7.000192519915525 5.053120274345572 1.5018764873240584 0.6663306948232782 -1.4865329149884527
Ni 0.48262500810187947 6.508524147933999 2.3851130325081566 0.0019535241819450227 0.8105675252888879 2.734926398523864
P 7.355266187808109 9.070044640481452 13.650340527903221 0.5348164541306597 -0.13944943637929533 -0.30431088507379206
Ni 4.0483217049835405 9.235394655497245 2.800134686040538 0.4390012095015472 -1.0165293435681204 -1.554173496955562
P 3.319931352463482 2.3050205142637004 10.075945605296358 0.2657713342376971 -1.9048097474584549 -1.5619922216690325
P 2.184836152612467 6.221557122323998 1.303935668655146 0.9885133179711686 -1.341673620447496 -2.1269913700306597
P 0.48088257208227453 7.533007685889111 11.750180092883518 0.843365031434883 0.3014181369070293 1.1965093930716102
Ni 7.304388544502079 6.024912100527901 2.7479732404349595 0.4799182594308832 -0.5506925019309677 -0.24351920770771607
