# total energy = -340894.8904633913 ev
CRYSTAL
PRIMVEC
9.05049207421339 0.00000000000000 0.00000000000000
0.00000000000000 9.05049207421339 0.00000000000000
0.00000000000000 0.00000000000000 13.24630998837529
PRIMCOORD
 96 1
Ni 6.461897333096509 1.7962330194206275 11.295777708768075 0.5335630413395327 0.7256172483987374 -0.03148650064405545
Ni 4.683846751832239 0.29984189043122034 6.065975421028705 -0.33147973217910004 -0.7679481479564646 -0.027962546651197
Ni 2.749919549180736 1.4693654552319653 4.9682005355352485 -0.011460435231115748 -0.32674273171474694 -0.024785177364479893
Ni 3.4821224420257666 4.427156701563138 4.706917360644768 0.1665943722252034 0.24058095101499857 0.569420160247458
Ni 5.10228719270882 4.327438382196911 2.7343165012058424 0.4070429114273958 0.92191403278438 0.13423806738168492
Ni 6.9581358020428015 6.116105190418576 2.635048896334481 0.9019622722528015 -1.3465414900627586 -1.1384256015550005
Ni 5.017665093773058 4.824219880655091 11.53691358371835 0.337018145498826 -0.8033010735344617 -0.6570562114998877
Ni 5.823683798267295 7.842106392968454 12.46063121976659 -1.2518073943129666 0.38806302789078334 0.07210504549636615
Ni 1.789906725607141 6.5547191776617675 0.4436496809167599 1.0838999597032946 -0.0118080483785216 -1.1681552674089495
Ni 2.753947018060566 1.5729121326569981 0.1690215557716508 0.6399195518196011 0.32689442680126285 1.018073033906156
Ni 0.8144664336008296 9.022399138039109 4.443011353211873 -0.705291906577824 -0.5624753534985087 0.7151178915293104
Ni 8.799295463080234 2.528834133907709 1.567144254191569 -1.3698233434088345 -0.26792077648053214 -0.4744212408720539
Ni 6.915417480441006 0.7218228837253062 4.970691230896438 -0.21418472040965691 0.28107222626082556 -0.9956635558627046
Ni 0.7614812340276182 7.517836319944985 2.3446892062299987 -0.22018387541588533 -0.21970565022788613 0.6006690909594107
Ni 7.619699605883167 3.975953480136027 3.7617799255001385 0.2149694210944814 -0.3584020104912408 0.1467498266954505
Ni 7.404931433931762 3.8631481495333166 12.654914508431233 0.9039039693602047 -0.4882188088767785 -0.5561386126472035
Ni 7.783260094863605 -0.26901229494300855 6.90560584221039 0.46962947591036536 0.015234300451251183 0.6995382919234985
Ni 6.741810945490654 1.1060153583363452 0.460717098475376 0.444165527311306 -1.1998518271812821 0.02654098371332203
Ni 1.95108693522714 6.376098670218324 9.237499463041951 -0.5686467724165432 1.0447721404638974 -1.225003129635929
Ni 0.08015296605293025 4.96242994192226 1.4784078016540745 -0.13290623594413886 -0.8650965095747036 0.20579521079438107
Ni 6.635476716571266 1.8986664863462914 7.195183569817755 -0.4425812135433217 1.6131867422649768 -1.7663489002446744
Ni 3.5963034473919246 4.37772291499767 0.5333201442147006 -1.3169804885761898 0.8558359102083841 -0.31663084009172565
Ni 5.779779862231211 5.6173506847338714 4.905320433206264 -0.12687468503807825 0.6875389534697772 -1.0537188081342241
Ni 5.274690012241155 2.9116970912638105 9.28163599671896 0.3384062840956043 -0.38508491909906584 -0.4519102042537314
P 0.3331820923627242 5.435381495300456 12.308563950405244 0.29000115331933923 -0.5133184321578836 0.12311804620912345
P 3.9163740921901318 6.309251737305004 12.683540309150372 -0.05666917055727015 -0.5592936133364175 -0.5902970036964673
P 2.45682842063146 8.651473779452662 1.1467624828099912 -0.4556740421715378 -0.6440564568061101 0.1760660591610645
P 6.208899883508241 7.683406018119405 5.794028956623133 -0.4917584465989208 -0.16600276138779152 0.13726117047872488
P 4.843796094558627 1.0845475916330696 12.570813717826884 -0.7078290711773809 -0.0040600290019865565 -0.23546702682720091
P 4.100814065902634 6.132215065937898 8.238317015726743 -0.6197690450136552 0.5775492171124957 -0.701664594237882
P 4.791900574205936 0.8760695115276915 3.903011946000959 -0.25930706666959213 0.3165539641072032 -0.6577108143647512
P 0.0016019370600673713 5.779037721898299 3.556369057087737 0.9984560310061774 -1.2031091577763153 -0.7068152852008859
Ni 1.4433814930881608 1.0414038969136281 2.359617992560965 0.36661257132649117 0.6048288787640551 0.6462802039303063
Ni 1.7584743673607344 6.6027772894637895 4.616921984688882 0.69338307095538 -0.008764376456191358 0.364800714928733
Ni 5.922397513036531 5.559282728929396 9.294710337266832 0.6613373553737449 0.32279763102406983 0.18701561619403273
Ni 8.745037764350835 2.39510406611361 10.12018035887687 -0.3704003205036976 -0.10359797389832481 0.67841899344638
Ni 2.4468819300720592 5.3289477109705565 6.997919049132848 -0.9492497444848554 -0.8860921379897644 -0.426588180549175
Ni 0.3671811701019846 0.04423337393996198 9.439968921598297 0.9263484144066498 0.21834862197935945 -0.2686298867324148
Ni 1.3312096969159857 1.1585353626277066 11.588401831937126 0.32086339011583453 -1.0263373307974777 -1.5672293016982557
Ni 4.143903457670887 7.065845705725637 1.5124503217542857 0.47705173651636545 -0.10440324340843955 -0.5791263317916284
Ni 5.776322574338863 7.7919395165619365 8.072566307715027 -1.470001492992333 0.413299690970385 -0.3266126338947859
Ni 5.115817678046677 2.623828096520518 5.146125060154291 0.1867443648105171 0.6185092044646251 -0.0012618974315591169
Ni 0.511680418165994 7.401591802433655 6.663993006338838 1.0248548327146803 -0.8969061978861328 0.43310207040829285
Ni 5.077226380735223 4.505063335535229 7.090590655533152 -0.3279490933180223 -0.3383939428004301 0.15461765947930145
Ni 8.204542390185729 7.169555292004236 8.91505758937517 0.021865689724839762 -0.6382833017677588 0.5037582992732743
Ni 4.657645577883679 0.30659174726397886 10.32948565393869 0.06678157640092369 -0.1061294820709269 -0.30136465796127454
Ni 7.94634090777521 7.180252973388415 4.597316809211379 0.6613766932521126 1.3983890708616693 1.0304595804959673
Ni 7.105215345337462 6.096510875531311 7.039459901743036 0.9288909783228453 -1.1720108937096139 -0.6855142097302646
Ni 2.260034525523523 5.165215262644686 2.6268491507049836 -0.2162994527598146 0.21363810387756754 -0.4231236190393422
Ni 2.4283917751922983 5.21722843939162 11.288372596324306 -0.6498509520007002 -0.5467008642730713 2.019219210149987
Ni 0.9709186662706636 3.188479233472739 3.7528253688491175 0.6627782015853295 0.4144242914931315 -0.05294209941467011
Ni 3.5474217408302082 2.6263803352263877 3.0056936896731195 -0.5763593105694526 -0.35933660649036825 -0.8403002764666302
Ni 1.3449573940585975 3.335377766930104 8.289209741580816 -1.0862877432091809 0.24842564387039795 -0.7492289742804064
Ni 3.5023050388842427 2.6505722999809644 7.250817848359789 0.18616663793017615 0.488825589222842 -1.2638483846379007
Ni 3.958875201987173 6.886799825164548 6.025851875444543 0.7484195910052336 0.4181120247573638 -0.23632423262117364
Ni 0.7573288683600538 7.305719942109962 11.2291217412331 0.39549274469595114 0.1939863910849111 0.11704921430722423
P 0.330128456407545 5.385712395946502 7.889263980829928 -0.23294991683230204 1.42315625050402 0.2804381922212525
P 8.57320512580598 1.629622514681756 8.02429641440337 0.49871405198114754 0.023620210522101254 0.6482900352714835
P 1.8563192349109512 3.055762820767497 10.51804631659723 -0.34981838258728787 0.8891100988804816 -0.1325200562493137
P 3.9694280755015154 6.188880195503332 3.4788515942658327 0.26769220540949384 0.4161217338002124 1.3395591452076543
P 6.8855418067953424 3.8907249982453243 10.407440255517663 0.24087071434127552 0.25641843226788746 0.5335478718308811
P 6.362667740290979 7.783486357160225 10.186517749098202 0.780023848174076 -1.0114966662402194 1.2049176717399634
P 2.4107342655640984 8.454824692214562 5.900303452296211 -0.5477660723127921 0.22632007022061024 0.007195746417490833
P 6.906538947921649 3.9514175966905887 1.5015490043031494 -0.40549793553777913 0.028815381569795538 1.077744738735176
Ni 5.025638577105936 2.71056801055264 0.8361695130925898 0.47878363160580767 0.16368362633631164 -0.5283452445840191
Ni 1.3847976592473918 1.08452949064934 7.100671093372153 0.6908775309247069 -0.9503470913140925 -0.17026745020141643
Ni 6.952886516761226 0.5749080593825853 9.193375600053553 -0.034136793782708945 0.32927963920398773 0.4896084901354536
Ni 2.799498143616041 1.6202100031423772 9.189733682127162 -0.0009412808673467659 -1.4138095191817974 1.001580692678088
Ni 6.358296352720288 1.9872436502269657 2.7385421758575115 0.5813202541191537 0.33007282452924447 0.6129358241419056
Ni 4.037406319897934 6.856417323974457 10.336757724152047 0.8751253545656155 0.8580714844071222 0.5368759077628497
Ni 8.322216885411695 6.812739650234993 0.3529899988579979 -0.8233099125562208 1.73620451545081 0.38872380140323376
Ni 7.703597665469747 3.8969969891076217 8.36201099309198 0.02172556460254968 -0.04108031498007764 -1.1413643724683507
Ni 3.293057666970358 8.415817072277326 12.235921082501715 -0.2660826948305289 -0.057319402546759345 0.9991288887034858
Ni 0.28134902040390025 4.8049151815075 10.047564642448934 -0.5666644518791918 0.19603453186319142 0.954205288717918
Ni 8.83720797350183 2.3984617985954464 5.877268140401956 -0.5942400475046152 0.347179402302544 -0.4647821751203931
Ni 3.8395806687174105 2.6808552457605432 11.293644507835545 0.09448649851535985 -0.128871660863449 0.7509480138540422
Ni 1.0533414956832825 3.2381573833185575 12.718430860338314 -0.32566955325522623 1.4147569706967311 -0.21550138233855146
Ni 3.184361259674261 8.434370580600142 8.097005350897511 0.3563376717630444 -0.449072220584304 -0.23072668392873813
Ni 5.9556580706396245 7.972324869919015 3.467195465793173 -2.3296557485055427 0.8105338438374751 0.6009573116237908
Ni 3.088534651809892 8.38141615269927 3.3493824980416758 0.24549767159032557 -0.17268094473891551 0.9685183629064805
Ni 3.3787296229624353 4.345937587568536 9.317705826996884 0.46589957655428793 -0.42300637673518765 -0.4754221713327425
Ni 7.4099273054411245 6.108122656593833 11.489424747854624 -0.4050888730248185 -0.4374408069929628 -1.3276487669233135
Ni 0.3441829652243733 9.101898658579401 0.30926435751165054 0.5637483066736614 -0.24706835851155518 0.8687017104274587
Ni 4.5464693358166315 0.46519799699763226 1.707568970818051 0.25203187316441755 -0.21670157329423967 -0.42216331200860197
Ni 5.9281626763544 5.643805272454645 0.33688012333867634 0.1624505252601589 0.06677514864302048 0.9284011831706204
Ni 7.938647989690141 8.648677177466443 11.764815829463936 -0.2746953762002043 0.6240121365607253 -1.1724880904563484
Ni 0.13747516132774779 4.910905491736026 5.703953936338835 -0.352711902084999 0.00497251351392692 0.08784970992513258
Ni 7.900880287138383 9.068864363272928 2.445269132421754 0.823482433578343 -0.5001145318731 -0.010950071253600495
P 8.534659080953851 1.5720432854379784 3.7163183998141247 -0.30936156012382204 1.1470061441351602 0.2742644593103728
P 1.8779499104677928 3.2693453782846147 1.6120491746278984 0.26500283150278875 -0.6099610577842979 -0.4365550619538998
P 4.883401046958936 1.0941049110422851 8.05126597511125 -0.8248577166593147 -0.45987008253075634 1.8696504259485025
P 8.413301035538916 1.7175118411807064 12.460830330587614 0.30851952383850095 -0.06910611076904229 -0.22562715791864368
P 6.517358747243925 7.864189593118534 1.3279162229263894 -0.5691877325216778 -0.3160726535954105 -0.9159084500202485
P 1.9268497180132393 3.3897440715618816 5.772251663098081 -0.39871793650146814 -0.33599716043347944 0.9987897601965121
P 6.7626542282552595 3.939289937591773 5.849689481591575 1.3080456479804052 -0.40736712753603393 0.6696245350832016
P 2.4253960623850537 8.518105731333154 10.21902440072896 -0.7981560389984125 0.28673508097355777 -0.47984601143205097
