# total energy = -381176.5445844437 ev
CRYSTAL
PRIMVEC
9.16532544221917 0.00000000000000 0.00000000000000
0.00000000000000 9.16532544221917 0.00000000000000
0.00000000000000 0.00000000000000 13.41438022998107
PRIMCOORD
 96 1
Ni 0.21252648273576294 5.274736441504863 6.304517579224466 -1.573650374733251 0.04872729000237415 1.4381856340333168
Ni 5.919333779398274 3.7724937759649864 2.737351839398037 -1.1214200681359394 -0.6645679464959006 -0.7860929371862914
Ni 8.002823053419943 2.7624565822989875 1.6717801058519908 -0.5637138538913001 -0.7981948626561479 0.7405283611826149
Ni 8.844978981080061 8.896332299496338 9.544425292510928 0.877713684118082 -0.3616410862538288 0.1460592283863291
Ni 6.158191325578286 3.411068332733239 13.320466049419535 0.9690816916091181 -0.946943464949182 1.0720811126914955
Ni 1.7610989518206053 4.201660139492058 0.5502916383552273 -0.5045548270326407 0.03706759427625874 -1.8607338401851632
Ni 3.7760224262577347 1.3445807373948115 10.595723864755945 -0.5355397054499293 -2.498528375241962 2.7644807151422133
Ni 0.07799233679516539 2.502656267498381 13.147474197950702 0.6538467034236546 -0.16859854713942576 0.7091007388009529
Ni 5.48224857469475 8.052563274559535 2.202493692544 -1.5239139267400723 0.29007854352449397 -0.2314008271776273
Ni 7.866525498865515 3.385002147194083 11.499517522503748 0.3995761707367054 0.7468622738204428 0.22429301248825242
Ni 4.508194448689345 5.523840821521998 10.766340980404387 2.6763785228866426 -0.6716814176122304 0.47213707282356754
Ni 2.2041691140336477 1.1585796230025338 13.14060570306918 0.39521480844421614 -1.2900206721578946 -2.1343020447594596
Ni 6.374108062192718 8.770538207891233 9.72576125625643 0.5338587182030805 3.292761167926568 -0.27480310542266223
Ni 9.009945673597386 2.9102474549497943 6.969119156413856 1.2155548397388356 0.7982028330759479 -0.6838723032514674
Ni 2.759514512834125 8.148496735895101 7.300964428334396 -0.8460855156898395 0.1921555085237594 1.1572201085536844
Ni 3.5283203410322637 5.047454701350152 1.8482337007378904 1.0593785775231628 1.4206784783874888 -0.9811810459758135
Ni 7.724637095795304 9.033958826238942 2.611015160527138 0.7460518621040054 -0.503999468749803 -1.2681732372655
Ni 7.135095867794196 2.098428754481873 9.70276912086841 0.5442901979490498 0.1228550223557239 -1.247151126487878
Ni 5.531200577846872 7.696389562802449 11.608683880703392 0.6027406287764587 -0.19557276173542446 -0.816400329920581
Ni 4.338571770850679 0.21427889295907046 8.32457546897068 0.3530584867911403 -0.04115744807491621 1.9969156615567802
Ni 5.145193731796553 3.340376177647616 11.179691658359596 0.40869484520852195 -0.2593343203631018 -0.025154130668124424
Ni 4.4180626383545825 7.696701183867264 0.22938059967948815 -0.9646305978163001 -0.580183312301233 -0.5075470768917453
Ni 7.353661383459548 1.846886397898841 3.911136737298412 0.21848514755722373 1.792753358380132 0.30064372063484995
Ni 9.171466203750883 6.546141220620974 12.925492765495461 1.7680106042178132 3.0266116244138455 -0.48216874602795673
P 4.014366714213346 0.3231079671826787 3.7984829727704827 -0.4662086231542745 -0.6256812967330321 0.5245695795916707
Ni 0.9623500054240051 8.300870271263761 2.670092098688087 -1.3337672211162255 0.1933778109666347 -0.07427762766765272
P 7.481755971749017 6.999357398091346 10.064192731035071 0.16256031136514584 -1.949139679724082 0.4169581136585787
Ni 8.138231571407106 0.7417140427427269 7.665151384119922 -0.6586718927264398 0.2509252703638001 -0.42566823983806684
P 0.555218000776921 1.8991287528823821 8.745142924173969 -0.2641708225197967 -0.5717542076972734 1.3175667000969633
P 1.6280367571449825 1.9615812804013029 1.4535417923046938 -0.5011941380905238 1.0469874029476613 1.191444062733561
P 3.5145081956006505 8.25153332444334 11.606510782042584 -0.7698204252785129 1.041499897470529 0.2359786763562968
Ni 4.010453120252298 0.6591757045314498 6.086130787405111 -0.24972019431210543 -0.28660781136707414 -1.0981999212657345
Ni 2.5619375924165473 2.6164071214809654 9.195423447907284 -0.48974964369900814 -0.34091593789133545 -0.6022441487560145
Ni 1.6090645334930649 1.0364150002699692 6.958267411097976 0.9792971986895392 0.5436137407073154 1.3596422891107744
Ni 9.018020325306246 4.093995061598785 8.938189424228677 0.19024312199239493 0.26231320048576756 1.318944040060464
Ni 2.776296223706908 6.186777975612261 12.035220712362959 -1.337166990826394 -0.4980077699427423 1.7739732495591511
Ni 5.538248713106932 1.291595991050978 2.3239470860227542 0.5846719442002059 0.4368988184465637 -0.2855186920679535
Ni 3.744896981078067 2.939713976225599 7.078231439193428 -0.07964763373031444 -0.6498355253817325 -0.0031022930744075603
Ni 4.674627593276384 7.502093828890855 5.112340622772254 -0.8110609199855386 -0.8183800793547712 -0.08221050936148422
Ni 3.3870368494408103 4.99765032293251 4.140482508741245 0.17202017122646504 -0.3993522276513574 0.26571708396099397
Ni 6.8584221888664505 7.757522283458628 0.17802361513303655 0.5606156745819506 0.3092186067880546 1.133205747916958
Ni 2.5788567831708655 3.2469540154814345 11.8934175468193 0.13203411775183066 0.680588490293873 -0.543771092220786
Ni 0.30876973207105557 6.37329234822894 4.386247044169606 -0.2692307535412073 1.3791669894072633 -1.0140757398213052
Ni 0.7117672584140914 1.7953131116721068 11.041658191167647 0.014248025278581914 -0.4975593695514141 -1.4488634254621369
Ni 2.8406459735910206 7.229462058480257 3.0929536348479347 2.03853642242136 -0.13629674968292657 0.8151572015420994
Ni 7.907833620604254 5.134607780918309 2.8643722515464405 0.465755594777256 0.12106784854831408 -1.2517462020577281
Ni 8.133263965020953 6.641827218169777 8.111461488874488 -0.5864673455377319 -0.45006698039740556 0.11950358938498773
Ni 2.0153175834308645 8.8489933936209 4.955406421466784 -0.1640474374336336 0.09911834086041639 -1.1222235378738414
Ni 2.0683481564018766 0.06730465080458517 9.36457869414873 -0.15994729922233097 0.3451163491259282 -0.26803699034342227
Ni 6.2363073942668334 8.623031460328932 6.8772303531930685 0.1174528775035461 -1.0530168969711928 -0.1750694995757501
Ni 9.046286188949972 1.1077578934615278 5.48024411802196 -1.3297087347761358 -1.4225227306850792 -0.950130604427912
Ni 1.9650182774396938 2.0929570551967553 4.756954212470096 1.1577222450010836 1.2980263160711902 2.159913574679977
Ni 6.7768324618377696 5.563462523380567 12.23521636216302 -0.371087062158077 0.5575123530662786 -1.379934206590591
Ni 6.908556518999778 6.271978840862613 6.135684035905816 -0.328370497126157 0.325837189181342 0.18600542976196352
Ni 3.6002956416788865 2.3798958986124954 3.181166226036459 0.21326066593349077 0.29205597896583896 -0.17286966371095389
Ni 8.091350931803456 8.163482042982485 11.623131183187699 -0.47292023084649526 1.1995836611215598 0.67503593590676
P 4.2350402547289105 6.710741300120872 7.153566748144781 0.6650721398258288 -0.42366380781352847 0.3146130383307485
Ni 9.051427936519405 8.951984155541963 0.38596926821603217 0.06562329442676441 0.6437353260212655 0.02701149559183735
P 5.2302846131416745 5.847156841592066 3.180684129918541 -2.679551264187669 -1.984692894238343 -0.9243519528019113
Ni 6.7336729443610155 4.7910180609844515 9.886398249037926 0.2771903747079162 0.6214415476200716 -0.6388867396797125
P 4.98568957323891 2.3401917088250044 9.313953102572047 0.46681180395591215 0.6673609358600056 -2.020022679887889
P 0.6178116743075517 4.629387546925725 11.935417650628436 0.21769119090101863 -1.2629153313006702 0.1803189209001475
P 4.48124839190836 4.7147258920576105 12.798163481879875 -0.5614119452310008 0.4442192633673769 1.3822034622407422
Ni 6.858394692890143 4.302790340349671 4.7726489157462035 -0.2502629541894528 0.5932200908805332 0.7457572136817221
Ni 2.451348775709283 4.779735545373094 9.769183818573188 -0.6219172017049096 0.02942010503332998 1.5935671682618362
Ni 2.364104042886769 6.68105481103461 5.672672875142301 -0.06202452133191254 -2.26109625426859 -0.2618583723365361
Ni 1.1432735295249 5.889949746051392 2.108378631774879 0.3346568443555011 -0.35675110515137914 -0.011627299826283202
Ni 5.796637567790439 1.7161155345821455 7.411471673645283 0.8178928553057075 0.6468545883765375 -0.048736803084070905
Ni 4.711774657267312 1.14572983674167 0.01290111208330393 0.15271375758836922 -2.0071278262030914 -1.057853656238204
Ni 3.1744012993323625 0.12696542019578907 1.721655057275488 0.22989930293143632 0.7135942557959323 0.7340916044183358
Ni 1.1834451509096122 6.1653127834418315 8.333401677365268 0.48563587864095065 2.4651333447212838 0.5756154904248926
Ni 3.190926381092946 6.909308075685506 9.792323515700723 -0.8239989682034454 3.0516346288207443 -2.027819293114172
Ni 6.232457957583836 1.251571014873237 11.648296417236525 0.7639673089318455 -0.6640611820628112 0.7548221520974677
Ni 3.9843961000385772 2.944489110777603 0.939959115384568 -1.0135615191890481 1.1554334489669067 -0.3045065460243659
Ni 4.62454825509567 4.775684471530511 8.442165677778283 -0.3779174548163492 -0.6190123693532887 0.5042367815715897
Ni 1.700296182880112 3.769661690405352 2.7580498938294986 -0.19072906048987795 -0.9980729366351456 1.3281719864166353
Ni 1.9868134213258097 4.3379027020938725 7.584423197682198 0.4699104974858939 -1.4495187996579488 -1.4299812438456534
Ni 8.39081877508981 4.857283363884627 0.38745588400170416 -1.0741027711072146 -3.60033889667709 1.7147684570642208
Ni 9.088355032699877 3.693818622424861 4.304969854738283 0.4020925094006559 -0.7889193508914929 0.5538397893106979
Ni 0.44024999157647493 7.989643315443392 6.849101052898334 -0.7955821076236492 0.2551123118619542 -1.089991160202697
Ni 4.997430355122053 2.5762629960725603 5.149605919461303 1.1309586037539943 0.2840865876071172 -1.0712431901712323
Ni 0.6539688831514235 6.40291468003715 10.670602740500602 -0.5806746501153548 -0.35456026814764746 -1.3208320011117962
Ni 6.6715870298595235 7.025396087654196 3.7388698630715442 3.4477310685389653 0.014297390459278603 0.9341961925858426
Ni 5.668130539856363 6.939297020511146 8.790053935341488 -1.1010438184724327 -1.4834205946117163 -1.130136622073331
Ni 1.349035085556566 8.505999419840364 11.529176515613702 0.32110507381299536 0.23700506073828218 0.8700165725841403
Ni 2.0062530765749487 7.582620378168994 0.6383310048930169 -0.11375717381951377 0.09820405657626312 -0.9631923227078767
Ni 6.1294946916390805 0.008608073649217854 4.357715386088244 -0.13240795615148165 0.9370676005963668 1.291423466042692
Ni 6.0891580943965256 5.639626377751309 1.0596995095393877 -0.8949444461740715 0.05160178333669178 0.7941281487859421
P 6.84406928923413 0.8352003621869583 0.5370660737514993 0.9690860624844924 0.4595600074895054 -0.005364092525390762
Ni 4.876842168364431 4.994836568023747 6.108130318048444 -0.4337093649749885 -0.7536898382652374 -0.49508031188330226
P 8.549305582524088 6.887247137361754 1.6998030883716708 -1.2388300082166923 1.5200613857632015 -0.2779344519627923
Ni 0.576002209267478 1.3666325103931272 3.2452199359089984 -1.1911165041908134 0.06494529452313332 -1.7016290914687857
P 1.7962571401919847 4.228184591303 5.376697937379494 0.4197565023393222 -0.178444329585254 -0.16795114336341396
P 7.943165950158913 7.89846665800896 5.256787068171572 1.0000848248588516 1.313193510729932 0.9934601204534825
P 7.147899827427882 2.6057845093009786 6.0233923017325965 -0.005446624936868039 -1.1288551842577461 -1.1277521810015545
Ni 7.004728278796673 4.215334805042136 7.439588142484407 -0.4287767035600615 0.575858459673634 0.4661718563790681
