# total energy = -340856.58431654255 ev
CRYSTAL
PRIMVEC
9.42255536949419 0.00000000000000 0.00000000000000

0.00000000000000 9.42255536949419 0.00000000000000

0.00000000000000 0.00000000000000 13.79086222974345

PRIMCOORD
 96 1
Ni 8.234502993865505 3.443849737191421 10.844044821196311 -1.4705663643568672 0.8963325847708498 0.7218626664523116
Ni 7.677479214654561 0.529062346353368 1.5501620502578937 0.04720082605551871 -0.4364337058846871 0.5865681327816543
Ni 9.56219757119647 4.669846675151932 9.16371111170198 0.02954043266127816 -0.4338692875916205 -1.3480237310352399
Ni 6.034364598601654 7.819364052386451 6.7207280254159025 1.9823519048099922 3.0080485166996778 -1.6992755036349447
Ni 0.24616237274392852 2.1778917421967123 5.3074408402360245 0.20244069249985133 0.45891466059602254 -1.772501292999315
Ni 2.3737583992516194 6.4225173416968495 9.043343621256884 -1.9695704367746076 2.683509991725101 -0.9963646956947873
Ni 2.541875630943237 5.731589629094493 4.587861021472482 -0.7055348758265656 0.0007209373264245648 1.1183324303495514
Ni 1.6233084048088888 8.948346360961418 6.035516034859512 -1.1894794828080224 -0.04371029640375698 -2.710252807036584
Ni 1.3146160705723076 4.878669345746577 0.7288412483695106 -0.9156351417542037 -0.5781048325056495 -1.7711445218611044
Ni 4.520697047282488 2.4114580430134263 0.6507716086734155 -0.77903603033951 0.3696361886441634 2.347920351142686
Ni 4.556257770990826 5.755824441330276 8.912992933469715 1.1611089020851293 0.8432297914085994 -0.11147197732976287
Ni 1.1097885634255535 1.147507052297964 0.5751386417783211 -0.6321550773828339 0.40308572655186065 -0.1780992875410094
Ni -0.10250326784874243 9.136194423454642 3.945593268958784 0.5585852744154832 0.5316915353484327 0.2477309317962185
Ni 5.504590849323012 6.948701097405571 12.328603272422162 0.8548252095556826 -0.12041658811756038 -0.7607464880017027
Ni 2.526498020690983 8.045005984194498 11.113062544079865 -0.681446210308478 1.4514414706019583 -0.6966954231580647
Ni 7.253464226081374 1.179958332756765 11.374399942137064 -0.2063217727218124 -0.10143644747063175 -2.7275612164080445
Ni 3.849113840714371 2.241135933381228 10.13964850804581 0.36475854883688796 -0.034990657142572 -0.5836357896262078
Ni 0.6997114186545327 6.760504400366188 5.374491743762397 -1.5306216777775512 1.598689062869434 -0.36585383878359573
Ni 0.26302874673383975 8.261149980258505 8.499598106976991 -0.2556596997249919 -0.053297940092192075 -0.4584202374581073
Ni 4.611351451839436 1.7493916172999513 12.471779942485906 -0.24340453650672275 -2.37586644273365 -2.763773404662543
Ni 4.072984332125712 3.7949153026194162 11.879696719508669 1.8377260664360802 2.5735783622992647 -1.5217472581060567
Ni 4.499062860309955 9.391376066133287 5.472641791061788 -0.5997951729948896 0.3186514700661802 -0.09490224589653978
Ni 8.779268028629033 2.565121074872349 1.0022753229229364 -0.7738873962590349 1.1081261792405108 1.1944285992831816
Ni 8.969170208178012 7.9600522255950334 1.1478971460874512 -0.7390592328362562 0.8893196437881264 -0.2586527209150448
P 8.66626332289663 8.70311493668129 6.258472538406596 0.4875456940691538 -0.34921314490312116 -0.28834716265568405
P 0.41133505590378794 1.9118270481446884 2.862638258521202 0.20815522638612535 -0.7038454039392846 0.6280199721685378
P 2.311324547823043 8.399925374740858 3.8477061109523083 -0.471016328955563 -0.7705310781922924 -0.3356215222616155
P 1.5530538324799628 0.28123877710976286 9.693224798454297 0.7016149719468691 0.043503836819905724 0.21840647180048836
P 3.593451647715343 4.191604880817886 3.3591371960076795 0.14387121959607482 -0.5836579011133948 0.4832663499675097
P 3.038783507329805 1.2246683576629822 6.3984219832795315 0.5218701783826367 0.3969107080894003 -1.3239000985141587
P 5.685004515683253 7.908614496203455 8.754784460933289 -1.6018882865330217 -0.24229124883788594 0.03255890777262779
P 5.802918372727805 8.049575923515787 4.414124177798974 0.4063721106126163 -1.5433195849601937 -0.6570071034295072
Ni 7.004802991671454 0.6132038806858313 5.5561868776436585 -0.5784750713608747 -1.2204332508770592 0.967204014970431
Ni 3.6962705711666897 4.954492648258763 0.17678409805805356 0.49442288080496133 0.6736804503201301 -0.24822818314761116
Ni 1.3820438763107459 8.721507764630063 13.149228689729284 0.23152475435000125 -0.4724430340997606 -2.0625392130938605
Ni 2.4712253112916422 0.7686279881306279 2.3283529897641424 0.9686219783638803 -0.7612223991968567 3.0965991093465766
Ni 4.516108262850597 2.920407945075473 5.42027782448406 1.3010018537597463 0.1743976703197061 1.540566704805405
Ni 7.126306842285926 0.9197770822350769 9.152388026996015 -1.7139986687777322 -0.5547885263772123 -1.8057428286612642
Ni 6.731030647382701 4.87776478043762 12.42227101016457 0.02200684328839436 0.8130794930774642 -3.4582733628311866
Ni 2.7227038897367484 4.329805499426841 8.71603137548876 -0.0656330646187773 -2.6674218279139867 -0.31522830331724416
Ni 2.5366649578614378 2.467823768827756 4.6625800005033184 -1.706852287540938 -0.23694438270367582 -1.68458267750946
Ni 2.363252250090306 1.0870802051486341 11.684390704494207 -0.7139372409576479 -0.3028913790184461 -0.5268650604940668
Ni 3.581974975357962 6.104581480709373 11.085025730779876 0.6893199566296 -1.1331540687434163 0.2492301420495643
Ni 7.778008457167612 6.436321385213732 7.752532694398605 1.803362501354546 1.5586775554735026 0.8401372685262047
Ni 0.03797572463214475 4.333461450883871 2.973737723571618 0.9590258500350128 -1.4568646985000586 0.07456481989076835
Ni 2.6519028092003283 5.857946095689303 2.3583478100558093 -0.5803828299065489 0.6566731171288562 -1.2204198811406206
Ni 5.090837023473298 9.28722856238441 1.10258501989746 1.0055291358028746 1.235854470528136 -0.3992624961510285
Ni 6.714588288381362 1.5710886033272755 13.32086995710371 -0.13768540250033706 3.396119772120577 4.104066342712429
Ni 2.6677232795517587 8.979054468689418 7.890868997803903 1.0881052560338937 -0.23273857215244434 2.7540775175310177
Ni 9.062528886106525 1.8408092488363306 9.451401512426767 3.004596553595335 0.429773263145376 0.09110626918921728
Ni 7.05987782740946 4.730801185398153 3.3235566849332083 0.5675561104555258 0.06282670551823373 -1.179431097433085
Ni 4.459912143031697 2.2212731868054 2.9993887458692354 -1.3128281569707132 0.7283809271868036 1.0997695797456994
Ni 0.7475582122206612 6.24836025205689 10.866096427368706 0.2718849033346027 -0.21600043346215703 0.3122597076072235
Ni 5.147362932727754 3.275562899504374 8.325294967729857 0.1965585226874615 1.04235787459545 0.26021852274026797
Ni 3.7008970458197883 7.731875626410851 13.416040592416728 -1.0103859496745438 -0.0734222216458929 0.4503081498739342
Ni 7.72741875775318 4.077252749677348 7.318245236035586 1.4871378955623036 -0.5939435993101191 1.1285975597209852
P 6.343867272594174 2.2726920710863747 2.02376794738354 0.9564030677001851 0.6993979096908923 -1.1168651017754057
P 8.632200785481249 4.123828440533288 4.88720618084985 -0.7540513353697142 -0.22241070786387504 0.999675248125259
P 3.23672312655107 0.42557536373113586 0.3718102631800558 -1.4053467331264249 0.2984708813532473 -1.7635248005323176
P 2.1309768393499144 6.062933786276185 12.67788420587603 -0.08090618872776388 0.6214099230511878 0.5622154149689027
P 8.739175055820613 0.3332296104975466 12.890883895235882 1.1397085820324826 -0.39697087190337443 1.6499604594499004
P 5.958626099087181 3.247549642592639 10.680747226541476 -0.39523949103456446 -0.2670178050502885 -0.2832373522329445
P 0.011931781778449469 6.073185526444354 1.9014292583693435 0.30320839603823263 1.5291767178009084 -0.05049080966070014
P 5.30214724866757 9.204489104280828 11.907899369781967 -1.0828751179832061 -0.5766896973256778 -1.1404842838562421
Ni 7.436657546255595 5.8856107180548785 0.7246698831374807 0.3656635771496606 1.0790246338888643 0.5706113523420818
Ni 1.7855930747688 8.17352021595338 1.4492813464320913 1.2525267889774945 -1.530323944031474 2.215127243737643
Ni 2.1626743153845855 3.003656221165342 2.0449781193675007 0.3489120687229346 1.4721553061105421 -0.11817535749186746
Ni 4.819966826217444 0.9218698317675682 8.146855326705307 0.0554142151042465 -0.9955848801059692 -0.9543976072343822
Ni 6.5301888811285345 4.023892819004239 5.410223957977224 -0.24353309166478707 -0.38610256173030283 -0.19188888512593405
Ni 4.722528181843326 5.906868002815347 4.5013647905701415 2.463000871759313 0.34445531850316163 0.8213391619830952
Ni 5.930452658735318 5.730854669780967 6.9010163717906305 -2.311667796568554 -3.2733511388310728 -0.20171718407026548
Ni 7.558689059966957 1.9307475391903541 3.893173709304776 2.3065633854624537 2.8385256579737694 -1.1489087604745116
Ni 9.014502121734136 7.36612971982292 12.650964907634812 -1.1473552999444627 -0.5183819627237202 -0.3523696882542318
Ni 6.301842675948921 3.890309252493082 0.4464321898912858 -0.3406449436181359 -1.1998343436797851 2.693554777555613
Ni -0.25974687072228325 -0.2071774924389796 10.87792833006096 1.3566811495999216 -0.1330656443401386 -0.47068619930965394
Ni 7.99531142753372 7.094976845908019 3.2490996529397567 -0.913854395704697 0.0025420496955633636 0.11631130769993517
Ni 3.895915672897549 7.149608821546849 6.812148483718872 -1.1388174376767806 -0.5204581285264586 -0.001070350246043318
Ni 5.948468584472027 0.5649839539297583 3.3358305054691066 -1.0937087182636 -2.8317736839619165 0.42694247856480017
Ni 6.822316363144857 8.851473069905397 13.222871612944676 1.629265135884078 -3.4879510924012767 0.8304041003988407
Ni 2.377367237932142 1.9811205198328485 8.148041626417783 1.1690309851456835 -0.7784192226911175 3.148419436451978
Ni 0.09618073324135114 2.316855587785098 12.496562205184713 0.3007380801208691 0.19970401029497864 -0.2657818757606584
Ni 8.681782271478406 1.3641787114588622 7.1315448407781 -1.1635668767073186 -0.7497840754529281 1.2393344586569364
Ni 1.0960222101298775 4.517757210028382 6.0679927562176275 -0.25941685277457904 -0.4277564898256633 0.09400827332736068
Ni 4.288921031973084 7.6766406072327165 2.4826445060616837 -0.3985960662116232 -0.16371962178056965 1.5666795998423726
Ni 6.840954177531473 5.008804257017339 9.482886038711621 0.015118857919309446 0.08651427894316067 0.7006037570735353
Ni 5.06530189860589 5.344812579073333 2.2580880526243843 0.3048045368807589 -0.16500748735405776 -1.3163503111913588
Ni 7.400380708344333 8.075214696491512 9.884007044668445 0.14996164876452883 0.3983381845645462 -0.06820108245626964
Ni 2.56645907772518 2.96395899567959 13.130238471774387 -2.2043517503886942 -0.4030607868511962 1.352780786104251
P 0.7250458430940155 2.964467813665878 7.5443328547094 -1.9822775999286315 0.9382832181710227 0.20716535166903033
P 7.827326111616325 6.40345551232166 11.045350177171319 0.28906578598926347 -1.3275469512381266 0.586625725492467
P 0.49981567695265 6.2287236468083 7.471227017146201 0.5388451156740783 0.18543593041173873 1.1413438036430603
P 6.675861586091678 7.822445227970083 1.4696642180605695 -0.14047556365096453 0.022796429069225254 0.6026041031985945
P 3.3335493048305826 5.016078469710194 6.625916389459877 0.9026904086680776 -0.3204921228193448 0.15359821707585158
P 6.555064427124829 2.2609798348464536 6.949753596832763 -0.616917434497473 -0.47303798737128216 0.11074255536290604
P 8.550356470131323 4.208358184144179 13.457964367720253 -0.11952210132774897 -0.024700330960157463 -0.5102991857155857
P 0.9762049969143965 3.6664481836370424 10.952757552988825 0.9321567935583108 0.40325207692639586 -0.0588270974405374
