# total energy = -340885.95304368326 ev
CRYSTAL
PRIMVEC
9.08124133884611 0.00000000000000 0.00000000000000
0.00000000000000 9.08124133884611 0.00000000000000
0.00000000000000 0.00000000000000 13.29131464534525
PRIMCOORD
 96 1
Ni 6.151705502493008 1.873559972608583 11.124445210860019 0.5132001614124645 1.0483948248181492 0.5821244951880039
Ni 4.830802631314017 0.35181182835061053 6.28128936701376 0.5850002740739022 2.175395729475976 -0.3594163106883681
Ni 2.771894523894681 2.1056310938770193 4.897397189971254 0.06385926054780615 -1.7767323003615272 -0.5051078713226334
Ni 3.6715367739271176 4.971879714816469 5.223233943848607 0.9110043278504117 -2.1701360237389333 -1.7519432663423053
Ni 3.536189953681186 3.221615755256665 2.791734311749706 0.11171648924040116 -0.3243901723221703 -0.3334491972006451
Ni 5.126869259981344 5.008132030062159 2.6925281074815484 0.6852581278554005 0.105295930426038 1.1630863375264742
Ni 5.353527961438551 3.180495894677386 0.9783684389343416 1.3615454196707584 -2.0784180891076462 -0.737381330913201
Ni 5.747181609051314 8.186956976341447 12.807949333171035 -0.9268073563209394 0.6504446197206412 -0.591730136598568
Ni 2.4322379370161036 5.519896301944821 11.752445738809499 -1.0749867163740647 -0.5627592032875146 0.3275534005415004
Ni 1.25025081391159 7.992082619413277 11.638606022320172 -2.6775236922346792 -3.450026292331046 0.2646467337149506
Ni 0.7469684213975327 0.4062084637017329 5.24406177075642 0.13290623594413886 -0.15862292398395264 -2.1182087387420228
Ni 8.917897006855052 2.607914549848735 1.256912812524876 0.4386700514143736 0.439158818125334 0.9529426199554104
Ni 1.8627805391925927 1.343714949309545 2.8906217644484444 -1.725288125648622 0.31730601178187934 -1.2550798944166512
Ni 1.9684952690961681 6.790607152491817 0.69299678813897 -0.9248636023310072 -0.5347331503882339 -0.8019008507528254
Ni 7.840035396427661 4.241048659198392 4.003809403509535 0.6207954293956405 -0.31006629950033054 0.6383450082436297
Ni 7.27166774755943 3.9689746700298403 12.574128256705244 0.36731396826889 -0.21872811680596524 0.48593695482113736
Ni 8.136447112264161 9.555372901970701 7.029470134124043 0.4105938620034477 -2.7696344914290103 0.22989673182827502
Ni 7.039051751813354 1.052297916184751 0.8229502591803886 0.17571510357954898 -0.46149990482469544 -1.6571312661667268
Ni 2.0414902866174236 6.881710165153329 9.387097500792686 -0.5376333547541644 0.012362635330410966 -0.237156755824798
Ni -0.16804473764914515 5.468678101046603 1.4954452369740006 1.4050821666111286 -0.9790832829065201 -0.9880003828904919
Ni 6.464191015419906 2.2012565647029487 7.218566097216835 0.34513177574489595 0.9395176047987561 0.3454289952703406
Ni 3.818625639166204 4.610355498901914 0.6195813091458017 -2.43475447531911 0.2477882673967152 -0.24594092977533127
Ni 6.168169792959048 5.925183019655213 5.012858816155691 -0.5834077327758017 0.39293038328541363 -0.25088027605847757
Ni 5.2137767391650245 3.4813392562653633 9.160985490061382 1.1700565981967204 -2.0009952309427925 -0.42920556356736406
P 0.22394613468268507 5.918408413649881 12.530812551981072 0.1477510142664552 1.2163043163103504 0.34344333229887947
P 4.003356249568964 6.483797415373675 13.029316395326223 0.32146168582146567 0.8565365358198345 -0.7445364539007435
P 2.6597411939136526 8.672939604190415 1.5432416261526365 -1.238401662430022 1.884687265676967 0.4076499488837754
P 6.577688369112448 8.139652790440946 6.051309655615335 0.2538540139748209 -0.3950168335007971 -0.18010243401396725
P 4.905659303300546 1.3368767746151555 12.761762139949699 -0.866696764182288 0.1173718877539656 1.0699949195864282
P 4.0760243424036355 6.3980977412821 8.635034503029214 -0.6209291267600273 0.6689856159476221 -1.2410054186014563
P 4.72524228251244 1.8597019983939231 3.964612949836327 0.24616718685352443 -3.065476419799843 -1.9573019038199
P 0.31833383232024115 5.970507494953618 3.734951990007321 0.673346464019479 -0.7718654807329997 0.3802543304796419
Ni 1.1845661956320128 7.739378917924849 2.8888536467685006 -0.7527061341957294 0.8567386245283115 -0.09903195179419719
Ni 2.269393118131909 6.826023993538458 4.8856342581231225 -1.2522323976655272 0.6950074939326804 -0.4424050929767736
Ni 6.102557824609824 5.873519837933587 9.302458515684252 -0.5003775557264996 -1.3284388669247766 1.6727774573444159
Ni 8.568759604065527 2.553799432977727 10.355661831626014 0.032432409497092536 0.737257403740827 0.6977009816044435
Ni 2.5864646579122827 5.779465421851522 7.017601859876901 -0.813593199489089 0.43514018388424414 1.6636716383884058
Ni 0.4076414835779278 9.37184101541875 9.100363663803215 0.9759107987158095 -0.9368287451126832 0.6631055030177612
Ni 1.5331496427026026 1.1650960142976543 11.839916254953406 -0.3754764494750243 2.5810996103769743 -1.0092713764541263
Ni 4.30360933047283 7.298502815583231 1.8167631651834537 0.8346469348355948 0.24740183059157392 -0.123872922097277
Ni 5.539974926445878 8.053217535804555 8.405666867294006 -0.13454762820230376 0.6204688992941572 -0.5956482407060516
Ni 7.441341659896722 1.217876188698443 5.053995931093429 -2.6132036900003706 -0.4391526474777469 -1.6550093347277175
Ni 1.0509811361971195 7.891725821873168 6.894205045049758 -0.5286285801523928 -1.1081171803794465 1.5334504054755977
Ni 4.865029829751141 4.937380079140524 7.285687367869124 0.9670548909870763 -0.6989345969012285 -0.645503730775598
Ni 7.827730314474277 7.387517142747122 9.129591638907987 1.9663748126554457 1.138820008779942 0.5808068048178449
Ni 4.417233821543489 0.1545790730583865 10.542883426515722 -0.23483067879478267 2.3453965562795673 0.17353043722340436
Ni 8.532716157369599 7.233163284472826 5.245483893143062 -0.9992723562598854 1.4002253527394593 -0.554771814206664
Ni 7.170112226168513 6.247140267251764 7.2130238156551 0.5304466071977381 0.9237022350330544 -0.4764053611816182
Ni 2.7663731291879228 5.527597194562142 2.589639459868669 -1.5132327928771423 0.24466849082081088 0.7918031001971911
Ni 3.455984430572486 4.613851776800108 9.691082971868392 -0.10288063611632606 0.8418784195870275 1.200467863498726
Ni 1.3954053747550526 4.013935895676486 3.8878428603091515 -0.589764528231765 -0.48687000815836795 0.30289009346686546
Ni 0.6902642426336024 0.13468025713495088 0.5884253865143108 -0.21863221465804927 0.2081814516383705 0.37739346399207907
Ni 1.596364163350209 4.245898042049395 8.536945291440219 -1.672008440388875 -1.497918274007259 -1.1949865286691805
Ni 5.628135616928132 3.1887234992897593 5.11659746795369 0.8971802774831258 1.6245777577107374 0.7967185352209376
Ni 4.340942313432507 7.221666432994609 6.245309489006891 0.6546481162790274 -0.7863274217946006 -0.14786182881270662
Ni 7.964185046158077 7.592780439715639 0.41660285248685724 1.062540777301228 -0.22243410490264273 -0.08760391246291364
P 0.2641932879736098 6.019791391456213 8.154620492341733 0.26966347020325165 0.8776059548956241 -0.18424293854490206
P 8.63022144514339 2.066418293969482 8.251181331020947 0.3788173409227992 1.007785021716587 -0.579963225870627
P 1.730712047053799 3.3709658495779604 10.58788733399645 0.38744750579397147 0.5461102818769239 0.4186424433395371
P 4.223140451366604 6.676129024739522 3.944104782622064 0.7709275422997626 0.011823474997489316 0.2623489388197095
P 6.775904622836814 4.036066880709989 10.492402622410577 0.09010893827295449 0.9736865373709812 -0.05636783726676744
P 6.170067772389497 8.073432378925023 10.554061526424519 1.9498637023743 -1.2132837843164717 0.21067876413892747
P 2.7473297661943836 8.869584803170916 5.841731860908033 -0.5746014473380815 0.2403462092963732 0.22089195722650345
P 7.013787738533416 4.395956473191622 1.7983418672185534 0.45179938970747996 -0.7274051935370957 0.1749085485178536
Ni 2.6370290094373323 1.798685138139467 0.6231157282574306 0.5877644670826007 0.2850911176122316 -0.6611951733689257
Ni 1.54143173476274 1.667779044886307 7.256180598656625 0.62546892361191 -0.13763243777521458 0.5507344109124966
Ni 7.0610011120209775 0.7666583687712062 9.267302306262748 -0.04064014211886549 -0.4497972716757866 -0.17593056202446475
Ni 2.9350753487067545 1.937101417942774 9.386007751837406 0.3044044732288628 -0.15848536996482382 -0.041228410522167705
Ni 6.839128224725715 2.354684136365255 2.7759038919259873 -0.5250377774773409 0.04915615000967664 0.644248003991626
Ni 4.099771788387472 6.9773356359792595 10.799126995860554 0.45494539153562946 -0.06115625979434628 -0.30041592089476005
Ni 7.413098999472348 6.398243041142803 11.467626227484802 -0.44258764130122485 -0.5230377163281766 0.5060918325024574
Ni 7.967445211782627 4.171386457232039 8.389916362393674 -0.1745660775767703 -0.32303031586016623 0.3152635274305538
Ni 3.1146478140545164 8.436745599374497 12.639082743184781 2.3545972489422287 1.7815790869308674 0.9369860966261542
Ni 0.32036076537706426 5.401722108985863 10.305407150429092 -0.4970361500580924 -0.6899817585833149 0.5345110070750988
Ni -0.12335776548957869 2.546561683666401 5.847858974409101 0.7380122796289805 2.993740841827754 0.3242233077270029
Ni 3.715671606616008 2.9975088826030762 11.689724329564157 -0.3856081385923875 -0.9109786168187988 0.16758476116293075
Ni 0.7737789700698398 3.765627514974359 12.607436433523414 0.8557788317182036 0.16660825618227434 -0.4449404578041176
Ni 3.092471422814543 8.641736459104195 8.00212919665684 0.4827243614211106 0.6566219521759465 0.9726526967898282
Ni 5.829266949107874 8.60864441582882 3.9157940128879862 -0.07326152769831254 -0.32861166660268565 0.12109535935213983
Ni 3.414156233172274 8.992345022983349 3.719760889570701 0.7088199743357405 -1.0621887932784482 0.6995861144422983
Ni 3.956397150837636 2.5024540947013922 6.897740372285517 0.7264268887842263 0.6274993237783774 1.5768557690444263
Ni 4.92566527787125 4.984275609182792 11.824511745346378 1.8723120319410658 -0.923127850586823 -1.2283087969703943
Ni 8.070599031641292 0.17571929466671335 3.0480568878937966 0.7533028872394639 -0.995932236143059 -1.0049943463453275
Ni 4.65943960809604 0.7415741640688905 1.6485349864601695 0.33403875115552795 0.15976732200104096 0.2951850115131239
Ni 6.072063016344536 5.929160603341988 0.5151969810917989 0.3424218330129006 0.20235198944078703 0.30185162490002204
Ni 8.142204619244563 8.828909923415043 11.335032839599215 -0.6113525388151858 1.264206539308268 0.5895912358786943
Ni 0.4005917159613875 5.216401217898993 6.070834324397457 -0.3374632034560446 -1.1061464298063206 0.04477216200936805
Ni 7.378526713866051 6.408877174698089 2.9635241533085006 -0.948262955091554 1.3787329871936385 -0.393243029429826
P 9.04311824305816 2.1242748822536224 3.538267741689256 -1.0778537535092145 0.04704887385868671 0.9559258709534505
P 1.8990419356795762 3.7585804717302067 1.303110903235766 -0.2667300986065407 0.13834617601278754 0.8905339758112019
P 5.044856569855137 1.2602310980937075 8.68528918422614 -1.0412042206069811 0.6715690604040822 -1.2860753143569013
P 8.595476615952506 1.979973958091797 12.465352240361456 -1.082053136302543 -2.3858351239105877 0.9316101770262214
P 6.372397828420048 8.164099492004423 1.7448569884933498 0.8598763988263449 0.31519770718962486 0.44983095312719945
P 2.191621367690004 3.5545703860602633 6.195374467503516 -1.7496017626933222 2.329984078379239 1.4672660963390407
P 7.081978779410141 4.339988783096636 6.354710294751705 -0.07737606408731836 -1.1926828202366686 -1.1180550083184486
P 2.27682157351041 8.993988727657564 10.195328884083743 0.656728910067456 0.024615998776467283 -1.316678641065055
