# total energy = -340889.4313536561 ev
CRYSTAL
PRIMVEC
9.09109113341329 0.00000000000000 0.00000000000000
0.00000000000000 9.09109113341329 0.00000000000000
0.00000000000000 0.00000000000000 13.30573081532392
PRIMCOORD
 96 1
Ni 6.381063954497099 1.7364710847803497 11.461157350330168 0.1997232935686883 1.3412475886536708 0.6774121494484204
Ni 4.768813535356087 0.42811401478494254 5.858752601668977 -1.232515121742258 -1.910544850170019 -0.9175123041722587
Ni 2.730990970437214 1.6766062514054199 4.6361954290806935 0.32341263890024946 -1.3477167413177822 0.1202828907531735
Ni 3.7079105041709406 4.220238930115386 5.082389805386678 -0.9166682110044084 0.3478337480570913 -0.4813706756066936
Ni 5.048246395408512 5.1162932105658925 2.6209233150633415 -1.1678223095495628 -0.09482536991201734 0.1537224013585417
Ni 7.393393287167097 6.308271589905896 2.6049429955331287 0.27450922833132724 -1.0236160752115726 0.23683331104710825
Ni 5.308306140818268 4.433688652637782 11.704399486740643 -0.4742718597783832 0.29172070711360726 -0.44534463522107176
Ni 5.354079783345645 8.242619358549378 12.722553481330657 1.1119023584534915 -1.3319394238788675 0.10256027666242981
Ni 1.8625008775026963 6.464665626132005 0.4113000422220067 0.5243433225134776 0.64470000392738 0.09764381319741894
Ni 2.3059642901115165 1.6905519847990633 0.5186349156805408 1.3144921749366973 -0.09119265825543649 -1.2689381404559825
Ni 0.3730938237343104 9.165274170883718 4.888725023923334 0.6887468577349494 0.6850038457527492 -0.4898306334485886
Ni 8.645309228608985 2.385738612490409 1.3595126383174618 0.16620330743437184 1.0245727826978872 0.01730892359209277
Ni 7.015976649724392 0.6121122393268644 5.033664285654011 -0.17187567522880076 0.32372708481687473 -2.142040551054298
Ni 1.0403935301838039 7.432903168085463 2.6077239602300746 -0.9581663302481951 0.3517811627406135 0.3912663653194294
Ni 7.8392840210380434 3.767257145366315 3.790695795845775 -0.16037590211931735 0.8277939164695034 -0.34723442391019554
Ni 7.52408680950544 4.015898480644118 12.628548874413909 1.1299949542891443 -0.5044848930266538 0.25999149433112645
Ni 7.995287140356767 8.987388795842374 7.041805347993414 -0.2663400622569736 -1.9333839595517217 -0.05544558256281419
Ni 7.166761482884087 0.6560567543713194 0.5930027663194076 0.3747549979279675 0.11966171222940684 -1.7500385931204248
Ni 1.911320035471318 6.596940998281621 9.355844345015123 -0.10796447839713663 -0.18496516142290725 -1.721952633517486
Ni 9.284367461272721 4.90710720966124 1.3014705686618446 -0.6470949865221178 -0.18733854675109027 0.4199714465636058
Ni 6.261788842290708 1.7153615717816273 7.099591957995602 1.1456997666189108 1.268647605798757 0.27486481189853307
Ni 3.43124133574281 4.1598013580156845 0.05499382688711097 0.3284787405692472 -0.029914528171245257 0.7548090394713451
Ni 6.251406816517865 5.654922162395482 4.780655590322554 -0.5318164909620712 -0.12412926108245718 0.29481682954042776
Ni 5.247586744901616 2.611206757142138 9.28352744447639 0.37841059240268377 0.09243861484739564 0.10220854974996592
P 0.14562563909131573 5.7634970606486 12.47643765109637 0.1244971859448372 -2.003403583273969 0.5784971828480617
P 4.160401370013064 6.16705967543167 12.686760947468784 -0.17774473241506808 -0.0289220823509889 0.4219740788159313
P 2.359783548058302 8.604326590969778 1.281227436622975 0.8515303408544947 -0.8882323242612187 -0.9123515859069256
P 6.445247056034988 7.756200541582692 5.792755827502644 -1.4124982565695414 -0.18941676943635766 0.796123839059732
P 4.392396917909014 1.181650900112378 12.718228849404088 -0.0238202423480493 0.7931765835059501 1.5283033140570197
P 3.93962422824994 6.28722571454326 8.162187750300628 0.18878273539678456 -0.24954895884156378 1.162268212500553
P 4.741312985476184 1.2581615208691599 3.720042564936141 -1.2046340790612737 -2.321132027305248 -0.6853072359257811
P 0.1686042803727846 5.762987959559915 3.8007814520562757 0.9931474743090702 -1.705246633616715 -0.1327213736268424
Ni 1.1756235068659724 0.8837458525224402 2.3597317288403463 -0.2579533808551751 0.6846742303274725 2.285841836644386
Ni 2.1151695660356387 6.060966644985894 5.267166227307019 -0.6327808838922908 1.2388999422226792 -0.5193348135552927
Ni 6.081303415260718 5.679486289924572 9.378982989495892 -0.09097128627324978 0.5637249096348936 -0.6126710005162933
Ni 8.793803106869595 2.607024855342219 10.451678074647724 -0.5951288778674718 -1.025869904242756 -0.6986690019446677
Ni 2.6352526924916733 4.77875009767633 7.32431190586878 -0.44812116952494435 0.651110278329098 -0.14831022920403492
Ni 0.3675073483950706 0.3064715825161633 9.433403168549145 0.028583725174963673 -0.09725120574469058 -0.0510893624766475
Ni 1.685060965913952 1.304589721939132 11.39847336967664 -1.1327426922376105 -0.616035546113152 0.9880394636585436
Ni 4.107718498424952 7.129815289590887 1.5794297628843414 0.3177582688279495 0.2073836383274235 -0.9546655161837883
Ni 5.686731889347475 7.816510838410223 7.968110233311815 -0.3652550288573323 0.22323706041991234 0.3617526721310286
Ni 5.4582455025271095 2.8361203452508343 4.825935586615722 0.8378068206208152 0.49959876857894603 0.6135726863949562
Ni 0.6153859411489316 7.281027404021442 7.033941554391392 0.6994899551840663 0.49111335681575424 -1.132295834508179
Ni 5.127284339426984 4.326368324924639 7.224532638031795 0.24391104382949605 0.42780019857940516 0.12533870800952607
Ni 8.180227201912759 7.386874975013745 8.967091117258288 -0.6281277013909956 0.08646979885847043 1.7018743747103722
Ni 4.45068899256354 0.3183672749187595 10.865179979078297 0.3303319917279021 -0.40331378340226676 -3.303991489424748
Ni 8.200582154369322 7.290491229616477 4.8108998314268385 0.49337284227389216 -0.3914363152383904 -0.1367991432406418
Ni 7.379029363593461 6.114613172206162 7.118020508296941 -0.6126208640046481 -0.6676208743896115 -0.8852755556257399
Ni 2.2526359510716776 5.433126818454986 2.6907383473948183 0.8243319260628319 -0.6283524158072921 0.3970310357173485
Ni 2.3932569446393943 5.57141140166927 11.508459205232688 -0.7048854151680247 -1.6347585548984815 0.019586149662043684
Ni 1.2227244486602797 3.3497851615530796 3.930912235869804 -0.3130708906546092 0.6469687453568987 -0.5039732434975579
Ni 3.8740320076272945 2.9027489502325903 2.452605404052943 -0.16619173747014604 -0.10785392096120135 0.287351374401318
Ni 0.9329095628350117 3.3121116809903297 8.106316633144623 -1.0107818995613818 0.29020401335876467 1.3931859293941748
Ni 3.7757300420565865 2.2790910255016006 6.865184543692002 -0.7055163638838043 1.1431767430867408 0.5533767336313501
Ni 4.433361373366483 6.7849811218240745 6.171809770410926 -0.24054444135010827 0.1619306482009469 -1.135855269724663
Ni 0.5934945943354416 7.28240924983359 11.133130791362683 -0.3018678228499382 1.8525127378269515 0.43210911036740424
P 0.157727699256647 5.632830811582865 8.25665782106989 0.22443365183117478 -1.2347581521401638 -0.20765848925536493
P 8.359221690040167 1.6070230418911127 8.079811557714915 -0.18217500027227979 1.827624459225704 1.4351355343530834
P 1.9067381256731457 3.408331786751948 10.265384349661282 -0.2701560935689541 0.558229176627645 0.3723780130553587
P 3.923851185591549 6.213896975590764 4.050383715638973 0.26870522005504044 0.5913015337015817 -0.26762612805824876
P 6.99263981946267 3.968570261578076 10.290784857550356 -0.6285380494555369 -0.7199191695726956 1.2081904289539644
P 6.004174600324817 7.769255348071137 10.418041038430982 1.168896516450348 0.30165647817008046 -0.10907545207312827
P 2.2849275058397485 8.561080271704093 5.555807453301049 0.443017786860108 -0.3231503863777983 0.3978021095554181
P 6.6504784324114565 4.11490046021177 1.8389585885873252 2.4464054292944772 -0.37884279484409594 -0.3064508142349303
Ni 5.704350423452352 2.70216312129038 0.5847298736282632 -0.27408011121370857 0.6061715088348787 -1.5576694259239623
Ni 1.1183678165705575 1.1279861907103717 6.985627861075109 1.8837020189455624 -0.7615592137109852 0.21512214462226179
Ni 6.710006895424219 0.49490262296599946 9.352026086849978 -0.44433162057552505 0.37148686869965697 -0.9391579074664922
Ni 2.7760282346041696 1.602177490457728 9.31269439131265 0.5458128052411632 0.18824768882892096 -2.4536597968640455
Ni 6.475802212447006 1.8694282887451712 2.709658725712192 1.687991703191009 0.5284244345613868 0.4313367509777539
Ni 4.034262484200284 6.803081483745029 10.395341493639204 1.3911218477762946 0.5564407172686546 -0.5727281415747685
Ni 8.283038348554685 7.256790555763651 0.273700018150188 -0.8902449838158732 -0.46579133311119786 0.8541148137522193
Ni 7.442366993680499 3.765529838101131 8.06763676882263 1.1513561935737398 -0.4074018374287113 1.215975472216022
Ni 2.952895407468142 8.058597497171196 12.069614971127539 -1.436626774186629 0.2617588706441944 1.8709873995923711
Ni -0.003549161875409661 4.951089907287346 10.44817800466301 0.16739449952899557 0.09327962269145226 -0.9185320036860245
Ni 8.438932374782976 2.26480892174579 5.880773951081899 0.35351897136732663 1.5130844402247359 -0.13250668651287503
Ni 3.7322655366100346 2.5885517586956195 11.308952488776676 0.20178043320803316 1.5935620260555134 0.4083068657414839
Ni 1.1242497523630526 3.473614910285034 12.4403387474722 -0.4712847521256012 0.6038734568293213 0.5239373453243106
Ni 2.7047631732790256 8.301229621384332 7.74183298157271 1.2162999454349763 0.6067831742769485 0.08751109563879121
Ni 5.654894889122873 8.194672945304218 3.6407009784826307 0.27243280541827275 -0.512262994310176 -0.34626151847396497
Ni 3.294784061793273 8.43305953008135 3.388091382040339 -1.0509011361797709 0.47777395939437073 1.3476730325640403
Ni 3.82778562837471 4.48062595479644 9.494503481173224 -0.9577217865116088 -0.12507928370055232 0.4361974215041649
Ni 7.036049778364004 6.302835117566001 11.64211460497628 0.8340746072718925 0.07612650795093341 -1.3036714301721095
Ni 0.4649547514240566 -0.09409824515270296 0.09065817636772598 1.5837854062847239 1.090513351254754 -0.43800310725433594
Ni 4.993954400736518 0.6082094340166355 1.3558407467153155 -2.0862275578497362 -1.0621525407238739 1.8222930197104614
Ni 6.182714533908759 5.827043785825633 0.43823603535892086 -1.1031135565172678 -0.028752903762976286 0.7507055588259329
Ni 7.810528900618165 8.93042402045478 11.265855263401248 0.7992366736571009 -0.6070073744726127 1.2611168446393506
Ni 0.1602877504454671 4.728785462258164 5.969110262841582 -0.1953912418522377 -0.002064852948828702 0.11781386038739064
Ni 8.10098925389516 -0.31712634101508785 2.5510010078596057 0.02416785549545515 0.25692134004623496 1.0892707370969048
P 8.624717907789819 1.678597200305816 3.6690815459586905 -0.38433132876249293 0.008828396924907377 -0.5633166184528815
P 1.9393478686216459 3.54024351526679 1.6357263430930362 -0.6816195026615487 -0.3554177310519363 -0.4983389280299159
P 4.642147366272884 0.7754645965044027 8.14982659404552 -0.2775948092351864 -0.3033752606334001 0.7896346317909626
P 8.608653950223609 1.6765244315875953 12.511178345744655 -0.02339498188517261 0.3758135210994689 -0.4729132888679598
P 6.452365380185721 7.85199336607345 1.4169010585395698 -1.0978980737545996 0.030668889838766537 0.17330340881426282
P 1.872319255641637 3.0956982628445124 6.139955497113672 -0.45271033155752355 0.13760955495707913 -1.209535373017633
P 6.9367841571611395 3.9227784368689615 6.002880028985016 0.21516559626568751 0.8551779649094111 -0.6549630764162849
P 2.3446923372151156 8.763547956456266 10.076376024941238 -0.20500665345481467 -1.7824866863468012 0.02636203493329653
