# total energy = -340888.83262089663 ev
CRYSTAL
PRIMVEC
9.09307621321504 0.00000000000000 0.00000000000000

0.00000000000000 9.09307621321504 0.00000000000000

0.00000000000000 0.00000000000000 13.30863618026714

PRIMCOORD
 96 1
Ni 6.302493050518049 2.0168897980983598 11.45270692040481 0.3915952094137578 -0.2135738262985354 1.037211297397504
Ni 4.674586872189541 0.06411437198174849 5.963773228845395 0.018821760692193393 1.2742726652950183 -0.36645650536460117
Ni 2.857253727498753 1.5617176756330882 4.729010752713326 -0.44929102146332944 0.21234663875965362 0.5537032637328335
Ni 3.7002455559620637 4.6848165830746 5.325264682551901 -0.4292503007623704 -1.857672941871652 -1.5468345400919876
Ni 4.93223919034791 4.705657914051096 2.2358774463417403 1.6766251132252803 -0.1567532177650655 1.33348002889311
Ni 7.485902378007119 6.112038566529095 2.4419083701050126 -0.5953319950172133 -0.8747520303865968 0.7039467054038393
Ni 5.2523427568250245 4.4376213027098474 11.639334128561302 0.23731179334542357 0.225201897455767 -0.10986683762617208
Ni 5.66924212096566 8.132165499805305 12.486961607343904 -0.8167366302140773 0.24454636342064984 0.4419605492401873
Ni 2.0010405660337742 6.331654546347727 0.580000965184392 0.09126773446774604 0.36754948131846377 -1.9698576289977234
Ni 2.2511001654463434 1.6193586865667708 0.1096197632290307 2.0487573288184198 -0.1940496402226787 0.10876023482555462
Ni 0.8424289670377239 9.246931193986539 4.558180946086269 -0.014294562245801189 -1.0396682435784288 0.4942390469289295
Ni 8.853855689862664 2.365991185030991 1.4792016450574772 -0.4102027972126161 0.3698483046549695 -0.3390619154017322
Ni 6.962814068341394 0.29084386542294205 4.507595253086558 -1.428482804923256 1.1498880936686453 1.9506769423042145
Ni 0.9295851944707979 7.356926183168287 2.568806796999635 0.31813005034507147 -0.5958726980120318 0.8729268042523999
Ni 7.101337993339615 3.9190704381389176 3.8675827119660524 2.26373549166365 -0.961503365041228 -1.3007779106743984
Ni 7.749783453459946 4.027487187367865 12.79990073897094 -1.2593152726542376 -0.09008605545481904 -0.5700948177169795
Ni 7.9961421708012095 9.1108987719061 6.9851175659937255 -1.0832340439845214 -0.8727918213364324 -0.3783332021975291
Ni 6.760120303595736 0.8820956939656311 0.6271667521717738 -0.0757794090241598 -0.7405818401283697 -1.2048400244244928
Ni 1.9397350453341544 6.7578379414338245 9.214340699068188 -0.11031472379686807 -1.5402622861911086 -0.5454968166626412
Ni 0.3889636150018973 5.095678144523965 1.5319169365365495 -1.298177496937074 -1.8197013477238853 0.23645278777923792
Ni 6.353377905729422 1.9715789986848022 7.0403089021608 -0.36479531561209433 -0.28827722864969707 0.5137334082081152
Ni 3.4013288573624494 4.124346636565781 13.569485980738333 -0.9125369624448543 0.6809595004800466 -0.3399422611241565
Ni 6.050742138905817 5.4499443988190075 4.896659801235855 -1.1588599581499526 2.3339312359524453 0.5239262895807171
Ni 5.332289084026309 2.744426836243802 9.385423293217562 -0.9770317996941303 0.7008726944642057 -0.5618762864619291
P 0.0904579234529541 5.765265007140087 12.599459329235264 -0.287097349408983 1.0756122657732057 -0.004662438472675842
P 4.088010703502049 6.0650455479922165 12.621085392700099 -0.6306841492642622 0.34687446946761546 0.6772026045407756
P 2.2284765915067624 8.40194798180427 1.308317279972367 0.9544621419237306 1.037225181354575 -0.04374500629643434
P 6.407609013034752 7.719030669270371 5.88663575292624 0.2057684713215037 -0.16672241316263545 0.3008735772574689
P 4.600296438473152 1.1357343282265198 12.783850549919192 -0.2817643672318438 0.022123828482232866 -0.3467829381950737
P 3.979412092746256 6.223383286340256 8.333615331707339 0.5464252420141815 0.5864328927553707 -0.6167924788838345
P 4.797634381253209 1.2822146950242317 3.847326975106 0.7733904020179583 -2.2922613670174843 -0.7598941673037364
P 0.24944945399000246 5.620557790229118 3.7578001826704948 -0.2898671988446363 -0.8794640911502855 -0.02190451338257518
Ni 1.7625564528049213 1.1656869216979746 2.5230377065384264 -0.030511538325295837 -1.043897708278744 -0.46562575406761103
Ni 2.0131798229507116 6.455975086099313 4.946247983760819 -0.6604624089679593 0.596206941422999 -1.213699788807968
Ni 6.160422825746342 5.522898150313082 8.760808967575064 -0.11896185794890479 0.3477501872043495 3.3458621615166053
Ni 8.69353566087201 2.642675311973742 10.34360530347718 0.5861636982543841 -0.7240997833129466 0.5063885378072698
Ni 2.266485650617473 5.504157319971653 7.021343472833717 0.4582801123358172 -0.152497270702189 2.016719583656585
Ni 0.4816993540785913 -0.008436556230362968 9.061437892449929 0.9709876503825793 0.1671661855682734 1.1753978079039757
Ni 1.2190541867507878 0.9442705127635724 11.487269703581799 -0.6277795740229575 0.29895656274041416 -0.7517064892866215
Ni 4.052147610408116 6.7669673900814695 1.6036240272640978 0.8068453392422943 1.2977890032494037 -0.29763167328140355
Ni 5.456391389945681 8.016992594854047 8.219919142354065 0.9569658821821906 -0.5399784579475733 0.004681721746385485
Ni 5.314521212853503 2.8382037325616865 5.143814162757067 -0.36195578928077016 0.6872329921935841 -0.2754721064652288
Ni 0.7355362174037415 7.758521899824873 7.054615039170101 0.5592964415498948 -1.6651569646846804 -0.49281054201251895
Ni 4.965974503577751 4.407532313093259 7.260739621619699 0.24848117969868178 -0.7911117305571215 -0.9116134221893204
Ni 8.155862056753275 7.256756854181783 9.090091085312073 -0.8173346688093923 0.12673224592294302 0.3886312416894275
Ni 4.58825720539598 0.2396853086136673 10.537991633676533 -0.3343441982110887 0.2503678551984333 -0.3354826826909061
Ni 8.374514170479625 7.350297330514768 4.821731942867872 -0.1108968215525832 -0.8746072772786163 0.35679327124322424
Ni 7.368037922458547 6.066946000947753 6.998213414541871 0.8120780483961433 0.5232691156126923 -0.838764299438078
Ni 2.5966097872237754 4.9871249991498825 2.613217381855307 -1.4180940054897642 -0.12014122296898663 0.39619337030740154
Ni 2.283235097239944 5.564708115334863 11.398527643634633 0.03618879121573122 -0.5788998176031191 -0.031912275327564396
Ni 1.0295181034724028 3.1867686279901233 3.691589856591852 -0.5161155352870466 0.7621891339855003 1.02663403610229
Ni 3.7597779267749396 2.8064507099744613 2.7629130604476475 -0.096896136398117 -0.44399686294392565 -0.4886085881160295
Ni 1.405816881744779 3.248801594797125 8.028102515529039 -0.9511639307884328 0.31653339528191293 0.9618782318821434
Ni 3.5031349400905634 2.386095976823761 6.924297615570785 2.117333278115605 0.28860273030991584 1.3375218030626514
Ni 4.395784058459039 6.76017486205379 6.089286780213088 -0.31372060842346616 0.7879464454552624 0.6611787183086936
Ni 0.63727097860331 7.492103856072551 11.387601403101753 0.1594140524266803 -0.3226755036239088 0.06551685075588717
P 0.29952138817637525 5.710079126818818 8.170264580371803 -0.31649457162417755 -0.4931190743918733 -0.6485641148684765
P 8.755141253090924 1.6879932267982642 8.133613117558994 0.9457057358873389 -0.4877745222505083 -0.4394472959000303
P 1.7464162422973828 3.404638737151038 10.435461742071578 0.09247229629880849 0.01301826663653887 0.19845908214428404
P 3.957643267982849 6.164905712383083 3.7624712959875217 1.1325172064903657 0.36047611941145014 0.47346890426111365
P 6.84945977865859 3.9234260217068675 10.312848882057068 0.6439708390708393 1.037103053954414 0.10545688148393452
P 6.426095237238598 8.01449199885992 10.286217989373446 -0.020655728577138623 -0.43094568618692236 0.1942663842191751
P 2.4678609192935004 8.424835254957776 5.83593003131881 0.5824587385989711 0.10632977100719107 -0.006792854552117335
P 6.995121768585497 3.917479149779019 1.548153533653316 0.48678259065088425 0.8199397105324072 1.0188901304908131
Ni 5.349447719084182 3.024884589868597 0.483320649590419 0.6691869333251507 -1.2041075171338422 -0.4095116846828624
Ni 1.6195132688645897 1.0363924691871629 6.933878990112639 -1.6305591721051533 0.28468128376832263 -0.038524638437759454
Ni 7.030930303221377 0.8019629586993308 9.27542707662796 -0.37408239734097515 0.031264357330920346 -0.14355960189292696
Ni 2.5178273737943027 1.4160647787825233 9.584919932321274 0.7046105642400833 0.511049690728365 -1.4633683039465313
Ni 6.685175168382703 1.9708333664247357 2.6560575924266683 -1.3330745659245753 -0.3653995248549965 0.20953770855594878
Ni 4.579573317489106 6.646529593928034 10.567549587634735 -0.4547273619875523 0.6797749932536422 -0.6689326512224996
Ni 8.022930373705552 7.4456291428871815 13.690593936618194 0.3588290707263304 -0.9048719897004286 -0.9151186071291013
Ni 7.7678059307703355 3.504007875419422 8.222301528355743 -0.1833746770073358 2.134340354196563 0.0017599201139001947
Ni 2.965424963666459 8.278645866603016 12.530241013502598 0.8661851146531921 0.17700528314588224 -0.19347114201138937
Ni -0.36912797826885807 5.137560854156484 10.357592273506869 0.9317955535641501 -0.12988853216373758 -0.3786985559567478
Ni 8.450659591769838 2.0672199756528533 5.797135330412127 0.7502988103058176 1.350725960457751 -0.3360393265253245
Ni 3.677349189732215 2.8030680855751346 11.334433276420835 -0.8448619276953836 -1.013509840015506 0.5086307968742273
Ni 0.9618292431805059 3.8410427500458537 12.615482239057988 1.4289592303390422 -1.7463935401686697 -0.17447891717960276
Ni 3.134701672854255 8.60881546859103 7.97662479174015 -0.06167742240513894 -0.49311007553080877 0.48958457887605356
Ni 5.773776126596456 7.686923016705798 3.6141195740785697 -1.5004508106211256 -1.0531544509903217 -0.4881267633836045
Ni 3.139284583330762 8.276554459044293 3.6471656321216663 0.3737067591691112 0.4408652592934795 -0.0189711417858641
Ni 3.385115902244173 4.38799129203371 9.211186310885052 -0.09943535788020294 -0.6254866642237228 0.6108318904250255
Ni 6.967051441916894 6.312313572967707 11.602602646676681 1.1038599477649893 -0.2513998960073735 -1.0774724589103961
Ni 0.42165686168291366 0.12357036095334938 0.23868416090838282 -0.24868249707621046 -0.07190861321484389 0.7849120295043127
Ni 4.433283905294583 0.09844710032727713 1.6817190041220944 -0.297914494629145 1.5991284643996977 -0.45161272761797067
Ni 6.042785697106327 5.663777182083952 0.33543449319019136 -0.2503943375609946 0.6350786787875321 0.622641995686076
Ni 8.009799971467308 -0.06811623487998383 11.474320253562764 -0.8053222177295485 0.5190021128062223 0.15457960715251443
Ni 0.20324935171017042 4.951416488353767 6.026377240846691 -0.38949153280719373 -1.0926129140962602 -0.9901968763211786
Ni 8.099621379576302 -0.6425995213398832 2.597207202339463 -1.0916479790798295 2.0879969910453333 -0.5121465233369695
P 8.496797861130542 1.3997154275191126 3.70791920308731 1.3061738848789892 1.730088889471375 -1.8201417776954136
P 1.8817939628811764 3.1339378544415037 1.5333681915207766 -0.43110869412734787 1.1348381413140585 0.3996928988202278
P 4.728517907975575 1.0703096439438495 8.279195997721724 -0.11345584052901106 -0.9705863011791026 -0.3084151370501527
P 8.259023007856387 1.8851311218987916 12.547528770244533 0.9745149468095475 -0.8152029671783703 -0.09025523404283166
P 6.174708048680056 7.896745753303798 1.3824749547741586 0.5545149610008515 -0.7980418820180514 0.8738174343874692
P 1.9905835282401576 3.420424317681228 5.929756030248943 -1.1340110174270728 0.2860318842589461 -1.3878529472170356
P 7.149167574899982 4.006800438689189 6.101570617043867 -0.6558426508077608 -0.6063219183698139 0.2979499758527708
P 2.4193948223891732 8.370213145369728 10.32627753719934 0.3236818334012361 2.3777263787605247 1.1552771258947006
