# total energy = -340874.0664182729 ev
CRYSTAL
PRIMVEC
9.21115287278520 0.00000000000000 0.00000000000000

0.00000000000000 9.21115287278520 0.00000000000000

0.00000000000000 0.00000000000000 13.48145330692366

PRIMCOORD
 96 1
Ni 7.737755145762717 5.033554143982006 0.9912775424289035 -0.5005960994952088 -0.39815177958535297 -0.047127806725738186
Ni 5.157794171749721 8.988942863126294 0.5960840887411422 -0.7674696656581492 -0.0674696036068838 0.4721069909165805
Ni 1.6684621463304572 1.0332426330655389 6.862396275742296 -0.8776465783255725 1.827058045199273 0.06969129384855094
Ni 4.32357691531356 2.075677996536785 6.041686253641735 0.49900638641058576 0.06325376575332332 -1.7116021435210973
Ni 2.0239021071475256 3.5742496422631684 8.982974957284753 -1.8755109984943374 -0.18779054668684433 2.2061970311275485
Ni 4.975275180778689 4.7825778660618585 2.7025733910966556 1.2232506657211966 2.785182723576255 0.04111990996876144
Ni 4.318344980573638 5.977605185345677 12.964035159034959 -1.520356034185485 1.7708506447697698 -0.45831687911102365
Ni 8.15739684097636 5.379313183299677 3.3645393284888807 -0.8312551355452265 0.19031151333648513 -0.34607614193603625
Ni 5.5256968221849485 4.257846129566939 0.2792066187492177 -0.61923476977674 -0.21078880735423053 0.31381008281347894
Ni 7.067376662599418 8.494957954381126 12.763430990830896 0.44782883509550614 -2.010771079382634 -0.14183721988518153
Ni 6.667612634936394 5.969619115945128 12.285945098821902 0.9357499102262077 -0.15488376865649453 0.05375019713826227
Ni 5.53590277938888 2.1134897784159716 1.058588040865483 0.9590669876855933 -0.5683950614170533 0.02263342112879973
Ni 0.9539530305281354 4.702965873179566 0.635322678175283 0.4956112446861077 -1.784309598488153 0.28009340728732407
Ni 7.15546291597595 1.0061526329421067 11.410850588884289 -1.8395206964426578 1.9158384944687907 0.26624750254316726
Ni 0.9572598343514309 8.903813389770034 0.7991725048313983 -0.2795143948554025 1.2402495142720382 -1.1630611407154936
Ni 6.764209993418009 4.85728952570183 8.479186618709129 0.6728628395148413 -0.8782680139596551 0.44438149997685406
Ni 6.226287886240753 7.219056714293589 8.360104836459646 -0.5811086523289799 -2.177845990788682 2.925082103008775
Ni 6.488133324360033 5.944325290600366 4.918924111837811 -0.4176062887655389 0.048020236633020526 -0.6953947020687701
Ni 2.9212802377239027 3.5552930899836634 7.02314931285693 0.36852675763006854 -0.20249288589402545 -0.8075300240141448
Ni 0.8962626599830597 2.1519739744430715 0.14819731485409277 0.38480775417827917 -0.1352901627952831 -1.2503367233047111
Ni 4.203279260906207 6.94099964740272 1.7494742344248417 0.49428944055089064 0.5937615652063 0.4846262064295138
Ni 1.7895795933291 6.737580550930134 1.416456061537205 0.4894028018825507 0.14886095950118233 -0.19661920072206784
Ni 7.356017343955374 3.1211438292499927 12.424776513599317 -0.8176468007331724 0.04798269852686575 1.2200761246479568
Ni 8.387445379936821 4.013925594623516 10.175611982440033 0.7626650451806543 1.0285320244559513 0.8558886178231905
P 3.3261196105307596 6.4210024434013215 7.737827913869136 -0.12290670152926575 -0.34224159868129445 -1.3083575227938693
P 3.5520968199929013 0.9867907899433124 8.478215763213376 0.9026122471319746 0.041006781429664865 -2.4891212229954487
P 1.1245988456545222 5.018457064688464 4.997251148916902 -1.5374235311907327 -1.9045004437481525 1.2731321239326718
P 3.39894298386495 4.925737601498233 1.2580997663580076 -1.1237744273007293 -0.16388597215510486 -1.072036118386173
P 7.545380221390777 7.3954134441008765 6.7785821549931855 -1.2076067885363524 0.33071688587114656 -2.9203854688640547
P 7.292395912179602 1.208263745729712 9.314228273312937 -0.39630161375049167 -0.3541653467020739 -1.1957905126277146
P 4.552999095889664 0.8932929843489914 2.6068953056556103 0.24563573983008663 -1.8967321126566432 -0.34122601293258653
P 3.724686188341336 6.267240671194436 10.839694642725277 0.14521693499069185 -0.4810837404938941 0.709948431513229
Ni 8.291796770184451 5.0265076121579915 5.9116035917093495 0.98886787309711 1.1536629873300455 1.1257148388565514
Ni 2.560110939920512 5.002402025512966 3.4659605676453156 0.6565458475223724 -0.16615959868062996 -1.3364146860414015
Ni 5.809345058771473 9.027408636847971 7.400293512807232 -0.1783473989960735 2.9459309214333267 -1.0192089472828125
Ni 1.636821836767727 7.850647033390322 11.96271377568984 1.799617689600133 0.2858033131879078 0.3967713542980586
Ni 1.993155279397775 6.2511395762553805 9.475910715736125 -0.6225607488261794 0.01176793916920554 1.0188585059219293
Ni 3.5380221786502952 9.107693043878177 6.42488310203852 1.4003857895767238 -1.1479492247747198 -0.6131091164949763
Ni 3.8942911432113654 2.623502092878506 10.279904337896527 -0.6912068892396677 -0.20494520408925995 1.1093592803166636
Ni 6.286206434626651 3.0141562905102224 10.226545051356224 0.6986440622440032 -1.668166440934966 -0.9994780445127884
Ni 2.632602711757102 1.2819990231823044 1.628006763623176 0.9829975303592617 0.11919608544689794 -0.05348845883644336
Ni 8.839630077678883 1.1798749730740108 5.314901434621291 0.09832052754946938 0.19072854626924574 0.6439749528358973
Ni 4.181568573966075 4.76359368032422 8.888227198267533 0.21928064687532559 0.2321176507389938 0.24375600630887057
Ni 9.018869898284754 6.740104406772984 11.029998899967756 0.2000217986457136 -1.0602378401996644 -2.048227167346563
Ni 8.668661872207608 6.796808262862697 8.363893383569733 1.4351797573274572 -1.7024215054630936 1.4869915997924263
Ni 0.13394489826416195 0.8963299013978508 2.9532475432078784 1.3990102493854357 -0.34873286283259297 0.3212544549066661
Ni 6.926630249173358 3.29954543495915 5.265167657788088 -1.5262703427873907 -1.4714042868771302 -0.41231418712866413
Ni 2.615110732758667 8.550915707101238 3.155266544468372 0.526239511094926 -0.48006378386981186 0.3338834565245863
Ni 6.515702304424445 7.1995106482405715 2.8961669509722796 -0.32253537850161873 -0.8739079372187467 -1.3030654211569945
Ni 8.990425858712786 6.720235950375077 13.205919108113951 0.18407016041246363 0.756054224732356 2.4368622656907326
Ni 2.8139703086392434 3.5494071634012516 12.724240299390852 1.368634722417372 -0.7668490013550149 0.8188719313895252
Ni 1.9235558095124798 8.069734300624539 7.763011205381364 -0.8828597470953956 -0.37610174176384903 1.1157255888543236
Ni 4.310358911173089 8.400589694855602 11.613395546964588 -0.0226421628795481 -0.8849166296244244 1.2541980060323301
Ni 5.148057983334057 4.522123312001958 11.236548867246855 -1.306361575409763 1.1581819582463215 0.49715184970035026
Ni 4.491183050045273 2.7999785676710376 3.2783118857294546 -0.5733259230597675 -0.9194244335933068 1.8537872336640009
Ni 1.8498021097544652 5.3125691707548315 11.793143823200113 -0.879977283341278 1.1260313416557057 -0.47393890191899674
P 6.583514810683781 6.904348470765136 0.7243797870475683 -1.237711578341533 0.7877744386537724 0.7032872174429694
P 1.2710838072196158 2.789008084792082 2.315870777978013 -0.6577277836456157 0.6179903558466776 0.22658206563274527
P 8.978156603301562 7.609167453915349 1.926256519487383 -0.5178186340210823 -1.3236270473584302 1.0825262192842195
P 3.048430989748336 8.389379722006158 0.32507539590482976 0.038372943351243596 -0.7079113464785421 -0.4434695296855459
P 1.457185936595278 0.044912659504196734 4.833775295060859 0.08013974287538456 0.28743442103342753 0.07273650843277796
P 4.913698624904788 2.2971325300177625 12.380611799695265 0.7552021611447058 0.9557803465145216 -0.3486493019798512
P 1.6043064676974395 2.537396237334866 11.11009263613684 1.0938015350877228 0.40462890266926443 1.0501339189964431
P 6.0722682017579555 0.9069024624796854 5.521652205029491 1.810595271657559 1.48006119122118 0.9242743054864405
Ni 4.11262309592327 4.645377746429583 5.334260514274272 0.5818568433489141 -0.02862100617080232 -0.6675182873734762
Ni 5.223257834067719 8.74468151553256 4.246132306664196 -1.2092908611069948 -0.8052003474397036 -0.7906306771556448
Ni 2.318787950041628 6.644925565808882 5.574108798604104 2.104154831752118 1.218135198871502 -0.11880553487669863
Ni 7.481325865437581 1.8885442180574763 7.253830658008646 0.20117339575165355 0.365684403085267 -0.1411805601377891
Ni 8.316703727115346 2.6748082134794973 1.520937245624277 -0.9561629266649209 -0.029706783035813353 -0.016355044319255704
Ni 1.3201147731009586 5.299968313846007 7.356747788365367 -0.5147564501559909 0.12496075584481706 -0.37223197439579764
Ni 0.26594255884519113 1.7840160570915777 9.654513124574384 -0.7073243636268205 0.5833817646338727 -1.472368964783245
Ni 5.060634932952727 6.720051727320855 6.402422627267702 -1.726555165286504 0.630197696546147 0.350084491764481
Ni 3.9227259716306224 7.850886523360812 9.35723422420593 0.14059023485195787 0.18654716119804646 -0.9119936883468746
Ni 5.124532699309833 2.480185767846041 8.1509002149692 0.5106971924849527 0.533727591941855 0.20520154307444013
Ni 6.93455184050493 1.5289039716041328 3.5510145095493435 -0.9963670096876324 -0.022495095778722548 -0.2337644423137974
Ni 8.747196160222698 3.2198321193970347 3.9314747244756534 2.430499299587182 -0.3218537790535619 -0.3553583385689106
Ni 3.099691054585772 1.0929032691755252 12.529298226758318 -0.44236189844366397 -0.2961203788431997 0.21150948757033894
Ni 5.2582602143700115 0.5272141421505685 9.872360570653683 0.3792004352938308 0.2255356266461019 -0.32424979008956417
Ni 7.46287592655719 9.180111126493077 1.7277967076344696 -0.6553335723818262 -0.5821350367109652 0.24648034721856904
Ni 2.3297768552260054 2.638507060644936 4.439065426890431 -0.6318550296439117 0.17264160686054783 -0.10797861946452371
Ni 2.460114666088489 0.6527575480269091 10.154203421308827 -1.1563269073154538 -0.9225475526033208 1.1048943025667746
Ni 0.29379432129783367 7.918284527748146 6.05350968926174 -0.37377643606478206 -0.42050289358704357 -0.43066749282487116
Ni 8.813857272393143 9.132793435016005 8.0717635175668 -0.2836014204405825 0.8906591885351564 -0.2462299217706598
Ni 0.12539418520242038 0.5072342308048573 11.641841428767098 1.5922463925678838 -0.4300540276105883 0.8665396697791334
Ni 0.5991449547870504 3.2054903546258062 6.295340213655008 0.06207645761577051 -0.48035354719608886 -0.6675812794009277
Ni 7.739873710886278 8.58379031112726 4.28361064481524 0.2703939206113731 -0.8825900383737768 0.548521462421578
Ni 0.7351798636013677 6.658981784846065 3.6675079578869996 0.48542119152698343 2.109331747967367 0.05188923267012354
Ni 7.541106246532812 8.31136125854289 10.134170085277391 -0.1555936502393256 0.6870453016628103 0.1302258608984983
P 8.907175460509597 3.5718639537109858 8.174722098110724 0.5412701801758033 0.45988242382593053 -0.33551790680421567
P 4.277650107895868 6.71895560014823 4.106733484879774 0.09998737372893102 -0.7440638851396992 0.02140340537644056
P 7.0716322151519595 6.205903605291023 10.206390128109001 -0.4602040688314074 -0.8616774565908257 -1.1131442012803925
P 5.796882369153315 4.311556361025535 6.674316511879554 -1.1484924988726994 0.5279922321199746 0.1787667459216792
P 6.825528637015999 3.6542024477957726 2.7897984016946973 -0.21777578019502492 0.01472239381183916 -0.18466845611809488
P 8.038222947199765 1.030267430739844 0.021432510128256317 1.3360151366101378 1.554513139683168 -0.9836444199146416
P 0.8612372517989894 8.35996851139952 9.81558947314918 -0.6082723572279654 -0.7692915493582364 -0.02658006448137358
P 8.736796768811832 4.696444377060085 12.340167470371236 1.480830979507669 0.7893698081653502 0.42564947078498955
