# total energy = -340887.8949368811 ev
CRYSTAL
PRIMVEC
9.10144225468642 0.00000000000000 0.00000000000000
0.00000000000000 9.10144225468642 0.00000000000000
0.00000000000000 0.00000000000000 13.32088072761420
PRIMCOORD
 96 1
Ni 6.280941602264747 2.3353572325451175 11.344568053450194 0.14600729210247113 -0.8702734257899529 0.621984050387103
Ni 4.582048216105642 0.425371369217635 5.960201321627667 -0.7834053630517992 0.002157155552318866 -0.16456680027221335
Ni 2.954965208153112 2.0742459600015977 4.7712863104920675 -0.7648332564765667 -1.9240323431334925 0.6071274449902447
Ni 3.5380855023631153 4.434741375640068 5.141074262631709 0.2248907939732514 -0.06386645963665775 0.21249216319858244
Ni 5.250749370426725 4.453854404060069 2.89938270121933 0.003705988096677489 0.6889558884219619 -0.2729598815663363
Ni 7.359398781584322 6.02276099407896 2.6435020274534167 0.4714392754255945 0.8549108272909535 -0.38472522176680196
Ni 5.108967105318739 4.545323897212928 11.586701909061075 0.10028253637184664 0.02469107498877683 -0.2716337065557451
Ni 5.669342895708943 7.876060345545353 12.441756000621371 -0.46489607499043806 0.14947828137020708 0.1888066466561845
Ni 2.1416239359031515 6.346453782534824 0.40573955859766314 -1.9164241917689318 -0.7531802456186706 0.38290796605240507
Ni 2.821838414486757 1.33844897448421 0.36378919164839363 -0.1513994096523199 1.0033336708134526 0.5872366196035886
Ni 0.7911610578406554 8.743354966592342 4.310716934222685 0.060738712640953464 -2.2253625483124058 0.7879942679740624
Ni 8.852253721375822 2.1068837313892748 1.7078300921617697 -0.3729997057997576 1.7746774747150276 -0.7933087382084402
Ni 7.069900111116049 0.876834752661202 5.147321492492417 -0.838506160680685 -1.6548301288373757 -2.6103201978049886
Ni 0.455077566103368 7.3000755819454834 2.2630044083891008 0.8938298729536542 0.09990921219282795 -0.19731982633351822
Ni 7.655495997578549 3.8909666156489515 3.7969842143309678 -0.5917455632175357 -0.08217091437280043 -0.1409869560697443
Ni 7.515088050228383 3.7021298948593473 12.983116148022093 1.0051627536023915 -0.627454586583371 -0.6640107884408499
Ni 7.997573699086032 8.80601839548363 7.102227523327954 -0.36292818049636855 0.9906979843273132 0.5841818919376649
Ni 6.883366055178951 0.9834654280721739 0.42387964285666446 -0.6729811102602604 0.14606154237917426 -1.3837412390415071
Ni 2.0049384783738344 6.522366455535666 9.310509511062172 -0.26190568063470376 0.03487958548600444 -1.1395149779644376
Ni 0.17283638556943234 4.768591373484847 1.5645906861728132 -0.4746878642698793 0.11724307548558516 -0.9823064178295083
Ni 6.390013284448216 1.9793634260594528 6.924007634753555 -0.5548250360421025 1.4522583100762987 1.2094207018166396
Ni 3.4409913179895133 4.230550522019731 0.514054000798016 0.10702808262579633 1.0274225934418564 -0.48095647088741045
Ni 6.200548564153383 5.790628713197003 4.677387642441446 -1.0824639985877162 -1.0107428187933303 1.9899461722174825
Ni 5.502558969139177 3.0172281735917896 9.161502521211428 -1.3298527165531677 1.2610399686548281 0.27649874795753027
P -0.022039142056681435 5.752602888083307 12.718417087000875 1.2084166860321575 -0.8031933443120037 0.11196717179862652
P 4.069919170312784 6.043475876309398 12.74120891831962 0.6765338606085252 0.9433840297326977 -0.3856204798875617
P 2.33603073926087 8.292587843469791 1.3799497301935044 0.4682878742808064 0.6152246201760825 1.0336490339675424
P 6.310503086221014 8.135633474373169 5.995062575321538 -0.01541684877570248 -2.0179663115794924 -0.4522789004470599
P 4.64071611191294 0.757662290029868 12.555503093614055 0.4826829666602138 1.3528309226158959 0.018104422910194626
P 3.993439752306468 6.381212189932911 8.449220931660115 -0.3245076717366411 -1.1744557557056805 -1.6479102617890913
P 4.860461330090315 0.9372392036220871 3.581438401540729 -0.7778250407505444 0.48529880701650613 1.516585254289143
P 0.21399765748821895 5.590597218618541 3.633336644710503 -0.05544455412154967 0.3157769767318626 0.43061555654101324
Ni 1.6482893680566266 0.9949878537768027 2.653825793232848 1.425885733620041 0.34703490630487976 -0.5060386106670189
Ni 2.054304700350064 6.396784757374159 4.830310982829871 -1.5630414888691533 0.10687175955359013 0.10145058853801883
Ni 5.825778482605594 5.62411782989038 9.234926585103176 0.8675573124103704 -0.06902640657104242 0.9023157989374784
Ni 8.582878339401178 2.316034870956708 10.190300412119 0.8899526493864351 0.06664505082305941 0.9800687867482412
Ni 2.3052314591783554 5.435162790353414 7.0567767417451925 0.03860665662860448 -0.16905337528865724 0.6753444682861143
Ni 0.6880544608126473 9.088144897847046 9.200452142698758 -1.1551213170431267 -0.1027543949511069 -0.4769560914787657
Ni 1.4747976786556511 1.1435962004633584 11.559114527897329 -0.8932783713255584 -0.6139516670009297 -0.3250419469735563
Ni 4.331376297656285 6.980059776099942 1.499824824155326 -0.594593574189292 -1.8156081514911184 0.31152642898562477
Ni 5.701707623833476 8.055122117514442 8.297056651543228 -0.8633422458877582 -0.008373054555043646 -1.0111164000826651
Ni 5.184745712282989 2.8503077253904525 4.859603974244047 1.3599752469701611 -0.573071126736484 -0.4395241718845527
Ni 0.7984531332549908 7.581109911256327 6.904638855810411 0.24629162824653067 -0.8221405748384679 0.1436033106466688
Ni 5.01967285682892 4.449749653670821 7.189225477974744 0.6373983280596442 0.32835918427224736 -0.5510480854981736
Ni 8.31250179879501 7.324394635249408 9.047382269092449 -1.0335873274916716 0.05351185587521107 1.103663515483467
Ni 4.7706574008426275 0.4327025808330209 10.234472441086043 -0.9049735482752994 -0.12132958685013298 0.8535576556971688
Ni 8.226365750715543 7.159330881237442 4.911514959432768 -0.27516228853429386 0.33494120836513924 0.04370489708711828
Ni 7.140317968680593 6.153439499819134 7.144187901863538 -0.1036825631923311 -0.24928799187069325 -0.5943560042571892
Ni 2.59331940612039 5.1432522377273795 2.6013013708462664 -1.1200337293113742 0.8127866444273938 0.42464982587588157
Ni 2.454558819791187 4.975503558294509 11.636681568235165 -0.4200233828474637 0.8689343952635551 -0.5729135181126972
Ni 0.8767464686727858 3.412458296991084 3.720935294536207 0.3762164129648424 -0.6058460071746599 -0.9921239181405624
Ni 3.5474690891731253 2.931356067333359 2.713130789987478 0.30468780879723656 -1.7063393524602612 -0.6590794125775036
Ni 1.0348885759640798 3.4983213018074095 8.209844813006978 -0.29615277474303187 0.2362339869002125 0.3693942478366864
Ni 3.1263180586594683 2.9566489749424933 7.324633093032552 1.3122761411219852 -0.3608026495129335 -0.7437507247746545
Ni 4.334161338940342 6.960054806353676 6.229109799622337 0.19118980217638043 -0.35488165604280814 -0.4884733480897458
Ni 1.015984880712489 7.320089653133856 11.162777669138096 -1.1765751160415285 -0.04871237760403868 1.8393762004449936
P 0.11966758108183309 5.734627539926401 8.02994661850846 0.8280188879961159 -1.1573023838548455 -0.15480303601723017
P 8.693615585489818 1.6399342442044549 8.010151892074813 -0.7166883213402238 0.26619582336962544 0.18741336585308366
P 1.6292491511734641 3.2704758001567953 10.508363048488858 0.1319191894405212 0.12559119033996435 -0.8623868239530244
P 4.000757311758697 6.065756206581856 3.91601924518652 1.9815715750005423 1.540822786680269 -0.4795958430944579
P 7.240060672706682 4.1964019112426625 10.522109866643893 -1.4639758556235432 -0.1860691931203634 -0.038416909215301574
P 6.450064599455437 7.897758183523106 10.275793898385874 -0.34607922725982976 -0.23088917764853137 0.1235628470560259
P 2.289331239821336 8.537908113961548 5.69726065922109 1.8748062591178294 0.717652485025706 1.9528261274367338
P 6.644152852339488 3.440272304063237 1.6556260405372751 0.8305930764811954 0.9592955587566317 -1.1863424798409377
Ni 5.017060742944852 2.8102886844558137 0.23064146466519742 1.7947364502484318 -1.7128481001130564 0.06673323966149151
Ni 1.4794212112448704 1.1935449147342927 7.040884713686068 -0.13380792182280182 -0.5739918387785405 -1.1830638090896657
Ni 6.713269203683051 1.1272409090011009 9.07401035825835 2.04606229848476 -1.6982501476942238 0.5084793588980275
Ni 2.4242601190244337 1.5402461488309955 9.265777743405689 1.5865747961044032 1.1038890012307119 -0.1218612909838869
Ni 6.752632940786147 1.7338338223992855 2.8365481652164735 -1.8369303100076624 0.5502204473905556 0.7864932579485036
Ni 4.095002744753509 7.091461427462231 10.539560971735563 0.26227180572487085 -0.14362079414816556 0.5982553393115955
Ni 8.138646051709845 7.580381795887947 0.06386845982595758 0.1078238390542143 -0.03845624709366925 0.3472701622441374
Ni 7.762601768267389 3.7755694312026726 8.438458476371233 -0.7976855271198972 0.5824479399656937 -1.344837362887458
Ni 2.9044795087979964 8.19625818023299 12.547789621430269 1.0617136534142424 0.7611370385719021 -0.829456648883907
Ni 0.19353761563671373 5.148221625116578 10.22217730294672 -0.11669157385748936 -0.9263000776672176 0.4285491609302878
Ni 8.576152373685758 2.421739019561415 5.821997743555276 1.6286264738588145 0.9015678650278601 0.11185121504605254
Ni 3.348839216678797 2.5279619503660933 11.632232783334356 1.850488508308071 0.702172387112236 -0.48738320034936067
Ni 1.0117436086916698 3.2979803581973863 12.767065205195038 -0.5882298367547933 0.06211733815603496 0.15002849744672225
Ni 3.020195243717942 8.357699560287259 7.858439953630533 0.43686333722293796 0.7894543974593564 0.38089864893186015
Ni 6.004084834879988 7.79943530446536 3.590430626340234 -1.3398633067116343 1.5597461059473332 0.10396255632659517
Ni 3.260245779231042 8.203211682001028 3.828674525595539 1.3000703430844127 1.0518005080655886 -1.4656239327499274
Ni 3.430315326400627 4.356241437486495 9.40182427969925 -0.14437695558789973 -0.006955348271910603 -0.15747184109864493
Ni 7.275938557483654 6.19398642439585 11.507682278563317 -0.00785626281962518 -0.6488878167564825 -0.44045105457419637
Ni 0.6403983998079026 0.3136457065164173 0.4716003241003532 -0.42089678659135255 -0.9725897047623766 -0.3127399896777517
Ni 4.563727013148757 0.16378136081940453 1.577152496565806 0.45999760924755617 1.0163239124255337 0.02444502041624177
Ni 6.315108415926024 5.459363524909977 0.6028003424731304 -1.2787458705750236 0.6532692336536298 -0.47770299694711915
Ni 8.10112080591191 8.841268280755374 11.236575802300349 0.38313268046870147 0.44265397576278603 -0.09019198490506403
Ni 9.094807153467732 5.000186669282623 5.926899144966343 -0.21810976649567598 -0.3284733412526085 -0.40440958756960677
Ni 7.751325081499589 8.949884890833605 2.2676934713614743 1.5797834842141825 -1.908935082480738 -0.05312824728354722
P 8.741989750276629 1.1162463669385483 3.65282556268943 -0.5839587201832652 3.206024488559956 0.737777280800039
P 1.8266685318678588 3.3646939288252926 1.5147703022355559 -0.8944081140546274 -2.1474455241199535 0.47782538145759634
P 4.601652722399301 1.24261989056317 8.140123215763447 -0.3117118055235535 0.20597313113314206 -0.47586722928996117
P 8.574268375170073 1.5335656903261001 12.386993533621226 -0.9757992128386098 0.934334775046236 0.412609863992212
P 6.3641469859864825 7.684820844040091 1.271071908726867 -0.2258639565197981 -0.603966787874076 0.4895017893542602
P 1.627146718047264 3.531086493384553 5.680370202963073 0.49335613010334384 -0.42826608247223014 2.344267841991763
P 6.906774964272398 3.9172242761211904 5.889001650186324 -0.5555665421938174 0.9772526574556847 0.7591369774227378
P 2.4667911579799875 8.724105416540771 10.269400135307277 1.0164067019473269 -1.0635388795484393 0.5982566248631761
