# total energy = -340891.1064310717 ev
CRYSTAL
PRIMVEC
9.06971996152154 0.00000000000000 0.00000000000000

0.00000000000000 9.06971996152154 0.00000000000000

0.00000000000000 0.00000000000000 13.27445194502723

PRIMCOORD
 96 1
Ni 6.284372742261313 2.119511947697474 11.358510157472322 1.036387515944628 0.3271278829683076 0.4568822035470261
Ni 4.796358192334109 0.3746900885599684 6.174850430851736 -1.4733241296076625 0.4010360431116835 -1.1645410676951298
Ni 2.8761352032476077 1.599907686157285 5.085123567104945 -0.11769456120070698 -0.09462250987259187 -0.44637204804432157
Ni 3.3998299085293677 4.429052669837084 5.142947567269886 -0.34383054043496913 0.05357073413760451 -0.6021413046295631
Ni 5.095958254674082 4.588879276519947 2.7431785491784466 -0.22949229730100473 0.05514399216199535 -0.2297108410697141
Ni 7.39769901757256 6.134232596589534 2.5073186653906143 -0.49249223944115184 -0.812187577390814 -0.16449712337654251
Ni 5.077737187097992 4.707901212707622 11.225022924780363 -0.7617091090252882 -0.06912770803559708 -0.06263464411208568
Ni 5.758301770327023 7.8119040624369145 12.452617696002214 -1.3333733281119167 -0.02894162273501467 -0.5704123489573982
Ni 1.564172989168834 6.776395985136051 0.42446108429444107 1.579922580895208 -0.43729373989213716 0.0778853996235691
Ni 2.67319114745736 1.6356333134256877 0.5469050258561624 1.7187009593494078 -2.4872692573883746 -0.2472534779391677
Ni 0.30293681234556974 9.08314323350093 5.1610144496051635 1.357320068735501 0.6288519811515298 -0.27725619494884507
Ni 8.609912450565297 2.216775625490404 1.4387514585154102 0.517673880913102 0.7255568274744473 -0.35549486414677484
Ni 6.863955062477803 0.8593650442519538 4.892007459958527 -0.9059299986512979 -1.2085203014895574 -1.1986552357700195
Ni 0.7683132177197822 7.292798635499356 2.5873235729045283 0.3274292162588103 -0.7013177524214245 0.23570228276645855
Ni 7.422323307502418 3.6454651365847517 3.5825756977730974 1.101889711412496 0.4862184906172981 1.5951555957948786
Ni 7.789148134836909 3.678968682441436 12.744827750447216 -0.2906812101054994 0.37405617208873 -0.8310425053137882
Ni 8.070708524001747 8.983503289055468 7.083247288654264 -0.7333498411563047 0.8449467740997062 0.2121820881573314
Ni 6.908469248472554 0.6871727812558794 0.3684963767393052 -1.1156345718024139 0.729695275122853 -0.9824979650150241
Ni 1.9411105543566547 6.37697458394966 9.100632374669162 -0.08901236277466605 0.4857760037632408 1.789778592022524
Ni 0.23384277804919498 4.7571044439671 1.130395488441262 -0.08122500551976333 -0.4872477032127609 2.185767045407971
Ni 6.408718604117065 1.9508605034080724 7.034795937186751 0.5785871714587068 0.4522475329884921 0.08766073384277806
Ni 3.5565093223556334 4.519169408232325 0.4893431406006036 -0.15942356550837705 -0.06135269207586853 -0.2706710855321596
Ni 6.0726401277447195 5.769384968225471 4.74417011620689 0.643092550230944 0.5111970149395068 0.26358461099902347
Ni 5.658879499162708 2.8950364998272855 9.12230991255548 -0.9713080098364756 0.9799140063379317 0.625447326345355
P 0.2201085009807658 5.56971508137249 12.476258828278889 -0.8555628590526556 -0.3392336650929061 -1.532163311233058
P 3.9246946076972984 6.256846141916149 12.267372291913304 0.7836354767847343 0.6305915895504559 1.4100066004959395
P 2.4981002019339993 8.56675872257772 1.2017723712736756 -0.9548881737175553 -0.3902404951580763 0.10231010832483671
P 6.495298151693651 7.981145038529425 5.834068397662586 0.2067002391071537 -1.011233899497136 -0.4719516962856388
P 4.840219358485417 1.012334942578657 12.542618341980843 -0.01980417921012073 -0.23188985099890388 0.7315852930567143
P 3.9942956393443465 6.069520144048266 8.272506167177948 -0.17758095314369418 -0.43512475726527644 -0.6896953376911477
P 4.7887759063741235 1.0161895735989848 3.7479883450334186 0.0539599991562232 -0.6441263908120971 0.9624029940373621
P 9.199779833316025 5.226707338883602 3.5645224200178918 0.7986790013814181 1.37651669626861 -0.7987682186611147
Ni 1.1595274292348923 0.7321558717771025 2.4321451977461783 1.1860547733971896 0.8155953175207824 0.26906440316667213
Ni 1.582648008906264 6.465622027697151 4.977893173951454 1.899417115687974 0.7352581139226112 -0.8808625141597088
Ni 6.126423567628352 5.8381243764679756 9.013220226792184 -0.37848412595309655 -0.20345987779298508 1.0748026253877168
Ni 8.644177852906 2.507677826304508 10.245540322158957 0.23127330046082753 0.22360909904735038 0.9787413261860692
Ni 2.128091902862721 5.2453274741417975 7.040596930129344 0.8612087444845233 -0.2650030886131049 -0.5245304988236192
Ni 0.4145905079663875 9.298639781837373 9.357161243473994 0.44947948332505167 0.14098309941500237 -0.4655187961761014
Ni 1.3473159828252153 0.902964095493878 11.542162918720834 0.7868730098854255 1.0315250456460041 -1.069418478257668
Ni 4.043616776964447 6.889812834334168 1.3774102209159207 0.4768622462133787 -0.12301005987634944 -0.40112448906043174
Ni 5.698468827171486 8.231505590729729 7.944148743482321 0.3863378176695605 -0.8148085599534289 1.396343758296866
Ni 5.207316277421341 2.906119697725734 5.014583819432946 -0.5819213780382624 -0.7942135094108966 -0.8693298309297609
Ni 0.7479680217084896 7.470202359634913 7.1282086118473735 0.7205560318257461 0.46318269184375715 -0.6538790993234868
Ni 5.160190012052816 4.685372028108812 6.968914397731318 0.021827380287736602 -0.671736696330198 0.4030294193926285
Ni 8.222916565844434 7.366308716487019 8.966375122745141 -0.14244245756934823 -0.19950269291745 1.4667796436209255
Ni 4.921221028232588 0.28957076591108255 10.365754019560915 -0.08439260461446756 0.5525907473949451 0.391003598576346
Ni 8.412872782526188 7.114696542920115 4.544588205638373 -1.8313705565316976 -0.28518830531172823 0.558309137935961
Ni 7.402333644517 6.2820418242090215 7.009349023648554 -0.4461211083757801 -0.36186400089791226 -1.4243788100572115
Ni 2.5616517303091455 5.354599461278054 2.608629252268886 -1.1251931620251265 -0.5504060810388005 0.661303673922332
Ni 2.1672549540292514 5.173395524442457 11.734098148317026 0.36471869673788804 -0.14486058009253763 -1.2065667773076123
Ni 1.0553889036457065 3.1364633777804762 3.80752470834339 0.2981741760484349 0.26376818776473926 -0.5690015846528007
Ni 3.6610650550670196 2.60526801401916 2.9256758280928654 -0.8884716939655343 0.7837658317150115 -0.7513483346162544
Ni 1.076457863316816 3.471344651106509 8.256855458263413 -0.17616530374309014 -0.8181373672163458 0.9185343176788697
Ni 3.55455933254535 2.9132757068434723 7.53346365696853 -0.1467004615147538 -0.8240964130132581 -2.184830392526315
Ni 4.44115167638089 6.93712049410365 6.268833590903367 -0.7887524862963254 -0.20605514932398705 -1.3241037298845326
Ni 0.765668487353835 7.550623567299024 11.583857328752714 1.0137558945880412 -1.3632225502628652 -1.6171593537594795
P 0.17300128202434084 5.619970400157517 8.023729188097997 -0.48603954183727255 -0.8622513268164247 -0.3044402115628047
P 8.50110301915148 1.8345685529547942 8.121389212657016 0.6159751251888618 -0.35325826150677225 -0.8228859376449247
P 1.8372622598089996 3.2682645495155436 10.697508960386463 0.06058058979653438 -0.8234330683976463 -1.5935612547245652
P 4.0739096419242 6.243441095685456 3.988176299228076 -1.0851551722666344 -0.47555226915270354 -0.4899409337742079
P 6.948085785641475 4.137334194218676 10.411816406767832 1.3873873204345268 -0.09491458719171394 -0.07874646207228374
P 6.434104750530941 7.711556679827722 10.24953644081203 0.10165961922503136 0.34642246953186145 -0.701232906017102
P 2.3561409437453618 8.521754771700389 5.833550516647854 0.5132397564011484 0.14955078647935535 -0.30306132893740706
P 6.954162498073522 3.9401312712187053 1.6006867751093934 -0.16711990571137025 0.35093835512434396 -1.7041798829150971
Ni 5.432843936130686 2.908432476337931 0.4375813413156322 -0.6121488094642361 -0.49033354122693623 0.12458434634200478
Ni 1.8055635882418333 1.1162195160065034 7.277332948873796 -1.4528015841742785 0.3072064614540322 -0.4228665087232137
Ni 7.068785620038 0.7185721520614673 9.273744307278086 -0.5926333651391278 -0.2951878397266013 0.6522284510939412
Ni 2.845615595286659 1.4798245927240137 9.488857206456506 -0.3018817068070091 0.19905403541580557 0.33501757012902944
Ni 6.495869544056665 1.7271014401080549 2.484632574634977 -0.8141022779150238 -0.06096702660167565 0.7371363047819305
Ni 4.124346355110183 7.182882698239703 10.124211956163117 0.06643550591541461 -1.0294568502630657 0.6648289134667711
Ni 8.013796030701613 6.951069723537212 0.2694622895930383 0.24315899615481995 0.9564439482404495 0.7698862455194418
Ni 7.646490508204589 3.8387045919238205 8.15531903535595 0.30623766978285966 1.1929396734424809 -0.4781894496652345
Ni 3.195516325011898 8.528339388455112 12.195119274124272 0.5148469529872681 -0.6842250586051959 0.7281533845570298
Ni 0.1825498832906964 4.947387170570577 10.08619441063863 -0.51673028605291 -0.13989218034366876 1.3547952454311183
Ni 8.400456335780708 2.415094124056258 5.568048973799703 1.3828248978748248 0.24994413739745344 1.2682107753716545
Ni 3.7187847534514105 2.747853082891098 11.876014778821439 -0.41081240577215694 0.29501274760131774 -0.9455702387507393
Ni 1.1657946057879431 2.9576266378773615 12.775067104058687 -0.9223536914249598 1.443462823271856 -0.616773452720441
Ni 3.0731295226864783 8.208940127250727 7.921436350538545 0.6226625645113664 0.21072195867203708 0.5874965581331946
Ni 5.438657626681345 7.827921188041382 3.372374958972581 0.8226167431439382 0.4960460182306811 0.7528465164283357
Ni 2.8991632224490487 8.520131291811827 3.420109802556316 0.7944557073286899 -0.8104831931051978 1.3515101469219435
Ni 3.4545565992979745 4.140173016593647 9.356537246734703 -0.32289276184103743 1.1184512153156028 1.4529471086132073
Ni 7.328170543685894 6.097391393755248 11.469498135641627 0.11438478010118364 -1.0132306182121906 -0.8805519248978253
Ni 0.3984454993092451 9.005678754572413 13.506887396194019 0.31451225108682607 -0.10944723359025021 1.2659129804764133
Ni 4.486164696978271 0.24610050469383743 1.6004074277319202 1.0043579983129087 0.8411461694066933 -0.7649430425815537
Ni 5.7972562179324525 5.402922929692894 0.28383416798082994 0.8342769530906857 0.7255933371393375 0.12998134898786004
Ni 7.955532149114352 8.749985206983986 11.576928062636172 -1.322527129426032 0.021833550935323687 -1.1016845373802253
Ni -0.016486030130940847 4.830024993151655 5.682474375867139 -0.6499774502762354 -0.7375661932304974 0.7616342899232947
Ni 7.99550240536514 8.751617756592594 2.2841881336899115 -0.1846903104949658 -0.527808912464575 0.6686446876684355
P 8.634391624974391 1.3349448846799752 3.611022874703117 -1.5323420029027675 1.174320515679397 0.0832813738281598
P 2.0316807787542865 3.3257847140588823 1.4810707722585856 -0.811529632091841 1.2196176969542996 2.1168247139103027
P 4.729913423263707 1.175091068836969 8.30842679342738 -0.4577900600732761 -0.8137693200556372 -0.47521596885920736
P 8.54289628913188 1.5383605659127093 12.382886967358484 -0.9824748250865724 1.396613724128801 0.3342318410029405
P 6.283338794175862 7.849135263233257 1.2592725824329092 -0.5963666069293149 -1.0397278931717706 1.371519757274651
P 1.5465323836758045 3.1145055855446793 6.165982965560973 1.1939542307499245 0.15740653507834826 -1.1364620500707265
P 6.821572260694293 3.999030033209314 5.7845413773973995 1.36332050929331 0.24369352850205128 1.1355865894443087
P 2.247857556094318 8.422414128016504 10.105110218770383 0.2612955578545306 0.257655389998782 0.15659638047222707
