# total energy = -340857.1080135028 ev
CRYSTAL
PRIMVEC
9.39483080429062 0.00000000000000 0.00000000000000
0.00000000000000 9.39483080429062 0.00000000000000
0.00000000000000 0.00000000000000 13.75028452612611
PRIMCOORD
 96 1
Ni 8.986211885064508 9.446971959430067 8.395620888023648 0.08808753696755152 -1.6512814922541692 -3.031064003758244
Ni 7.284150416326062 1.739377736077571 7.527565781034782 -1.3336772325055806 1.9844452970039113 1.0906815014015023
Ni 0.3305618138118708 0.23218384466745035 4.375945827953701 -1.5977966329621516 1.9593338466482644 -0.40645310036219684
Ni 4.151105922404829 2.3981902353615787 4.659187758751045 -0.7994796429058425 -0.9165044317330345 -1.4183212910092218
Ni 8.496797577218505 2.2199139289599623 4.741977824882103 -0.9632483727567926 -1.0777010299814342 -0.07450234208394912
Ni 0.6904110726899514 5.311189005814291 6.511804207094141 -0.1087923736150707 0.6435008414129563 -0.2633305860066884
Ni 2.7020284533914403 0.4366595153008426 3.257991983625013 -2.0321721707662292 1.253849621553976 -1.1162266968604582
Ni 9.529552520837647 7.108720743611191 8.788632020127721 -0.7392960314374107 -0.8992590143890253 -1.9841095109310476
Ni 9.386178010298279 1.6459085659474235 6.7694715298978885 1.5513949057691605 -0.4142024052903125 -0.31448525450363257
Ni 2.483748958084993 6.290092780151494 9.5880729209523 -0.36642025281002705 -1.024086844200404 -0.9556237663319994
Ni 1.7744580337221554 9.254143060352646 6.501354336962895 0.5729127467817487 0.5788280838249193 -0.9225485810445853
Ni 5.962485640578837 4.416143489852973 0.7616877738602602 -2.000083774872117 -1.268773075633028 0.3861575833379543
Ni 3.275366783427877 0.44504158320617154 0.8274525278886092 -2.394288139773948 -1.5984625486809243 1.4626481379510552
Ni 4.090640792345765 4.333891747518122 11.373808509385906 -0.8308573858861754 -0.362331427452634 -0.9131933650819304
Ni 7.614453872295076 7.5776637154723145 4.734030737635838 -1.246149681806557 -0.6731389759943632 0.08426147835324198
Ni 7.296917991178496 0.061046670076257414 0.37598769896749334 0.7167058048417205 1.8490934277327573 -1.4622095077517399
Ni 7.726149013884916 5.7338906212194285 0.7186434782742419 1.9658749902008918 1.4210186353357268 1.1776462376185204
Ni 7.280120033977501 0.49482948823227635 9.882714539259537 -0.6682109425651265 1.338034995253644 0.700599129087845
Ni 5.690993824474606 5.681232595429956 8.344951747882638 0.06961493208466075 -0.32667356903970834 -0.016693401495280927
Ni 6.762850053256244 7.5797587627071135 9.639567866707388 2.214139940123709 -1.945087364031579 -0.6633266178896318
Ni 2.8645214443021882 4.27395272797542 5.34759585354656 -0.09264713131377593 0.7890687319851636 0.6359909061891563
Ni 1.7596235961268694 6.988344778501374 1.4026115761048852 0.3911642925239263 0.4163510762021991 0.37946628736070775
Ni 2.8100877955199914 2.9320514870095455 1.3929179898409103 -1.5043953970911705 0.5261361527478423 1.2009633150779058
Ni 0.5940342024738375 3.781052937958515 4.526676490891492 1.450905138482514 -0.673658338832943 0.16317583346195771
P 1.5888913387366623 4.0727060606362 9.332221618913067 0.35483049108989856 0.8335102501279903 0.5478941132502241
P 6.2869549067146195 8.631209419318415 12.435069248161236 0.4337672147961175 0.5944297949179181 -0.7801467469051854
P 5.316891668018432 5.418412208015052 12.612640942264152 -0.4211510686940037 -0.15398953897699932 0.7498282984273023
P 4.882549857438778 2.8668513623032212 12.677157123299205 1.1045040091068914 -1.4616166113627473 0.3494905669342239
P 3.0153554503771223 7.967690109879095 11.257303214503612 0.6389348193088287 -0.7334485715176982 -1.5458580351113314
P 8.423367580863369 1.7432390114744443 1.205499573734435 -4.12210520249201 -0.07023071129178873 2.2261549623067145
P 2.3482661052910587 1.7425062146837969 12.890561640981716 0.9579583280024468 -0.34715960480820207 0.3152658414233989
P 6.0361880870228015 2.989425717784982 9.118541832692529 0.5411189993099198 0.36851261656268147 -0.19127979078702542
Ni 3.985522032210453 1.2020028177667557 8.546214386433961 -1.3045381490477792 -1.0034977071951425 -0.7685718975833925
Ni 3.5655073383710216 6.780953891917496 12.867488876390036 0.2854083917423343 -0.5404271154492177 0.5076517207904095
Ni 8.779224976198552 4.5968718470540635 8.77484040873451 0.8943428080343307 0.7906481606571415 0.7486324783469881
Ni 2.00449046217091 8.790630300606834 8.608393133603462 0.9471846344257104 -0.8674652669171964 2.3680112083552896
Ni 5.301033193882369 8.986878918040611 10.46565720466878 -2.7741226091073514 -0.05510979648995025 0.5259489764377007
Ni 7.12769830152283 0.07455361810079383 5.842440373507875 1.0026315025401056 1.4148109638631183 0.9624508165561619
Ni 1.7436429891923655 3.5987086698857405 11.414151791160243 -0.48284520326969105 -0.6236807213632356 0.7091493326507012
Ni 0.5981378645014632 2.374938029504496 0.22899054172974434 2.4101096801872366 2.3633341145945943 -2.717684323613965
Ni 6.518415349422071 4.830727971577094 10.558018724265372 -0.41397383421927414 -0.6149824222582893 -0.3995985393342086
Ni 3.897257598260032 3.6423288685905626 9.043026183933245 -1.1713010121267826 1.0154037146041093 0.04979455492462392
Ni 4.439996964871613 0.15816573191366812 12.74533071190604 -0.5299442136400228 0.42148094122959673 -1.7392322465335401
Ni 7.644789780461751 5.591925335277459 6.707444039501842 -0.9103055020111742 0.4452803576420396 0.1886510949149267
Ni 7.749645485338881 3.3995852342732693 -0.05929359467709312 -0.32943493383492944 0.7821786897335496 3.1261703952457904
Ni 3.1304797051539666 6.467185337891295 4.112049732429449 2.695874683938041 1.449983655109509 0.2335775231139719
Ni 0.024259331702690394 7.805713834654061 6.172846233130967 0.03422935349651524 -0.9520563606957152 0.6506410520021634
Ni 6.110059640418455 2.4952388359691193 2.530891278800248 0.7805774066847008 0.10636833755461035 0.9441718157413159
Ni 5.076102158476198 0.39211110732786714 2.7679322509134 0.10466241060709716 -0.9152764728632043 -0.4382635600045743
Ni 8.563190845417294 8.643187828396307 12.147289614160266 -0.08147594518830485 0.21684426951969105 -0.49251923602434533
Ni 1.4826451989234313 8.069811919037273 12.936294737099573 0.6073547305097023 0.28030526618781404 0.8757524466266531
Ni 9.468392173310532 5.453210660740156 12.426159190773413 -0.1170553849548113 -0.4221208888064408 0.6906641293623202
Ni 1.634625374337583 3.3617804357403807 7.374634848758919 0.28129102713985105 -0.4394755780348044 -0.6505487493986731
Ni 8.53532577771139 5.523559152642312 4.549762408246082 1.1221674878249255 -1.0473131617181963 1.6648677155790361
Ni 6.933009225976841 6.61088866750339 12.424894646568013 2.5167577537657944 0.5590886964144629 -2.1164483044074904
Ni 5.977000653932046 -0.1720682023085412 7.7871430729095374 0.02193742350303964 0.5514093254923341 1.672572026201829
P 4.204468560493002 8.204956557927831 8.194536751254665 -1.238056363275461 -1.0688613202026171 0.8741226243327139
P 6.947900032556024 0.0302165938174282 3.8172023673309927 -0.4280061439426242 0.7381994559391223 -1.4574239134376383
P 2.126698419257347 5.386140964734615 13.678727805544039 -2.509235991467453 -1.0691415704471976 -0.8551000604836241
P 8.954288250518097 3.2305440463999413 12.174777009674065 2.1827683677909633 0.726602238019826 -1.5688321274090014
P 3.826101150922035 4.218560806466992 3.3689158096185436 0.09334055783637472 0.12728374755103883 -0.8058372096927542
P 8.308910359062628 5.982675131644239 10.445898936330181 0.6431745684217891 1.0862136954381356 0.6381107807456365
P 3.726985687571642 7.926662884433488 2.2492436507640945 0.7587240582550353 -0.21681804426744594 0.17491009117975037
P 4.490362651982651 1.276034083283447 6.512904341763177 0.2872441593994924 -0.2229647805951321 -1.472533258275251
Ni 7.917399581413252 3.74611356277367 3.0411367446450037 0.6970805744116252 0.6620809184079888 -1.329911594815561
Ni 3.957628780012603 8.916577400291702 4.815432247796926 0.5266359752023962 -0.23475765946500216 2.2572892218176737
Ni 4.710267452991432 2.0667406100533463 0.9555801677671864 2.109704557925754 0.41156933854283956 -2.0491921023629933
Ni 3.790851746325762 5.29362067250005 1.1162590168795492 -0.15796215047150214 -0.48988719771813694 2.1020616966685153
Ni 8.194894694302404 2.841795348961468 10.32092232265139 -0.6352699688627317 -0.8296155430592745 -1.5178911175847598
Ni 0.7901193498543164 4.287415520295904 1.551746996798421 -0.2449124885108169 1.2025468575149418 0.3502521276905968
Ni 1.3267567739591597 5.677211607912044 3.508811414368467 -1.2626625918599157 -1.3438647145615437 -0.4281696661036819
Ni 5.4840069156086475 7.246308038470575 3.8220153390726423 -0.13213130545132729 0.03590725541957041 -1.2771381597682714
Ni 5.631411808496577 5.014180829666489 5.197112274654845 0.014463740833813798 0.8509556992979473 -1.241786776852171
Ni 1.4660633228273703 1.6085265347937545 9.057381485165415 0.7405355602714666 1.6143571084239938 -0.17792830918078387
Ni 7.109312617942099 1.7118508822750451 12.320460769587038 -1.2953117453535046 -0.9114393585053011 -1.1179609059427456
Ni 0.7870106003924544 7.1856550117985245 10.864209407889824 -0.1394139551556696 0.9222395344445987 1.3097225214621961
Ni 7.101148510107834 8.234212060569833 1.9975176188629802 0.40313226351907994 -2.8445099005816625 2.8205803863492585
Ni 5.564257559015194 7.47118270489285 6.354432338370341 -0.3942339325881855 -1.5113116645950293 -0.4313200388072056
Ni 4.5880125217517485 6.5571972103424905 10.370849271171103 0.5632489984397396 0.5428678636802263 0.48295061849930376
Ni 5.456245191039889 6.821238925741807 0.5635583113304878 0.46844239758079975 1.8046236274551566 1.129330838342584
Ni 9.344718622642802 7.425411089969332 3.2643447681100874 0.08266199507660603 0.760161047811878 -1.5112468727953652
Ni 6.27538047535465 2.7175956877773744 4.9342345787729815 1.620407942603764 -0.10908805047861858 0.5070883920877718
Ni 2.402145459064945 6.997861741949142 7.158068031079843 0.9646120858735387 -1.0713529762762193 -0.6038004374995408
Ni 0.57210478877218 0.30544567355396185 1.1699457766251244 0.43630746471946796 -2.349793399795682 0.9486203384309726
Ni 2.039551970154196 1.8733574159676136 5.5113749967732 -0.030018914959593464 0.4858096852146536 -0.8816896380466944
Ni 5.0625923920024665 3.48450510851253 6.960338788335732 0.9752986190531076 -2.2846853544424395 0.467705262304459
Ni 4.786356186420326 1.8752739614200762 10.463182606275748 0.8604587536923762 0.8120181416924854 2.7741827729213258
Ni 1.9807309354587639 0.3331557265541498 11.296820690663873 -0.8770948195871604 1.387219941618727 -1.1590512482251523
P 4.260715411590519 5.367078853347133 6.800093040916303 -1.6405131979940715 2.1509375964336117 -0.2583529302864389
P 7.6715086788284355 7.675773931943229 7.519700428815165 -0.7626208222062801 0.24366858880138678 -0.11631567857530935
P 7.482437712010743 5.965041034515454 2.9269951891540784 -1.93976235227424 0.8984015514847368 -1.538566129435608
P 0.8304072021278225 2.18215610458032 2.906315287928781 0.5298881635911068 -0.1463039974072835 0.3572452711789783
P 9.249877807237851 7.563759366111311 0.44002192519023653 -1.571544641244158 0.020030693398630017 0.37176686183392105
P 1.6626689438258218 8.168936777218315 4.504387255175965 2.318976671525142 -2.0249052047911706 0.5630623363502304
P 8.51275939449171 3.6086953748659742 6.95987186525246 0.21712092021984541 -0.67838711176718 -1.8405115996010175
P -0.05725397694312438 0.8036995775579175 10.204924348624155 0.34384776682614976 0.04975367438435948 3.5048635518859
