# total energy = -340895.6020918286 ev
CRYSTAL
PRIMVEC
9.04493520587830 0.00000000000000 0.00000000000000
0.00000000000000 9.04493520587830 0.00000000000000
0.00000000000000 0.00000000000000 13.23817694986971
PRIMCOORD
 96 1
Ni 6.4011004817526445 2.0926632906029914 11.407072204246349 -0.5713101781813192 0.03267769273867921 -0.2618252051057556
Ni 4.522024285647472 0.41577304845974944 6.007391647670721 0.18057885942975352 -0.7985414473622893 -0.04907078938472194
Ni 2.8368714954046386 1.6171348792314166 4.742656479997259 -0.34700559572884115 0.12419173888927644 0.09645544931627259
Ni 3.639645654168909 4.393640478613422 4.856425481098829 -0.49186900403485617 -0.8166996063285547 0.21504501152742322
Ni 5.30474582357234 4.763723038047351 2.64331983636977 -1.3019153667129515 -1.66017673786127 0.04276901553641021
Ni 7.307629089614251 6.00318665740088 2.6366871855526592 0.7229057630048453 1.0406576040748916 -0.6318869113231118
Ni 5.005512239796979 4.506919244239351 11.639282819857534 0.4714837555102848 0.06804707337690862 -0.6017569247069507
Ni 5.464615049254094 7.819355330755465 12.604293263786497 0.5096376408721868 0.5562322008022742 -0.653833590797532
Ni 1.9289680574268444 6.566857960103073 0.1866666545319578 -0.12565778191184165 -0.10335166221547362 0.7665890628254087
Ni 2.7028346040112625 1.589556872492878 0.26395743287966544 0.5047116643254791 -0.5130104139991617 1.3829282562219085
Ni 0.5524447294113207 9.180789898245823 4.899938854276186 -0.37737186672552425 0.08414397893877121 0.32168999978218793
Ni 8.73260432530344 2.3100854375301783 1.3077148896872983 0.16346431123665395 1.1819425510010289 0.9995986292510526
Ni 6.824991359352387 0.4660728363487909 4.74895718170079 0.06777402222118005 1.1393352578534637 -0.20498839862236956
Ni 0.8583181999517719 7.304535721852828 2.4475530727595425 -0.3510026327033761 -0.30812691638577255 0.02973223695711008
Ni 7.810835002009088 3.8291099070886108 3.7484028568008747 -0.37001208392634344 -0.2274549551560018 0.0609909378610756
Ni 7.610363063224906 3.9005739383254734 12.66843180218717 0.8979747483599632 -0.06525434112311987 -0.9492134919302814
Ni 7.737471534427492 8.882813560431977 7.0435043254375485 1.0190587948581935 -0.2171530590093615 -0.11145706493142742
Ni 6.962736674085481 0.7177553879739891 0.5987538919894263 -1.5653310562342784 -0.5598268601320681 -0.5529131637313703
Ni 1.6776816739535478 6.55852757499117 9.295371134508141 0.7622022466116228 -0.21767910671616061 -1.3865257437651797
Ni 0.11833397978341341 4.880375564418927 1.1354541030898995 0.1481420790572868 -0.0136219616588088 1.384444435756119
Ni 6.277121558051381 1.9658985269294529 6.969873127780695 0.6670945695724962 -0.3881278196904477 -0.09211491295938974
Ni 3.7201727102506443 4.360291803360884 0.5272464450646841 -1.1539499224428449 -0.3398890392887179 0.11735568980404949
Ni 6.018924844257245 5.567302196024389 4.77462670715962 0.5245027309094773 0.42096929170050085 1.3561797844834709
Ni 5.340346687633634 2.839539751222241 9.099406286821962 -0.21328791962700044 0.7947542124057152 0.5235115706408016
P 0.22459568485579776 5.687247078726837 12.379495876880759 -0.23354975519983004 -0.8247541012019152 -1.1050902206276645
P 3.978170435475333 6.135658775043594 12.554291958751628 -0.49324840088088595 0.861615750114955 0.1463731600823221
P 2.1989865012332053 8.575177232064913 1.2779199693864058 1.2403906678355927 -0.18572852195149303 -0.15640303351449839
P 6.256173488649461 7.739235296747602 5.7938470643672835 0.3115292571991022 -1.1387675582754517 0.19877764182596733
P 4.767422416452095 1.0410087010687539 12.557814056430862 -0.13859994389480645 0.01649748343439094 0.8255966517078686
P 3.9161493163522896 6.173792220897867 8.19636450139319 0.08244345130789671 -0.32655941205934724 0.8732672183109541
P 4.734535032883276 1.0547389123606863 3.680093698883265 0.43902872030537293 -1.2815486301311412 1.1000596001822924
P 0.22480824082770845 5.421226496179391 3.5615064609205542 0.7545012784229393 0.8978058268822666 -0.4051744907600893
Ni 1.2280850911550758 0.8536265921802796 2.754956946297751 1.2386160924336733 0.7201564823944823 -0.9087319868764673
Ni 1.936719566700353 6.381011681173341 4.59707553809539 0.24892623765590036 0.016225974940559152 0.6214772859540136
Ni 5.944629748373231 5.877453016314481 9.15654223656505 -0.472691916885773 -0.7310823852783667 0.5068598210167335
Ni 8.521812115712871 2.115311807780197 10.216311037265292 0.8919437116745349 1.4084575108412647 -0.16789457909386568
Ni 2.2719248568709802 5.167995451686487 7.026943049498466 -0.1585527328676495 -0.04877279852832891 -0.01974658649930793
Ni 0.4697731192470317 0.14522276247686297 9.110102826923306 0.1934091784252024 -0.6980725060112494 -0.1448855197932021
Ni 1.290685086116514 0.95917917435063 11.505828422276544 -0.019196370422792746 1.0708999478992007 -0.29910183006902685
Ni 4.042570372496781 6.863450422865757 1.480809619289385 0.09352079216798087 0.5669794120164493 0.2935009389424816
Ni 5.700570267944897 7.997839032615611 8.051339822992277 -0.8879160785723804 -0.2570606938375766 -0.576636218379923
Ni 5.588150771141586 2.822182521005365 4.714419097499048 -0.682705793747192 0.7032211400917244 0.5611409509578013
Ni 0.6369388939730566 7.2532147608051165 6.857759349779536 0.42993369998264014 1.031992729311042 -0.07100461334333578
Ni 4.912340364620303 4.556548802446751 7.009389544192634 0.6206092815267634 -0.017252873543176738 0.32820903184762834
Ni 8.248003844152016 6.970822845953062 9.226995948565214 -0.5070171725302043 1.4991230929486377 0.7884925477667195
Ni 4.66411116916853 0.45376720231540885 10.387044134345427 -0.1270610900172715 -1.2677816582540362 0.6711764529513538
Ni 8.39416094841179 7.185694321217321 4.600994708420023 -0.9629964046469865 -0.26151333029229157 0.605410462299138
Ni 7.392497714483948 6.143591183016601 7.095106583962979 -1.7723141166891732 0.1582403438335533 -0.76404804157111
Ni 2.435746719136776 5.163264950694602 2.4330440925662695 -0.4658944343479654 0.5007411097135054 0.3177742096675495
Ni 2.3091266744228363 5.273432258689159 11.291224677087541 -1.6574431409801906 -0.24371461154797383 1.6541102199522157
Ni 1.3912828529076022 3.4377536605936645 3.8241650411378205 -0.9051710089980862 -0.2502722101608335 0.20421243968829345
Ni 3.9000041074220526 2.6911395030886878 2.6800956374843072 -0.8184297016457841 1.1158094068173814 -0.8456823667141501
Ni 1.258629836565389 3.2934959926786256 8.375476826234092 -1.056050027370562 0.2532516045041316 -0.9063783990426261
Ni 3.555889556301127 2.597325437528792 7.222471026825356 0.5861765537701904 0.4503438882078761 -0.635900146247563
Ni 4.034466110759251 6.777831068393141 6.087681726456113 0.6506729336813633 0.37515943245523775 -1.1435798920624305
Ni 0.7786992553415192 7.541910995334693 11.274002216401792 -0.6859314997733412 -0.42556668126319613 0.9946831942273063
P 0.178708920741021 5.48090497714393 8.05670166044541 0.8885220875874955 -0.88857093854756 -0.18057294589248254
P 8.591105362555751 1.71649348993094 7.887332539559495 -0.38141312667443344 -0.3870880655720237 0.33955299610553774
P 1.7503758163469998 3.270666576801921 10.44132098014294 -0.3264365133282378 -0.5256185896814753 1.0160107520604889
P 4.035804761135539 6.12223609154081 3.6904193966506367 -1.1439843265897007 0.48089527863217185 0.30329195689097443
P 6.6577143319261705 4.118430242131456 10.3299217520048 1.3463193467496233 -0.4150668101731368 0.10435207845552995
P 6.370754724911779 7.807117533734395 10.28983640918294 -0.3623926197078726 -0.3215987256199623 0.10892658520008983
P 2.3357640079239834 8.258251755478604 5.756647960295919 0.1652676829939799 0.9388249496071058 0.04626777271828805
P 6.987230357997571 4.0314270126076766 1.5252627612106364 1.3977799765227603 -0.9226812499677077 0.9072849700172957
Ni 5.543631601195017 2.947084028074069 0.3171190381947724 -0.7867159154822709 -1.1487506376300927 0.30498708520521023
Ni 1.606805563490055 1.156150723299517 6.927908247471045 -0.6805098145371377 -0.5524513936036034 0.3509447828822472
Ni 6.863857444939629 0.7064076125544513 9.25408100634762 0.2400551604185156 0.03439647520199882 -0.2025625627896963
Ni 2.845654127265288 1.6431209774143687 9.27505078359348 -0.6987584763346805 -1.046054863831063 0.384965362802066
Ni 6.421542034795969 2.0630320836251452 2.630134130163328 0.7859368712244013 -0.3203666529850741 -0.8403864084225332
Ni 3.812747619718976 6.950336068234862 10.458358019661706 1.3245475022901705 0.21550781009645462 -0.615159828376418
Ni 8.084959846294064 7.150328625465373 0.2639348205422281 -0.5013190937041624 0.16905594639181853 0.6004199510630821
Ni 7.592426957169636 3.7574740220872243 8.254598506242232 0.2511312157270191 -0.06325196598111042 -0.15940479645529967
Ni 3.0482064010937027 8.47809794497907 12.36604515407955 0.5403386695004695 -0.10766777309232424 -0.0790735063943993
Ni -0.06140515905125127 4.686813955955586 10.122042011476156 0.07811191381207838 0.022131027571084465 1.2095523422984975
Ni 8.672781125379302 2.429605208288804 5.719408154017168 -0.032763824694582284 0.0699795145129311 0.39897607525886125
Ni 3.5908120502393026 2.6627655420723557 11.45839678326805 0.02066627010009989 -0.4386587385604639 0.22898758975044434
Ni 1.1902953528298494 3.2456482866612855 12.745160890072933 -0.45983100176270486 0.696823978316129 -1.0502105378706492
Ni 3.1452042837647713 8.269964946271129 7.837079785332324 -0.5170758423177869 0.45443888421285605 1.2264581169149007
Ni 5.401626122088735 7.76795296529298 3.6021471627498753 1.4172491409909658 0.48182910330035084 0.15652593224560785
Ni 3.1521869735654118 8.439394668221377 3.55610482575353 -1.0831900781204635 -0.22828130771203908 0.03859817198817224
Ni 3.4982823654458457 4.332822335842044 9.59530841422455 0.6590369893753424 0.37984475374604904 -1.9083578698210297
Ni 7.154281262049414 5.998284302644471 11.496045420607667 0.17537263263846573 0.6090220909097963 -0.7846821728816937
Ni 0.2315241050465884 9.134660729873717 0.4299772143443677 1.338172549272773 -0.1553859051038937 -0.10051187877383334
Ni 4.597992694501846 0.3023477548872265 1.580810420372128 -0.30700822940029704 0.2503349450779689 -0.624043504019293
Ni 5.993580936457512 5.563430963855122 0.47571292804506327 -0.3030150490805039 1.4604827548686203 -0.836918761588907
Ni 7.875090220070937 8.897900511970146 11.492948434872252 -0.3791582692019857 -0.3286214367946986 -0.10782101084073689
Ni -0.011919415309952854 5.057014099544188 5.798162402843818 0.26729265597823 -1.5310662215141373 -0.425116481099655
Ni 7.963468279710906 8.714831028077716 2.7228284327733285 -0.5525295551397065 0.2647626904675247 -0.5256761823922882
P 8.54707461909783 1.7473638530003506 3.5528884468764477 -1.2522827912874883 -0.6793294210757913 0.5935121681996552
P 1.9392340586233814 3.204738045769711 1.6643304454370647 0.022276294899697117 -0.5842230295882455 -1.0158282037360375
P 4.766753091263951 0.9866215070645449 8.25567123553026 -0.28182350260455336 -0.6173177552596852 -0.9847893321523621
P 8.333804097324132 1.764901981916725 12.448003118874318 0.7607017508066964 -0.022959437009650783 -0.15168068833816456
P 6.197055793653368 7.747321468615183 1.5035920015042195 1.3234480985784047 -0.42834038735359137 -0.09558255979301604
P 1.806707671370817 3.2106715231132603 6.048443894041402 0.35238897152794146 0.18768076058185743 -0.6296755054940897
P 6.862699693262838 3.8898828251851145 6.15854517401064 0.35696142138997233 1.4627923768384035 -1.0626559627228536
P 2.3070011147037297 8.566747352668285 10.146254397910527 0.8308812971455755 0.632437384509943 -0.2814712614714572
