# total energy = -340889.3106568827 ev
CRYSTAL
PRIMVEC
9.13863585893600 0.00000000000000 0.00000000000000
0.00000000000000 9.13863585893600 0.00000000000000
0.00000000000000 0.00000000000000 13.37531732702071
PRIMCOORD
 96 1
Ni 6.452635419719963 1.8423489881721336 11.37859683570991 0.04487706301834852 0.5684724516222082 0.8728746108582258
Ni 4.722892702541167 0.1381780018400808 6.308254111862167 -0.8006561797124468 -0.5991973915098907 -1.4681682964383358
Ni 2.6798227164711537 1.7350431259741315 4.842399557467884 1.5110681811256557 -0.7811800732657064 0.9260697068239664
Ni 3.6799093311567557 4.448559992839088 5.0592136931047085 -0.46751551489115606 -0.006916010393542927 -1.1155574387075755
Ni 5.0673004719719374 4.492498554025256 2.4390827183048973 0.1654990822784956 0.9145282818432702 -0.11275547202787677
Ni 6.965778961559513 6.155081436312797 2.3964418434100008 1.2293503508610313 -0.21201136690742198 1.7737361938476808
Ni 4.981634899476275 4.675472321094614 11.281384596812686 0.21239111884434386 0.6303077397614499 0.47101504340398237
Ni 5.553667810759185 7.9963155109107396 12.583591771241709 1.4096836699388817 0.5545890087718964 0.45186546705872505
Ni 1.8117162807894303 6.464954300851193 0.603272424086321 -0.786472174902581 0.15454592570110157 -0.8028763272922173
Ni 2.7289246069148483 1.4556019188296498 0.3667873747737001 0.32192911237618754 0.5356255802955162 0.15757288545288345
Ni 0.8780903953522496 9.191457169264723 4.823340018530722 -0.523815989255098 -0.6263693239389923 0.025829559468594224
Ni 8.711057359690157 2.382606862590587 1.211097716555119 -0.17805840700074496 -0.8132774680208832 0.4562425130804981
Ni 6.997499166608846 0.8021739195856646 4.941738356928343 0.014128468981582121 -0.5138789326470441 -1.5083669801444086
Ni 0.785760015728244 7.499420463619651 2.729287410758254 0.04945234109385677 0.50700483123503 -0.8580262329914835
Ni 7.861886177497981 3.9649433834439027 4.03933279315928 0.726192147065601 -0.29053697121815125 -0.3587251981586145
Ni 7.7344387618777 4.090298051453611 12.930762150291152 0.4111080826357049 -1.166642430308849 -0.27562868664775114
Ni 8.357730281665855 -0.30030836825357016 6.7799886669199445 -0.019325954022121557 0.8194774261840081 0.7175195589922675
Ni 6.824029580827679 0.7798125915144424 0.3143114999726979 -0.9596976792910569 -0.12427581396265049 -0.02280439948902524
Ni 1.832214241010016 6.679785352507694 9.306706333747048 0.9775452489954389 -0.6574932990373064 0.4620508922321591
Ni 0.19901755617468977 4.607270681716 1.6999224345235149 -0.676853705841789 1.49530089098907 0.2664043398360057
Ni 6.014977010034687 2.0660719325146037 6.571748399441369 0.6555770558512 1.443185144130437 1.881533550539334
Ni 3.4583339662399823 4.362784756713177 0.36218789934836754 -0.5077944170158609 0.2687738685094468 0.1497356487966518
Ni 6.017782571241873 5.514399092494425 5.0024225544534335 -0.2786980696016942 1.6361263817802854 -1.3469963182119897
Ni 5.357388189886362 3.023590781392141 9.44017885198589 -0.7943873159845997 -0.7129424811445464 -0.7505404940029784
P 0.027071380990388447 5.726972901094981 12.825350727305691 0.6671981850298961 0.00016686459516745454 -0.22295681017533214
P 4.110942229847861 6.131311844456469 12.668204572886989 -0.2090844230686141 0.29694364607544343 0.17450051444615752
P 2.2965391901173473 8.681064356817236 1.5064885848556364 0.8959273789126312 -1.5969684806339013 -1.0597958675662393
P 6.667832016810625 7.901474748017632 5.85703853588744 -2.0268774980261934 -0.4908688449051159 0.414039397349887
P 4.744843705862544 1.2293475723556138 12.92153304194217 0.3437176690061887 -0.48638226988867206 -0.69691422403709
P 4.006569869759002 6.09955508486372 8.500655804832103 0.630689805691217 1.1870045389049686 0.6392888602141377
P 4.883732693572068 1.2138850004905977 3.985202825268699 -1.2317023960329754 -0.5053474981372652 0.8013418929255619
P 0.09307243685535266 5.7205484400895985 3.74661406198248 0.28785351084871713 -0.49256603010188077 0.2626430730213606
Ni 1.4483001487822813 1.2320434699325522 2.5584177668775565 -0.5047633434990211 0.10986478074364306 0.19491867309119335
Ni 2.0845319769397412 6.496948664976147 4.581528058378787 0.242661230582795 0.2160881080799569 0.9196923425427127
Ni 6.309332470892943 5.505498061172601 9.291337889831327 -0.7439821240591703 0.8773982097601922 -0.6877870649248413
Ni 8.742348048854351 2.161479290830661 10.293296097139836 0.40511484116674745 -0.07502221914316112 0.4521531735024729
Ni 2.5230676956670037 5.136726688554991 7.129645668785269 -2.0138348059096223 1.6709913119782704 -0.2881399317408844
Ni 1.0055697961980192 -0.07796170247071663 9.04378778022665 -1.249352505014571 0.5530134367546605 -0.5912840502000849
Ni 1.5525719838767456 1.077765019444844 11.674980159864175 -0.7240182793427338 0.33685128090365857 -0.48850034467293935
Ni 3.913456309042307 6.944970287719891 1.61834640157253 1.0588283614466474 0.2902801180123388 -0.5188853847227
Ni 5.584976777195086 7.7302441280207015 8.06904808594578 0.8975075789155574 0.33771491445553453 0.9044271888535262
Ni 5.645794398803646 3.173245082137711 4.5016499839694815 -0.16143339684955424 -0.28427762057200073 0.08374211551466222
Ni 0.5690966675830109 7.064037574262027 6.427428320443797 1.0621695100047384 0.08849942769398952 0.24849634920733332
Ni 4.909695558033363 4.606530452211824 7.07161076179426 2.406250454342146 -0.2705911242238436 1.0210663122065253
Ni 8.55809487276543 7.340417338395409 9.587414155820898 -0.924273277045176 -0.8349940337623685 -0.43302416598250587
Ni 4.557529086762523 0.4712355855401473 10.555800670456046 0.36479711538430726 -0.44998804753035404 0.26856406649148584
Ni 8.147550795659056 7.583349695303047 4.341280632685063 -0.3466803511789384 -0.2493769520400737 0.06496894867221714
Ni 7.269775683243769 6.106125764042767 7.001737665917945 0.7845831854099843 0.3176903917044916 0.93199147162504
Ni 2.528496045364297 5.066094172039206 2.57033454803121 -0.1779239383054097 0.7789519552661359 0.23911002289642688
Ni 2.2082873836749943 5.19717876472939 11.583934672441247 0.4226037419801303 0.7742591777761568 -0.2998662190388771
Ni 1.3699820395132574 3.289022459772397 3.7984429213650173 -2.342369339417469 1.520266559795472 0.4892935299981961
Ni 3.5243423330136303 2.7719218886080523 2.8910083662854826 1.5465383490078075 -0.8754925080970472 -0.34332043356777003
Ni 1.0952289525618923 3.2971101525032127 8.116089214004392 -0.5795482498203954 0.1431024597508503 0.8655143138384127
Ni 3.574257562048333 2.7850175537868753 7.19728528205886 -0.17491574760670522 -0.8414606153233185 -0.3745667931765614
Ni 4.224617721236121 6.701087512683434 6.392719781470196 -0.4602174385678461 1.5300606630677585 -1.7236289927786443
Ni 0.7323848991592056 7.635851158284441 11.848524682459349 0.48321004280827745 -0.610283217010407 -0.2249316745135158
P 0.298588476985842 5.660982811593041 8.151573623162 -0.5432028784221419 0.0711928180947419 0.5906142778265699
P 8.80105464558063 1.3880491225966716 8.086783436547693 0.5426457203670912 0.7474302305087709 0.6120354238148233
P 1.627527075151487 3.1969963967223314 10.70271520817258 1.0953992185921457 -0.32875513415908547 -1.2504493376231756
P 4.085783565341721 6.25118333095376 3.66316460868142 0.7482966922741241 -0.4393537077449595 1.0965348748584858
P 6.93895706532794 3.868466804732925 10.549794758972778 1.408147950020646 0.5189717737889191 0.9944682500030226
P 6.413531196900575 7.992532115667171 10.16342237370031 0.3595258396830389 -0.3575363200568359 -0.3840310239132547
P 2.541418076461893 8.403514847294538 6.006694664360181 0.037410579437974274 -0.34286586252885465 0.0309383414500693
P 7.064220346979108 3.772830980520517 1.851357855397035 -0.1607379134444264 1.4045607468900196 -0.8114470996803639
Ni 5.445164787264306 3.2603180045548945 0.1483895135433722 0.7836506462933859 -0.732468466992616 0.25638449370615846
Ni 1.7136678567115589 1.212477650569077 7.0143773131676515 -0.298178546923809 -0.768780928270405 0.06051039868023127
Ni 6.944860624089642 0.9123721600314666 9.080462953636037 -1.0701461004523118 -0.7844679999883586 -0.11189826623390406
Ni 2.921265475734585 1.690218117110122 9.45560029998956 -1.0321719352013838 0.1306266958813428 -0.4230315735461682
Ni 6.12698013106166 1.9278683424941316 2.4364745516321573 0.954219686895621 0.17904751038689162 -0.4819257767792151
Ni 4.4954320561343994 7.146568594659758 10.616296612082545 -1.1318096389003798 -1.1906200241703688 -1.4367823259278867
Ni 8.002155099221463 7.528983950607433 0.2714275373640841 0.45355828138011567 -0.4316514540046953 0.27387622273301865
Ni 7.703705529500603 3.4501914416940433 8.460690722515267 -0.031209335723268835 0.039453063789299796 -1.2078011639353459
Ni 3.278988237604674 8.160043310871512 12.579993890305978 -1.8409674561915133 0.8718330569675888 0.5323543657434122
Ni -0.01972026230940797 4.648559038504501 10.272216919678932 -0.012738530612590965 0.9253282006722515 -0.03849841318551434
Ni 8.681137465904067 2.1951734412244637 6.071203380990182 -0.01295244639560995 1.0866757226762187 -0.2678801530505838
Ni 3.684688837708413 2.7724793453951477 11.612450871760156 -0.3587753346702595 -0.49145017132988267 0.1932615971037446
Ni 1.2244218476302924 3.462875868259435 12.875909316304517 -1.0441298788942082 -0.27733692758810946 0.3139059849613948
Ni 3.1643349121800335 8.49582420805608 8.149366642603251 0.6748667573187475 0.07491577547228388 0.24895297712877773
Ni 5.375455272969776 8.229231922922361 3.902409526021957 0.9360090774248654 -1.3345907454587855 -0.07544156606876685
Ni 3.038733501002267 8.823023926173713 3.524356040967411 0.005694993502248257 -0.9511976122398457 1.6518378789782713
Ni 3.2909415733017435 4.2016980225142175 9.096994745895973 -0.4603830176114329 -0.23961704443983253 2.2336322445203662
Ni 7.273358028498549 6.046276837834735 11.525056269360913 0.39095011963059123 0.6472705928680337 -0.33693818419051
Ni 0.5579639813856334 9.29600316343481 0.46574600698263247 -0.87731799134156 -0.2793853254767059 -0.7941420327430129
Ni 4.463711851085067 0.27549148872837054 1.74866243498739 0.8411428269725836 0.06978616755520241 -1.0929196467034017
Ni 6.172627617152532 5.815882689318824 0.27372681814495764 -1.5457145675549315 -0.46421781797649087 -0.41414172725570614
Ni 7.805391130648377 8.752948866445024 11.524735503242436 0.45639446527733013 1.152404689442912 0.26360980781000404
Ni 0.15455900660842678 4.750966591884744 6.175972357875106 -0.8962731922878241 -0.7156915046445933 -1.0167648566176941
Ni 8.005490701308183 9.255975938394165 2.3040456656078456 0.12044975534834094 -0.20520642817044663 1.0324637554101896
P 8.868790214530687 1.6385025768121753 3.866550432794335 -0.9404069493822449 -0.08471862049531861 -0.41320764547721095
P 1.9067215391279098 3.185079615568678 1.5932681570619052 -0.5722177775972532 -0.0018285685683065282 -0.9750013995276628
P 4.778684074430012 1.268625429256228 8.220550218861034 -0.12488336563966235 -1.2690250437428339 0.6880488032266603
P 8.407343935717376 1.6917716852053069 12.528218035011395 0.9301919565224561 -0.3785628017098319 -0.3900805725414443
P 6.165563451637367 7.937800825537394 1.4347036863586577 0.23098636534802797 0.2890313332069022 0.4172368212412621
P 1.880420545140016 3.475834453900447 5.969096488729537 0.039547680385635116 -1.4684359482774259 -0.2690908855292333
P 7.009772354560806 4.039395849746673 6.318714194460688 -0.045683618080043904 -0.47669152496346934 -0.6756254898616428
P 2.3277202156512917 8.511131423111577 10.549046304696335 1.6266109860906828 -0.18281751895228515 0.3622789769481438
