# total energy = -340891.3557925199 ev
CRYSTAL
PRIMVEC
9.03753228936485 0.00000000000000 0.00000000000000
0.00000000000000 9.03753228936485 0.00000000000000
0.00000000000000 0.00000000000000 13.22734203325227
PRIMCOORD
 96 1
Ni 6.4196303292818655 1.9779904725802742 11.33354360841282 -0.03757075916492239 0.1524921284958664 1.9013474999414677
Ni 4.445399470144612 0.04957176850075874 6.104259312878896 0.6402188282275748 0.8756645148985371 -1.1041561388491692
Ni 2.601797103087716 1.6461774736367074 4.715812378293607 0.29389663171900354 -1.2393498852759044 -0.1502645247169283
Ni 3.3107463255343483 4.522778821825256 4.722412488143219 0.43479359917810284 -0.7953167697774044 -0.517096154032761
Ni 4.866756339264751 4.750777687066936 2.628457823416833 1.0723744755621982 -1.335755198080532 -0.07671091969949369
Ni 7.126157493068089 5.885476019338775 2.496501717839409 0.16508667733142535 1.3883445421414735 0.34646180741022914
Ni 5.064217382814199 4.772223751250324 11.36997209366794 0.7613285857574178 -0.6306147294789075 0.21447088419150806
Ni 5.6295240666469395 7.800953880896506 12.35416568903914 0.11583925315952308 1.3466345639971968 -0.057337400268888346
Ni 1.9148633093603147 6.300904267260303 0.41857150166067003 0.3055912944481124 1.4514268153139391 -1.1091384225551093
Ni 2.810781000338732 1.3451101596286172 0.5837396347423215 0.3963257821202078 2.102830970734372 -2.885909289464056
Ni 0.45800225515081794 0.10057779337990082 4.703008002509779 1.3839980922473196 -1.1613441580243868 1.1125996416308321
Ni 8.660296678596302 2.1218047243081504 1.526977844921842 0.6770701927279694 1.8593706412890494 -0.43306838895688
Ni 6.780309206439397 0.9447926657376929 5.340790272989067 0.21388878643579293 -1.232135369805336 -2.9708379690876514
Ni 1.024042786607532 7.547433024397393 2.6196615932146874 -0.9944674786720743 -0.11824349172564153 -0.0750121918408321
Ni 7.822436095209154 3.756721432680424 3.388011804307823 -0.6646695050707714 -0.22194868062579196 1.1539730623712963
Ni 7.673470450061753 3.793784352704054 12.968006632662883 0.06906163068435203 -1.061918313225881 -2.5220789088683917
Ni 7.92136092392865 8.638471038055686 7.060676052680084 -1.6165029511224034 0.36071960288082394 -0.20919472339423328
Ni 6.748207891656677 0.9326823724356536 0.4380365387606197 -0.4584649746531136 -0.27450562878690143 -0.5455700931027379
Ni 1.8128566821214194 6.465468693183316 9.078863661490812 1.1675978522435828 -0.8814538678868044 0.31948502171106913
Ni 0.08217737758665278 4.797474616538307 1.3195203868788228 0.7809874976389259 -1.2363794897936706 2.583316415522635
Ni 6.234442254616125 2.0751620200306684 7.104696065079765 0.02711562526986943 1.1277557805459804 1.3715022737731541
Ni 3.384176275593356 4.364097829439278 0.43324212786753613 0.39775685813977946 0.49595602962003615 -0.28763445285937556
Ni 5.945973260655082 5.613618009772618 4.90752916630367 -0.13147258882140583 0.4645849715079224 -0.8665910918423592
Ni 5.116418169465379 2.802358020221194 9.636025721201316 -0.049747503736772385 0.3062065594346081 -1.7245422486215332
P 0.26712957265897186 5.329270130547195 12.550657909124425 0.4495450464556645 0.3973231130364706 -2.0505930964755783
P 4.076948315196218 6.367800081455599 12.617072022847333 -0.7540536493625595 -2.141132694528048 -0.7547141657646937
P 2.6123529408315833 8.417738348795229 1.4499681283128807 -0.8437910632287081 -1.3523120739979484 -0.2550027828672834
P 6.244049151466923 7.780827296431101 5.78795381563456 0.48821932309741073 -0.8106024922918814 0.4497203956912642
P 4.689439955245338 0.9574180983816849 12.672151263540826 0.2998477070961158 0.4330488485728542 -1.2463818524220212
P 3.9323568356892564 6.070573718681365 8.270210575039137 0.0875316644640815 0.5878038049609683 -0.08195956969294271
P 4.689873756796455 0.9951136456673615 3.897965410217927 -0.1699522329538428 0.4022879132409136 0.5068634205611594
P 0.14288880841882487 5.697432084461509 3.499293650961556 0.19492947172447075 -0.6333303286378575 -0.4892603627674154
Ni 1.6899010549764588 1.0064738237872597 2.4627989523304796 -1.7439628192399903 0.6888013651219685 2.5350267272783116
Ni 1.8020297184081033 6.654136217790313 4.862794285097874 -0.43488127379590263 -0.5598633697969585 -0.5891148104629079
Ni 5.96639808368688 5.588475594872414 9.070557265540138 -0.24879922515973282 0.8099226926160373 0.9580231198021115
Ni 8.488673939935309 2.333391430865873 10.245277405915523 0.893969483855312 0.7525518680060523 -0.39745398218738004
Ni 2.3955335030635023 5.111628277338452 6.798350832199742 -1.3851592024349564 0.34739460363714364 1.5451808065386485
Ni 0.2808747555567867 9.172462672417108 9.06859973604072 1.3594373721888202 -0.7400249391836352 1.9349729013053962
Ni 1.3998866429895584 1.023220371166871 11.40360888519097 0.2389958659160658 0.27460230226576576 -0.45727609655133505
Ni 4.186374756465692 6.746599210904615 1.5229037253542606 0.7847101979061518 1.581704098275663 -0.36564557942753156
Ni 5.577739006482248 7.855965340097637 8.034737670572989 0.34787668547988476 0.08292784714348299 0.49982271166429404
Ni 5.3419226757881315 3.031251601162055 4.756221896533465 -0.3801543145666679 -0.05397928242993284 0.021345555555311622
Ni 0.7026618112151176 7.419524829543838 7.0051214377868245 1.1362540478249785 -0.2867152834792159 -0.47087980337769875
Ni 4.892079504811255 4.576353313388308 7.011285034825624 0.634266724409198 -0.9802029983332602 -0.5110458340736231
Ni 8.384353704423786 7.0828134880855655 9.194524192551144 -1.2095279168184652 -0.3518312992522586 0.31005112999167894
Ni 4.535838056020365 0.42963253746094326 10.41983915008534 -0.03455665492894694 -0.8352470303134388 0.37987792097682965
Ni 8.163259513870731 7.231191693632494 4.699529456321753 -0.3090885089680935 -0.30547456636459003 0.09843956962583691
Ni 7.219451939155368 6.078996698798902 7.009274183885546 0.39332890427541295 0.023070765776534462 -0.3922248725779568
Ni 2.418380384755708 5.395885781240726 2.438407556365648 -1.7141315948111706 -1.4350638005748835 1.4360976411560364
Ni 2.648855533851686 5.173770349536081 11.338781762142567 -1.2404032662410829 -0.65987594033687 -0.014571984276903937
Ni 1.0553487985465355 3.316051357003227 3.851153704086155 1.221162158623284 0.3730169321909382 -1.0747044092469555
Ni 3.5942356391898516 2.688747201489897 2.6669233684557434 0.8024168711572955 -0.06607066637682815 0.31131277031292187
Ni 1.0435277062785744 3.3164309333604547 8.267128776519739 -0.816156075120259 0.05935237381638811 -1.3901067762482187
Ni 3.6450265707998972 2.2433685714766076 6.71426472778817 0.6221789400067285 1.407060887604054 0.777098704107481
Ni 3.9551494921875725 6.702676803853936 6.080026977482808 0.8771413565543796 0.8295785191737518 -0.49349779788753073
Ni 0.8241361868136571 7.092031771046819 11.300026112316345 -0.2832630632645573 0.4927670903690933 0.8355954147917931
P 0.24606398858604367 5.572117661382346 7.936233087106139 -0.8056443769556577 -1.9554530235366194 -0.44648697635563106
P 8.308872234529282 1.5170672869852628 7.937952929505675 -0.2406431717115017 2.481845001049009 -0.7658861232211132
P 1.6485543446355404 3.0492091778718704 10.340646869422317 1.020349745755475 0.44151831949644604 0.6995838004494532
P 3.9223432498842863 6.335328227847967 3.6626380100220497 0.3369471830515745 0.48730683858547047 1.9882549005579888
P 6.889374146416272 4.003409914749431 10.286639480061378 0.07012683872407277 -0.2779110549240246 1.3300843729479996
P 6.4922469014325275 7.731292581812834 10.233941629132875 -1.120493185446296 0.4106455411769896 -0.9725519095459056
P 2.340621456717837 8.490815835093953 5.999141967017193 -0.4617955816882434 0.006742718040472258 -0.7606099624238384
P 6.6418632489066045 3.8091933453010522 1.5672283025929565 -0.25168914511301815 0.2525923736535779 0.9313744068663313
Ni 5.167823653272841 2.997288554722455 0.09364148732817298 0.9955316582705306 -0.23967952224665173 0.7690912604219723
Ni 1.3187838279951538 0.9969573022596122 7.147949694739139 0.22014119510340793 0.8673657652248546 -1.3924133128942084
Ni 6.773503944606237 0.7646547641295502 9.309853046175512 -0.7955263146850493 -0.6097646255027757 -1.1041661661514983
Ni 2.7296510727473824 1.556064238924293 9.162751843944688 -0.36067846523024333 -0.48547338492115744 0.13110055019396777
Ni 6.2311887429827415 1.8787674052943848 2.7025312457766657 0.6404366006653357 0.2540280776588399 -0.26738238747855886
Ni 4.087983142152779 6.899649820658376 10.3969425619654 0.41677273712065 0.9619785049054336 -0.7697132102766873
Ni 8.561886989218758 6.991886875464805 0.4679037755550824 -1.2595412726221147 1.163059855163913 0.9709719666532955
Ni 7.526845525783926 3.940400239449566 8.238464435276397 1.1654941756370183 -0.7011262052359086 -0.7507610946542167
Ni 3.023452210774249 8.329794121838402 12.39970762188066 0.09325596854236842 0.02638851729585778 -0.5749714290829905
Ni 0.23821218051081092 4.818613404622987 10.171918852361804 -0.6700713928126331 -0.3484279299976644 0.6648366267762551
Ni 8.659664051334254 2.7139076914547307 5.815295062146993 0.013527859283105733 -2.0843210848556426 1.0020062102512808
Ni 3.64160134605253 2.642872687459186 11.51977190304801 -0.9687772729948219 -0.02723132491212729 -0.13797979381230432
Ni 1.3520780970434472 3.3015732302346685 12.66881731786984 -1.265304657468453 0.041821049800844105 -1.0151437760745032
Ni 3.161120940527956 8.25171888016951 8.041060328180532 -0.3118017941341985 0.22203892634675307 0.9008685249679904
Ni 6.073700704862339 8.081352358500295 3.5564623691262662 -1.1042808373524917 0.020242038078487717 -0.319512789625211
Ni 3.0701491402456202 8.402546256973789 3.8860738251979097 1.346557173792042 0.25279420525173885 -0.7318251769816622
Ni 3.2799193028080373 4.131878436606514 8.932067024099002 -0.24651274311840127 -0.22316738352424145 0.7947228449471474
Ni 7.498259811071724 6.444456430551045 11.604889189896717 0.023819985237733172 -1.6305722847312756 -0.6497972159446294
Ni 0.710790167779188 9.074766948092444 13.594135908975268 -0.40224060494274594 -0.32567161013775525 -0.28866572233736737
Ni 4.562191500250773 0.26227280279291515 1.5867123185107677 1.608938251401268 -0.5162615739466077 1.2557972321986501
Ni 6.165603370973114 5.6081051150604955 0.30971171366734457 -0.8512583181400307 0.590758259603602 -0.1935901840877569
Ni 8.027063901884361 9.04575646936144 11.253756658123471 0.287865337923259 -1.375702685007747 0.36721215258370304
Ni 0.14670535831543027 4.954528853107592 5.5889356052672445 -0.2422192579493699 0.7718353988260127 0.57432659641014
Ni 8.004135682401321 9.124202249855248 2.3334881324616426 0.3688067507643326 -1.814451412178856 0.7661139229612031
P 8.57522638691563 1.6283464223793016 3.8012077817475576 -1.268245485264332 1.5411544589880748 -1.1805006763481798
P 1.8748360787373797 3.153502300786449 1.5049271698265838 -0.8526608549145123 0.11162418663691098 1.3809729322677506
P 4.629548228594132 1.0610153313080122 8.170727226822578 0.7969239663635242 -0.7436846474234096 1.185443622175752
P 8.495018287620407 1.6493225348823117 12.51158413816072 0.4978838427703683 0.5014612757089815 0.15195553926610605
P 6.4682161030070615 7.90919640543272 1.205342914871378 0.5538189633750914 -1.303148210678788 0.9794368095911972
P 1.9010449224507486 3.215897423888897 5.979420263999498 -1.4444755808070866 0.24814565073613393 0.2552480661088701
P 6.9214844987313064 3.952655133268645 6.006959432469629 -0.7904180469242065 1.104497838459304 -0.21006889846907048
P 2.141045630606689 8.297855482637353 10.131852760349913 1.0431132647042358 1.827692336349162 0.39961627994602145
