# total energy = -381175.52426816296 ev
CRYSTAL
PRIMVEC
9.15661021426857 0.00000000000000 0.00000000000000
0.00000000000000 9.15661021426857 0.00000000000000
0.00000000000000 0.00000000000000 13.40162461292633
PRIMCOORD
 96 1
Ni 4.307003998108788 4.380806278063881 6.917208423573128 1.5599111707702875 -1.1682154312229236 -0.6855304076801807
Ni 2.076069123069253 8.808192233315301 1.59293064672651 -0.24180916699514482 1.4544735725600628 0.7412318150075429
Ni 5.878122683162715 0.7965463593654389 9.746867499561999 1.2154327123386746 -0.2622728341661354 -0.6562874516546632
Ni 1.1375440252333817 8.772774464225188 8.561574497990922 1.6420769429367654 0.2266419723364032 1.4577278178313022
Ni 2.081810317800251 7.624050217673549 3.7307977334951326 -1.3284296109533962 -2.1123756770000135 -0.4527416990160912
Ni 6.065064041421173 6.102633613959106 1.9745690122660018 -0.6676980074844501 0.5802301063787685 -2.3475462556327185
Ni 3.3055638301027637 6.143234024544824 11.825218449946984 1.154622265919521 0.27560760360182857 0.1658045293340564
Ni 8.875667295472754 0.07033192460732828 7.035075975495452 -0.8911330428477814 0.3048330761258492 -0.4334491693350664
Ni 4.143228864203481 5.323048959728756 9.14228032096313 -0.19507422483245113 -0.6972754640312507 0.674625844952535
Ni 4.868816986809118 4.27587152269349 3.104405918512014 -0.9456969941365907 -0.9735893496714846 0.0942324735230248
Ni 6.182387690684771 0.19675632896365178 7.198856603367011 1.2422480327593057 -0.8681581792191629 1.1035311036706608
Ni 6.525943713503017 4.670915165882391 7.644996879661795 -0.2081382571052609 1.5112224473153328 -1.0288456990416281
Ni 4.554690309868746 6.474978019926089 3.637335295315278 -1.4740458382650357 0.3792192043469082 1.1103872073605456
Ni 0.9973837895916198 6.73731490835207 0.8980363978972323 1.4171195573916369 -0.22603879153476558 -0.5620647483236514
Ni 8.528045737629686 1.2559481545260993 9.43269320824746 0.857345147764059 -0.7063285753724545 -0.6893937472903289
Ni 2.208244794428032 8.814940655192087 12.580292689415078 0.5761654493910916 0.2859082141968882 0.3345054063793013
Ni 3.4699799267372105 6.4365843524506925 5.949410557897501 0.5400332224449087 0.663061022933071 -0.37949328394390125
Ni 9.07906308264924 7.155002849100395 9.792460094146662 -0.9282366325682981 0.6059059138783177 0.02870765234733766
Ni 7.198258676706829 4.802962644695343 3.464172804411216 0.5291553991901403 0.07760926314404698 2.1789016857467054
Ni 1.3315359735123633 3.4564098301003066 10.158632944693084 0.3429702493172028 0.14244914243756757 -1.1612814231072515
Ni 7.516194503580368 1.175516488629631 11.797463848114244 -0.36982362206462116 0.09419107876212811 -0.7363246075139125
Ni 0.1662025513266601 1.4083324650735745 2.763937504726131 0.1336037762317957 0.2884620909669935 -1.305457575538255
Ni 0.43676207590644606 2.450565332484058 11.88627655952472 -1.7719616184457612 -0.48027307166714056 1.3546587198532543
Ni 1.7762908546511667 3.2170926602608154 5.472539781384691 -1.2539149275742727 -0.3025980161477434 -0.443009816440308
P 0.7745869762651532 1.380697814837288 0.5227105995787136 1.2246382900973427 0.6726823480729189 -0.10664961624045503
Ni 6.962631620865093 5.763930594661479 9.610225233642165 -0.6449090346143925 -0.2273423408375375 0.7028529581190283
P 5.591832101887786 2.1746949738628385 0.6471562604240823 -0.5519513140387332 1.4325009249437137 0.6837792293170287
Ni 8.896983884521818 8.685200642204036 13.376456302465117 -0.8264446015304605 -0.14674262760659887 0.5531833866736214
P 6.823890659837851 7.876223268537475 9.141355503311088 1.8349562170004272 1.198364444002478 -1.81375181500867
P 2.5148172677749865 1.5794603571431434 3.284751770287636 -0.6587505684831751 1.2142147807711734 -0.6897182205092831
P 3.076676039527398 4.7482335842373296 4.750058496693292 1.108182229289427 -0.45630036290162707 -0.9089525875277056
Ni 5.367229604987232 3.2627475197963105 9.482453891893611 -0.03139959735720398 -0.5548923989449283 -0.7524407963494848
Ni 4.97269873198164 7.42634984217598 9.836538185368477 -0.9855781466022446 0.048011237771956025 1.0771433577057514
Ni 7.744514584309925 3.2286574592165573 10.138677943612919 -0.6535453701331518 0.5103845463405403 0.8072217487451067
Ni 1.123433688581918 0.51478189061927 4.703259976516804 -0.30985701170300184 0.46454383385734194 0.19640502782873273
Ni 1.942968634058431 5.669058954138562 9.751437563820755 -0.7132525561857974 0.8722549749963558 0.35941091137172937
Ni 9.075647666963972 4.701260172801893 8.624776170067104 -0.5344220469057183 -0.34711229651003445 -0.5439765233633729
Ni 8.44466564317918 5.224038531297686 13.211442279170488 -0.13970860357795292 1.542114766018815 1.272928492562298
Ni 6.16547543124593 1.1102847960241622 4.9958438961308325 -1.7070374069685506 0.8702991368215656 -0.03865987846404309
Ni 6.853915185392783 0.15144758930189137 2.4716484279675077 0.6198942577376099 0.907343848279689 0.7117284062317872
Ni 4.773514985596637 8.505758547876498 2.4007671067352034 -0.1555535410300095 -0.37505967365257986 0.04583994115225008
Ni 3.931921765627343 0.7988657287838787 0.5462046305847652 -0.05486091370393777 0.08499090032009879 0.4210685362825264
Ni 1.9265142051404034 1.092319526387451 10.23900234563872 1.0127927593438237 2.0659042729113515 0.26135700722008537
Ni 7.212167567929134 2.6598213503269528 7.902013777435926 0.5048988406356208 -2.0493723366945997 -0.5997288385333284
Ni 5.2653531574958725 6.662010944288709 7.611827974089918 -0.3741212209987105 1.1611988906957742 -0.9204006814636471
Ni 8.766145078283813 5.136693624536939 10.969149544570618 0.45677884519994233 -0.2862018341779071 0.15416411688165063
Ni 2.9812733156003373 2.850553545297744 8.44065138517269 0.8004294084136215 0.002928486500704634 0.5281444414271227
Ni 2.64463053364637 2.268138183160819 12.623070541957784 -0.6634793414174123 -0.8268824603988275 0.5361218032056444
Ni 0.604180625096386 6.726949625360858 7.608933569537338 -0.1306002135187815 -0.6233711605426168 -1.2180657790861473
Ni 4.940852040953872 1.7771698892511283 3.0446617825290123 -0.10458836283605213 0.25850976757927735 -1.3307104365677729
Ni 3.0535372850054974 3.020161440038213 1.6396751429015408 0.2205057775316783 -0.03743166248389682 -0.032819103412549934
Ni 2.379510035653845 5.209781688879563 2.567188501050812 0.016090477803959388 0.2614696215385497 0.6568721205135397
Ni 6.125506826778935 6.4738609134553045 12.7488722968058 -0.5163471916818785 -1.1279383288704314 0.31359616703045995
Ni 0.9259896981760048 5.379114885307544 4.942277725195685 0.7294283946147115 1.3246953407219442 -0.019243935831276534
Ni 8.584377204910545 2.1273369847899186 5.846471943597854 -0.19214856654522391 -1.5716192032358354 -1.0068421981873434
Ni 0.9016129699258254 6.89998209239701 12.006957937827963 -0.2797977304237762 0.5118050808371509 -1.3732020300730803
P 5.137288804213996 2.022127531107038 7.571515996732313 -1.3846305836249961 0.47233093400192855 -0.17512554962466614
Ni 4.764642230103276 8.37938816752163 12.019662734780528 -1.1071483887082738 -0.2924691552438576 -0.15827813905002416
P 6.419369924868115 5.698936973926833 5.51275836131605 -0.2668830792446371 -0.4881815278809398 0.588417013064935
Ni 1.9663271472303219 8.134924982628199 6.217442858002398 -0.3272505245891009 0.6218338979624839 0.2467739671995879
P 3.0408187531373057 5.369060927070485 0.5305395014846198 -0.79435209187129 -0.20225351618970974 -0.1899926965444857
P -0.038216944894363496 7.336413614667429 4.728588992250276 1.425213647253681 -0.5062155025645153 -0.5755393857713185
P 7.218760327428845 2.2207069412045684 3.410566344390236 0.36409314733874715 0.26766443749535196 -0.1499073984878257
Ni 3.6099478735602313 0.25258143568849206 8.729336420071473 0.5954147845390069 0.5689452774935686 -1.2215370254641993
Ni 5.437415023827901 8.06738582419783 5.248264175475998 -0.32564255667203273 -0.9528634299780429 0.6461431641318098
Ni 7.72680569976487 1.7638195512642143 0.7347401547166946 1.5877112237016915 0.2154072799628484 0.8861810981591447
Ni 2.6802222783343903 8.06712028249576 10.339126217896409 -0.7410549231100463 -1.6645913219891977 0.6540621618685704
Ni 6.975844609695762 3.9410966892644397 1.4919762699040682 -0.9739261641856132 -1.2728608725491564 -0.6948241742772807
Ni 4.897724405893266 4.348346094138223 0.10181692952365404 -0.08701821516277272 -0.41008426935688086 -0.15309582351813633
Ni 5.345876389496503 2.146510927001576 11.814832106751815 0.8143727579675909 0.5989749910864395 1.250904165772407
Ni 6.307311326593869 3.3747694916288915 5.165978295970237 0.29349888205995256 1.2928540278416314 0.7467501737226107
Ni 7.124309890985076 3.527575006255515 12.519825181209193 0.047946960192923875 0.2926946409911024 -0.7748525883857816
Ni 7.156275617948255 7.893950466303363 11.312124122627432 0.9046688725506871 0.8836403340151621 -0.22378110584884042
Ni 3.781597692423527 7.465027364574281 0.6404435493279187 0.053723457665384895 -1.285994581717637 -0.4273625968213543
Ni 4.048833367422209 2.622700451699416 5.209680966164984 -0.2161971228539954 0.27837719592716575 -0.5027511981649987
Ni 7.450239438752014 7.209969981429231 6.835565338118588 0.5313032987710786 -0.24897894527070671 -0.09558153135175151
Ni 1.8595061301141793 1.441616743936696 6.879563766829781 -0.5288388963909859 -1.2084364835264996 0.8002489169716992
Ni 0.051218416024417575 5.902854687897046 2.7060430040472148 -1.0742529235318337 -0.8251153411960758 1.1062806413913397
Ni 7.859906188775692 8.96556689653964 4.977229422815608 0.8846469209028055 -0.04629991150780414 -0.6080450717085076
Ni 0.1431397966712145 3.6033551140605207 1.3572092777974858 1.3145469394340328 -0.422327348390292 -0.45163226800199635
Ni 8.963012202233502 8.284324238179972 2.3920426883305863 -0.14462609548422833 -0.9334415738080053 1.033853950889497
Ni 2.18802699862892 4.84283052644776 7.330943455604753 -1.8388195566105752 0.2262125981084685 0.3533991579600107
Ni 8.42572061622793 4.302498945783986 6.19000965319527 -0.13420772836438175 1.8051761575245169 0.23430283131577068
Ni 1.4428711995637244 4.706992210922475 12.418281118675942 1.2777968763981928 -1.25702853350259 0.6325129749428848
Ni 3.662103926491274 3.6622870586995995 11.250047797971408 -0.5650125180980656 1.6240635370784804 -1.5698024617420707
Ni 3.96825519575908 0.5126163522558235 6.31089247692767 0.3610584742774814 0.16343268666777017 1.1083745478058913
Ni 3.517255506316385 9.199280220804377 4.189509120230406 1.220814545475878 -0.13504513666401258 0.3871114626107914
Ni 6.197129833454957 0.18202700544804853 0.1072248236354999 0.47472848769982756 -2.031030086741986 0.06962727337983493
P 5.637862382450349 4.6741291361385 11.107869445393902 0.13402415159866596 0.6260196539090573 0.9997744927072847
Ni 6.974690876783313 7.097984636038315 3.827932888112951 0.889552842844855 0.28335408031646686 -0.1657973302452048
P 4.103818812971878 0.8869990197014671 10.911201019890246 -3.4478236282527717 -1.009222782604378 -1.0695976841480097
Ni 0.2430457416009941 0.03229719626024844 11.264307387372657 0.17324838720661132 -0.987956159916118 -1.2292130539522186
P 7.681901682283508 7.056715792892211 0.8836705918151548 0.5132245868924968 0.04275744557218442 0.31863810032974155
P 2.8222504625010703 7.1454250346049815 8.074291739773777 0.42551860163408 -0.4338024389094271 0.7156809631216319
P 0.36013498163793584 2.755416363072755 7.698710472024644 0.2572391283969699 0.13545497050792155 0.8744437551175585
Ni 9.059248177708444 3.466875835806097 3.7851953246560774 0.17837388135863474 0.34836493797021295 0.49369294461747226
