# total energy = -381160.88759118225 ev
CRYSTAL
PRIMVEC
9.30343407705013 0.00000000000000 0.00000000000000
0.00000000000000 9.30343407705013 0.00000000000000
0.00000000000000 0.00000000000000 13.61651617730045
PRIMCOORD
 96 1
Ni 8.529527666484887 4.0128780146135545 11.191727578823853 -0.7449028361012268 0.32543661130881374 -0.44828443457568606
Ni 3.3434122212391157 0.03129489064262895 11.167599123243361 0.011164501257251741 -1.6982383206196818 -0.7143653296340019
Ni 7.643040672676235 4.652851922817312 0.5851236535031974 -0.8625590878648307 0.7368604254127246 1.2232259831308483
Ni 5.2131326170235806 6.614173927873233 8.164639549796492 0.002766764111859751 -1.0882620933267324 -0.5593751173066303
Ni 5.351465374311544 1.0531580104751292 4.422930581065224 1.3525738122997675 2.6441366321338013 0.6232508329146687
Ni 4.318412084295038 8.752028589431886 8.369486276749837 1.1021434792945148 2.8753533683250803 1.3478614944257625
Ni 1.0345046256905193 8.8855235611398 7.128287262151747 -0.20267620554942514 -0.6286645477310722 3.0630963496034407
Ni 8.543622368703682 5.093034589998878 8.835417127337829 -1.1787515548675571 -0.180093949373535 0.30922529165627394
Ni 2.089039544369201 7.4286430405758175 10.196101072672688 1.4546527784504046 1.8656747291302063 -0.6632638829724965
Ni 2.1236762284355866 6.057605303756272 2.7399012611582108 1.0933919583541298 0.019989041527417185 -1.7215101466634286
Ni 6.735286029182985 5.65510154349624 2.5100552772199656 -0.5635791280856487 -0.16862271550914185 0.8363914283305274
Ni 9.184833633603876 7.67864491385863 4.83112618212886 1.2251604811493997 -0.2843706945064393 -0.31767676485773677
Ni 2.4103336309210737 6.250279417915511 5.045109811424831 -0.5414825532969255 0.8641601138033633 0.7909793187443152
Ni 5.948894679712299 0.4435328336957479 2.4388951727109753 -0.953699552726093 -1.6674113079364963 -2.601022060332514
Ni 0.6364981453331698 0.615575653042841 12.535623477852564 -1.0640806109845222 0.5854070225940177 -0.8717960330820663
Ni 8.383882410224004 4.187950032008462 5.950893987637591 0.6662088245334333 -0.6516790063483744 0.8425517915049684
Ni 5.331956073616617 7.688460036525844 12.191520162634145 -0.2819008928097081 1.7568687286683806 -0.49463576814671584
Ni -0.013390432279545707 5.253518823183177 12.84317918370048 1.038769128802927 1.832180968248135 1.1940545037732146
Ni 5.099584207399558 2.4168553380203317 13.267265980051196 -0.42182341217068 0.2652560851641755 0.6721550148145391
Ni 9.221591500578436 8.003576643029348 11.095622177246048 -0.29722749586444946 -0.352825801955044 0.7839789761670821
Ni 6.602572545914925 2.6650616485782415 1.9070606577153928 0.6305386248253334 -0.2203455978047302 -0.47473774367120825
Ni 4.350899675151826 8.445508355766776 3.896475311497303 -0.4484075904171116 -0.5389176207832267 0.8976554173473315
Ni 5.735008736471309 6.9863391904860785 0.8725132362293578 -0.7693676540118105 0.23963941303733569 -0.13385240190749206
Ni 8.646695111860138 0.8221630524616226 8.71380729231936 -1.0780437580328337 -1.4446049072960991 -1.7816384794138929
P 4.213757757391259 6.832813925790001 2.6021434560795687 0.48846563478026206 -1.0458957125453794 -1.1319258527632698
Ni 6.831623086262605 8.263961148441648 8.532653620244304 0.7363816860040932 2.4745009019791127 -1.5585356305789997
P 4.186219593320214 3.8161103895788906 10.910383367385993 -0.7651163349346243 -0.8883138282314316 0.04247359578317846
Ni 2.6711460942885332 3.3347786346654904 8.260704016265542 -1.0365386968105115 -0.18284502975611092 -0.07410330687331754
P 2.466591495156753 8.942972264902876 12.986098533855683 -0.07830423232854257 -0.6692969765404538 2.1879709950378254
P 8.621538626843886 1.3213480968521625 1.421809366138773 -1.6905581783666046 -0.360993682477817 -1.4100652216480165
P 2.7940909720584193 1.0597448416110413 8.006960301905238 -0.0773099867360733 -0.054887138956182885 -1.2432397072486137
Ni 3.224523640609424 4.1806282296017345 13.473978045483003 -0.6100788143090848 0.6293451187378645 -0.06826690269719855
Ni 6.691904117337282 5.472614689356527 6.728805257192483 -0.4534934895804512 0.9672904040366502 0.13617076562802355
Ni 0.3423589213794611 2.549624641891239 7.250617182946938 0.2718787326870156 -0.9317107071598276 -2.1414319709360217
Ni 3.2988208629983995 9.191206485762208 1.7781122741093431 -0.0175349235599698 -0.4671619882064793 -0.43146402058423755
Ni 6.820458965693262 2.4263076267690415 10.220719819214851 1.9766186018706413 -3.314933590258549 2.207077633960289
Ni 3.0941546226609256 7.5068384017302545 7.2001683827808405 -1.0213180232060153 -1.9670756953772122 -1.8129745705230131
Ni 8.034743146285429 8.264147217117804 2.525264530808933 0.2296313939820303 1.3375202604007546 -0.5233493340313244
Ni 6.951972306000119 7.625996781940372 4.485157528431978 -1.3083163851432886 0.3282596825799057 -0.8699839195739919
Ni 5.192646455778836 4.324636081512447 1.0234214449953043 2.2230089604785648 1.5180960345067145 -4.032152844401578
Ni 1.8585934889503535 8.406192044495073 3.4200055310918525 -0.7108709433274983 -0.47835605715008583 -0.07447200306664595
Ni 5.963938332179488 8.15758568628343 6.414672953985843 -0.4275171201213476 -0.007558786183864402 0.44742465767855194
Ni 3.5614754062598006 5.582618490699783 9.417440876696272 1.5191242186609129 -1.263126675980528 0.997206217759476
Ni 0.7008313901140069 1.1923373802396007 2.9005762147355707 0.33377984106718644 -0.937799850776701 0.7689439362108305
Ni 6.80173115343819 0.8282419161116296 0.05536101321660855 1.7872771657569089 -0.39639057391987215 0.010956756121819839
Ni 5.770622281087513 3.57025784777435 5.634541885124415 -0.15132150522653295 -0.7468761577775137 -1.7701628746741256
Ni 7.989286568700589 7.676542337818071 0.2156703418453225 0.5065376617906244 1.009608448078571 0.5787496651785
Ni 7.235624699365691 6.3097376633810685 12.362910811271313 -0.3669794677476067 -0.5375032569342033 -0.960501663249591
Ni 3.819645694425849 1.9853062574123923 9.63111098027292 1.3895370197876777 -0.2823912021825653 1.3056231545818417
Ni 7.098278106061354 9.03941165975438 11.01520329541155 -0.16731350977941506 0.6788709933821341 0.21221885493253773
Ni 6.194086677716486 4.210110811338607 9.58346716539987 -0.5179016806531919 4.175749727290344 -0.09696144241841366
Ni 5.231255706081147 1.123743162774798 11.387137832865962 1.357216196167785 0.5540709314848974 0.08837730029382844
Ni 0.542970725263502 5.14461282702924 4.088767054527041 -1.0785026999471232 -0.07068476811007181 0.9338750618009982
Ni 0.9138790939689145 8.18510524348686 1.0778670003252269 0.25226455800051395 0.5440544277891598 -0.285203989041012
Ni 1.1810337081631415 3.3250937600715855 12.75110495999159 -0.36162385986264817 0.2593942270667597 0.4713881104726849
Ni 1.6601884595655192 5.8445752764256 8.434505184602308 -0.5831287680828021 -0.8913706127798843 -2.0630120389652213
P 3.8439927807008236 2.9998736244528272 4.427410184443673 2.0130719596016684 2.2022840692263883 0.9279558681030857
Ni 3.5290994566087064 4.834427040443862 6.7030161386773015 1.2261236163936173 1.631816955771654 -0.9780203888596447
P 8.161111687696579 8.585283145294945 6.512929309460008 -0.01409015954447896 -0.2814761465674636 0.9336480333918565
Ni 9.00080240945207 6.226388199897118 2.2144675086223846 0.7556091667751373 -0.40927360053012735 -1.0026772681763765
P 2.2347592281005455 8.53391888724216 5.45782595097567 1.453111916325846 -0.7386630258391019 -0.5113903618972353
P 8.645225169318508 1.234137708337981 10.737793506131 1.0013552069308431 0.27573230210515093 1.64732456448895
P 1.1313812819309899 4.657140805802702 1.3255579006501856 -0.30954050890384754 0.7904447863970838 -1.9426445589180412
Ni 2.6135392321507256 1.8095643927833238 5.872381379390309 0.04231187339433358 1.9734054942499824 1.3486436240074258
Ni 2.954928735727415 2.206495396192493 12.03599186863925 0.9625135514732971 -0.2862131470318167 -0.35866503434464037
Ni 1.8097969786285184 1.553747873370645 0.7237448172392017 0.5385718074080338 0.12980702819352483 0.36861777468197804
Ni 1.6673334967298985 3.2778602266294583 2.7601492544974753 1.4782439355067831 0.5549003693647282 -0.5262857909518291
Ni 9.143758973342502 7.588606281466882 8.736996101085266 -0.4689172803346892 0.3980160253384371 0.16578473183971448
Ni 6.900561530778296 6.889183431231374 10.058915428773226 0.1261735452059956 -2.6412431126360896 1.9181026079126193
Ni 3.0224530583043228 7.0235436222834124 0.3629018335704324 1.2041885068834228 0.3233707299187205 1.2298869400907915
Ni 1.7753835769735196 4.004021145628543 10.442438323378616 0.8141727261416429 0.8655261409129544 0.7024096999340226
Ni 0.5862744882652206 2.9084115666884873 4.651878783641018 0.48450022237461077 -0.2945836304836992 1.3878169517727776
Ni 8.371583270730111 2.7475179824166447 13.255459922549116 -0.8413338599374671 -1.6705123154593229 0.16421430202880105
Ni 6.023443094814084 1.2554425717578102 8.476852554608586 -0.3418518194420435 -0.02767072644239105 -0.7698502500751838
Ni 5.091369275347283 3.6605848866141395 7.773287815641852 0.053371473642604854 -0.8435090132119151 0.9686680011104672
Ni 7.757519425681036 3.3460636998743345 3.8921585182104907 -0.8863690458002348 0.8844165500595542 -0.8923602303866632
Ni 6.267537287628953 4.170031618494667 12.389654462095173 0.8529639879772277 -1.42715097348571 -0.2444640881194887
Ni 1.6112430943027598 0.6306072110460801 9.746742428726506 -1.1851705710200233 0.36298525898654904 0.019194570650579845
Ni 4.49060934064334 0.6026159697485958 6.359797580014001 -0.6282287457452341 -0.05586544370905217 1.1172610516622434
Ni 4.676947816379478 0.1432645075494701 13.62604732278816 -1.0096387870958738 -0.49072434890745165 -0.27623418144223394
Ni 4.553193539868314 4.480952376350859 2.8990513819344748 -1.1477101121807203 2.119823905747943 5.226844467538159
Ni -0.046171081301278005 6.1711816236817185 6.905901701783964 0.1586319228450171 0.36250754801918217 -2.005973143773358
Ni 3.191328988783246 1.3374616442072471 3.6146947690138567 -2.3856983412224073 -2.57447259197876 -0.860862416888698
Ni 3.8959989756863442 2.659963366851575 1.8738781003531644 -0.24513077516921009 -1.7941656653466262 -1.1237194056930777
Ni 9.390979119916787 2.934470484784095 9.354096586929202 -0.31588830549874625 -0.4399442901411068 1.3368720852937943
Ni 5.065654584302564 5.662851303858125 11.339221427382343 -0.616967571009118 0.7008824646562187 -0.6419666641566169
Ni 4.780588068998208 6.456257442419883 5.242290508920561 0.3397116331705891 -0.7475485012541899 -0.06180134957751291
Ni 7.003736611706637 1.1313812819309899 6.2066798057187045 0.801872054397419 0.5469374057639097 -0.0942854382481473
P 7.615893252825117 5.6035140030320685 4.460593672149282 0.40726968272622116 -0.1825606657464727 0.6307641105725782
Ni 1.9952609315867227 6.193323796144248 12.191438292416635 -0.0758305739770694 -0.9287706506948972 -0.827091233975524
P 0.5687207693566908 6.030532311375617 10.24227494500411 -1.4695587490279594 -1.3471840087427638 1.8227828148626868
Ni 0.7233363964950399 0.8066933027260367 5.361231188779576 -2.5338103383727075 -0.6842188879576088 -2.08229299868202
P 7.362411895298193 2.973209983159714 7.571068378395826 -0.42307425385864555 -0.031173597389326957 0.29199710070344553
P 4.325975775980768 7.591853179865798 10.055347561907942 0.683259866478449 -1.4334560897681312 2.252105363623889
P 1.5741223934096953 4.259037569733751 6.702729592916022 -2.672016132152889 1.0590708164747569 -1.587726650320659
Ni 7.633914004110798 1.0364397399225387 3.7553264047957233 1.356935945923205 0.07993713994627523 0.6844983668712405
