# total energy = -340869.0234534557 ev
CRYSTAL
PRIMVEC
9.25762404457917 0.00000000000000 0.00000000000000
0.00000000000000 9.25762404457917 0.00000000000000
0.00000000000000 0.00000000000000 13.54946856421852
PRIMCOORD
 96 1
Ni 8.46266256511986 4.268820030928545 2.0589640829528864 -1.6223411550707352 0.0840691598367778 0.604820651233939
Ni 4.954828484221801 5.7677774777374164 3.7062943952954326 -0.5161425318702401 -1.9172873111001754 0.7821470651646658
Ni 1.7333697439916547 0.8130989670243371 9.734859140977994 0.10144441789043174 0.3717550347593791 -0.6927588071078198
Ni 6.198368085002753 4.874620429927278 0.8264660503110249 -0.3940405856304568 -1.274200417296186 0.7837046394597729
Ni 6.727496842073134 6.967648866132949 8.034577070907629 1.1572237080981103 1.0870904416161342 0.1522987815381377
Ni -0.09932967665663549 5.265171813413319 7.426138249070259 -0.2948775075750341 -0.7861826686866202 -0.9376910931129786
Ni 3.713714380927596 5.530004663044371 11.14763551449063 0.6891314947678776 0.6092678883720153 -0.12524486274413912
Ni 2.6407094717624586 8.013677058976036 7.172614512911759 0.17629308757020606 0.35714911192074617 1.208915737155763
Ni 3.99886771522814 4.396454892950543 9.1020996151428 0.46723140799183405 -0.1723047923464194 -0.36109575527332005
Ni 2.089195779871653 5.91849159637948 8.696360173730213 -0.5344590707912408 1.344739403857013 1.66166437815039
Ni 9.167871330579189 7.681707920131702 7.018882408847255 -0.37515943245523775 0.7221159201136983 0.19115509228370306
Ni 0.7062187722372062 3.7664550648283233 9.205156411219908 1.1537964275841162 -1.07587297563376 -0.2717784596637255
Ni 1.7928684934088872 0.9262160230970431 12.207840832719985 1.0593829483985369 -0.17830394735264773 0.46677529429102194
Ni 3.766890173156098 4.326661665650634 1.6330087680219525 -0.029768746622000342 -0.6714713584839533 -0.0433786240959511
Ni 7.549638656215996 0.02499743631187354 9.10757364821117 0.09734865055450331 -1.4341721419985494 -1.0259820043405878
Ni 8.357708881886133 3.9985066678923262 10.960463021030618 0.318645042308277 0.7742956874410472 0.6227409831577856
Ni 5.159653415115884 7.079156947155287 12.590328825706198 0.3161834681416619 -0.7162522622440696 -0.4924385033850809
Ni 6.472856636460812 6.9026047999425835 5.739066808441063 0.44667775221019845 0.3533251101889657 -1.1777030589983848
Ni 4.687958957311802 9.041838037508361 0.5916121644636706 0.16981339338313334 -0.8445827058920681 1.601244996522068
Ni 5.911752046110966 4.480514118827075 10.746015715755911 -0.17190807112863296 0.48021265074285047 -0.34662712934349976
Ni 3.2081647921730214 7.874377590720069 10.239265413169159 -0.23888659403171114 0.013053490749848488 -0.21117935792442985
Ni 3.138158639521222 1.4112414594542309 1.251976073527789 -1.5497473428634085 0.2355649858576459 0.06032476503198643
Ni 7.311532567059123 5.352387889072219 12.503856137254113 -0.49232820305946173 2.3896799515779747 -1.1489444988084534
Ni 1.5390614739561337 4.980555421304498 11.278916028841943 -0.45045367431286293 -0.10041263419180771 -0.34346467245511814
P -0.05010688987408915 6.837431127016287 4.981069219436232 -0.9846042127247493 0.052258443084084186 -0.8849829640859855
P 2.832545956191258 8.584270713920976 3.0505676300905167 0.15397256969613485 -0.2806204834353877 0.22782390845964634
P 5.999088470881803 1.7564675158597107 6.856789744552676 -0.32510133945658204 -0.1283039612854371 0.5256062483863012
P 0.9606266114872489 1.2083143414791668 0.7976313288531357 0.7184484985644402 0.6485011228410251 0.938045905349236
P 7.056559086982973 0.18624025072369305 11.281761822458073 0.4876788772129085 0.7133222330814682 0.2416890964775128
P 3.553742638290319 8.446063645296444 12.563961261043032 -2.2232359888877062 -0.7787514092195557 -1.5628815662525213
P 1.3119256692335883 2.865317945134311 11.184245714342099 -1.2583799053241618 -1.0194696571433668 0.38033274912606113
P 6.4972504756881975 4.932017698697598 5.062081761255939 0.712463741735915 -1.7962649710778162 -0.08824257448817706
Ni 7.467514273754463 3.403639522831939 6.655201279007319 -0.1438413947994039 -0.37766342982401413 0.06129689913726863
Ni 3.407592528277895 2.906903192120807 10.821756966472746 0.03684210852901397 0.2159695802242216 -0.6896953376911477
Ni 8.236554356660783 1.8941191270445294 1.528353180280871 0.35283557214705685 0.15262016943329845 -0.2327483423444572
Ni 2.92573319932707 6.376929136622418 2.6138956896227246 -0.610945018964122 0.8595755797564744 -0.10605029209355929
Ni 5.961752473309109 2.140760745524988 11.40926244893214 1.8204539096191936 0.5719490973168989 -0.014189404126504596
Ni 1.6587255217182542 4.7242951314930135 3.9657800413068496 0.20766080324821012 -0.9288783799173551 -1.0788053187892066
Ni 0.5760954608852945 2.816928344511334 6.072302390247943 0.39714056471201925 1.0514606082276665 1.199459991059502
Ni 0.31186805986352945 8.983792735058378 2.787559458148921 2.182501744393138 1.8780072825536303 -0.6652060943005318
Ni 4.33583597102989 1.096769229960848 3.3126685548805814 -1.605083653541868 -0.9152569324791785 -1.9503691812558086
Ni 7.0073548154484175 9.031386180017767 6.717366224135173 -0.6147847044251864 0.8359702816327086 0.030935513236591883
Ni 0.4765408239655753 6.507544953570874 2.70218379814027 -0.5210466540400769 -0.19086455762647772 0.590804539460505
Ni 3.4039172515517957 7.182925654517628 5.02568726404356 0.8709740514014033 0.3217820452753619 -0.5640385842205706
Ni 2.2192191088844164 5.908382270976707 0.12744785801729525 1.5095769412921098 -0.8493089077231437 0.645379803603224
Ni 0.11818560521008487 8.767543896154203 10.898379542993922 -1.9885094397709557 0.12538524497674536 -0.9986365224480994
Ni 5.223919840890651 8.535520065962185 9.05071980196937 -0.522560776691758 0.6879259044955508 -0.601433479929261
Ni 8.793826290676613 4.521534650749863 5.07149861638387 -0.9043618828332297 1.6185040407128322 -1.7463865981901343
Ni 0.14394957278876203 6.9925148441840905 0.2443309155312537 -0.48784342781523077 0.09116514745161072 1.598855670354285
Ni 8.829357051570238 0.7993578757282429 5.624100079094114 0.3254255555652202 0.6582551169039954 0.4504775855722629
Ni 5.941367185271652 1.652319245913567 4.775537006068915 0.7436566223989515 -0.7966285466102926 2.8326416883891667
Ni 2.2544073376902203 8.202190056390554 0.7690206418959307 -0.17895366512150468 1.2609803190614863 0.8818634446203973
Ni 7.275196392877913 7.664544285244577 13.29891199511178 -0.6713803414320437 -1.4596471463412022 0.7539533763392692
Ni 4.267061082369454 2.7481719710988886 13.006433102943825 0.6730728986431183 0.7223383205371495 0.6483381149005996
Ni 5.015271511286546 6.701732874494457 1.5443549833565964 0.03817882506256651 0.3267573870027663 -0.9712959256516176
Ni 3.9377766544837307 5.711861428806332 7.120570928097872 -1.9174215226851945 2.7534900204586643 -0.15292587359917534
P 5.319625157753161 6.359635894999359 9.475983572387861 -1.802785288694837 -1.3359729705182926 0.7444991729049049
P 7.688123453560383 3.432893614656811 13.28464414501036 -1.2608702758461834 0.44635379321187646 1.3312519108935394
P 1.0399551915022274 7.782458642071602 8.984896243838607 1.2038514352589782 1.689094963557517 0.12240842173660856
P 4.968372388126798 8.15172674799265 6.674631180248472 -1.4335298804288603 -0.18485511820760422 0.3829046236182954
P 9.053937752070105 6.355451448953523 11.482416193742312 -2.0328167463287636 -0.6690691768003638 0.6749829711816375
P 1.195307379765893 4.612481548878833 1.6439568341586912 2.3065960384726014 0.8492104344720666 1.1813761369745976
P 0.016582256100225127 1.1840778818596998 8.196114277762495 0.42647428067913007 0.04324312695935133 -0.8016457973192258
P 4.240408382887236 5.198489147775802 13.205542376783264 0.9359877372686267 -1.118427818276835 0.7012524464011277
Ni 1.4438560687893653 8.645482123777322 5.073463084195654 -0.01917374471497343 0.05094512358929936 -0.7148695229639301
Ni 7.73173612020183 8.628114821162303 4.1798079762145735 -0.6007482809367783 -1.4438777993220875 1.1864784911981696
Ni 6.858955102805155 7.324558044020387 10.665382736520009 0.3183884462127807 -0.11519519181762096 0.8916372361777096
Ni 1.1353364915249045 2.6860347988430204 2.6241124034638412 0.3275022355885908 -1.1710878676747123 0.45846934552848784
Ni 8.27682502103996 1.9143562930980644 10.078297550189998 0.6847145966471047 0.0025819017945632955 -0.4277683169002052
Ni 8.651545867494187 6.4755135745474375 9.36186947021087 0.22979208792961067 -0.5346719581329953 0.23514332493919501
Ni 6.049385142047793 3.065532579278778 3.1226511935668415 0.6872034245072294 2.3989516066878878 -2.0001912469842584
Ni 6.541094582929525 0.7457404948351691 2.758671968234259 0.9139942637166711 -1.0518290473106786 -1.9678300570447336
Ni 1.914634021817921 3.250490649079134 0.004969492560630219 0.19475643648171623 -0.7016823348496948 -0.4830043545553746
Ni 3.7349235975006283 0.4584338371933386 5.4421849903009845 0.7190773903976906 -0.11873431531913099 0.9811105977491942
Ni 4.21750502112308 0.7750038442840367 11.326407639937386 -0.4517721360139703 -0.925697153975896 -0.4753985171836586
Ni 3.806494288607618 3.2032860243275443 3.8826539839290355 -1.2152974723123908 0.8282472019568382 0.9615185345498796
Ni 6.010475348395914 2.7626138645314207 8.733540643219786 -0.035417717377661584 -0.241415531101152 0.735983679234726
Ni 5.8365893968938325 4.926518670044441 7.4728031543429285 2.8671955151046364 -1.0452958741778513 0.280293182002956
Ni 0.1644709478989502 4.832396406885112 13.351903560622778 -0.7067340383409892 -1.8668394388622689 -1.164219679799969
Ni 5.0716504414173915 8.11130796162955 3.408951547480392 0.028674485116557073 0.010424537767433661 0.5454129986995833
Ni 8.787512591111877 1.8832969645941255 12.492650709170308 0.2992275570136137 1.424859863458688 -0.9016077171268602
Ni 4.226947797598197 3.310915160895888 6.713761305351437 -0.45398868404931486 -1.2719926110115898 -0.19321917390158336
Ni 6.7100554784661535 0.4834284962180136 13.528005787309313 -0.04231855826255292 2.798919356436057 -0.4143633563482089
Ni 1.5181114708549672 7.355080430332603 11.939520636129936 2.641133840751735 1.1907835463314265 0.3943820281302757
Ni 2.155813642141204 1.4343299736982915 7.154579735606685 0.39422287684459206 -0.34281418335531283 1.340411723015937
Ni 7.13606356185386 6.202089649848828 3.0999968618881564 0.2379833654911514 -0.5680019397436927 0.3343873927441983
Ni 1.6246389501678806 5.905873454874006 5.943284439201059 0.035064447803300904 0.3765144038212354 1.711360974044569
Ni 9.00258571176866 9.123138491434322 13.288464766433183 0.793564048752356 -0.8762836365397748 0.5600754858077645
P 8.023675292890866 7.823312536762476 2.117104738930021 -1.3520277099883102 -0.07425885861457533 -2.5375541216858557
P 3.849171935225549 1.011571316332905 9.111448889615566 -0.3212799088279628 0.22873742141285122 0.02670913386007013
P 7.88093198850868 4.2365479536812325 8.802141488549111 -1.611893220264534 -0.4782249308888603 0.14866966942598267
P 1.9587928882750858 1.650458463490529 4.942981502795128 0.06846179231682402 -0.06788535098806374 -0.8340332125109958
P 5.254932881274614 1.8825193241785279 1.2510058745330905 0.7018183462069267 0.5787414376483839 0.4662160793534422
P 2.261544965790529 4.161089060496254 7.6637148021346055 -0.1490558491208078 -1.9160896912476486 -1.2410115892490432
P 3.4264503083561433 4.9087070014776515 5.28876394240272 0.5386049746388143 -0.5953222248252005 -2.372551262317488
P 8.101244924346753 2.160516515130772 3.9138456964561055 0.17953087778121338 0.12208009186291233 -0.5247901802429091
