# total energy = -381165.7419700887 ev
CRYSTAL
PRIMVEC
9.22739302841136 0.00000000000000 0.00000000000000
0.00000000000000 9.22739302841136 0.00000000000000
0.00000000000000 0.00000000000000 13.50522241626220
PRIMCOORD
 96 1
Ni 3.8148442444230954 5.541510962030182 6.999878305169906 0.43031088081640084 -0.5831822470285569 0.15644339983413058
Ni 1.729933214785604 1.7156492101744596 13.117176754883861 0.02671659005923786 -0.9931721568994186 0.9787351555384822
Ni 6.094886957207789 2.513431167971821 11.596245840643054 -0.722173255714195 -1.2344498768711256 2.1777477746479206
Ni 2.5785857910721375 2.0023904526107064 3.603800844511386 0.2583876401791163 -1.4179572228015838 -1.0492607723628702
Ni 8.341794101156164 5.108617039338176 8.82227276763319 -0.1381500008415814 -0.07775221647981448 -0.9064989837808906
Ni 4.274202330696989 7.717782411341407 5.9637573957552625 -0.34513563239963785 -0.4232202925182066 1.5182078774942305
Ni 3.4530842955988623 5.9597056474188586 4.542603206489106 2.135483980882703 -2.162807351288004 0.6973623673181023
Ni 6.385559069130048 6.955147594089167 8.083564580843934 0.3815943894473041 -1.9509970446477949 -1.1578328024370188
Ni 5.882260136629883 0.6309082434622836 2.3610370789828723 0.13265118251053928 -0.4224954985370401 -0.07803349516565916
Ni 0.6019462245520778 8.254124638746292 11.332556471798254 -0.3740911390917235 1.0451081836470777 1.049284169401638
Ni 3.949296590152413 7.497644492731543 8.642113452626843 -1.2291256364447347 -1.5198472128698666 -0.5481663930750043
Ni 4.573308279967171 7.007236228475414 13.172670297346022 0.582552583864358 -0.4165130557013601 1.394573810880637
Ni 8.962114833707062 5.6221952878181956 11.48501699801795 -2.681647998815698 -1.44443084361208 -3.9368209671667875
Ni 3.4648399944842616 1.6184386232375052 8.86424725637714 -0.5201174573575881 0.3049516039815845 -1.097620908833813
Ni 4.8989891215371575 4.032260082050862 5.546554655131248 0.8923414613335857 -1.441325722324195 -0.14639424312824464
Ni 7.628931842607099 0.04254381890190052 11.283965019419517 -0.11617555345301928 -0.15722475808484537 -0.546016436611537
Ni 8.345346647522632 7.358652269567676 9.504354288080282 -0.5288041864983086 0.5329830004663466 0.6434332213998145
Ni 2.5143815894672654 7.845812491431605 4.106614416131353 -2.581748556814883 0.49066881307916793 1.8769479880511801
Ni 5.5721735894997115 2.2459105854871337 7.523489498232417 -0.7357944460420555 0.7401786911526801 -1.3013188707795331
Ni 5.143238218473198 5.42291127774915 2.437706566007121 1.1054036381030252 0.21512960082142948 1.51617104956986
Ni 0.39004283159788855 8.202146733077962 7.478584389420961 -1.2726657258192147 0.8556291935142167 -1.562487416137896
Ni 7.445057579114675 1.72843837709374 -0.10899027704456864 -1.7650281245507213 -0.3595890888208065 1.616888616596596
Ni 3.0491828422144893 6.693117310534475 2.029294762846309 0.010572890419839857 -2.1678022333994345 -0.7628190542600154
Ni 6.294890703943288 1.082363990234249 9.515779646290566 0.9642780995728878 -0.6511668425986463 0.0845116466908351
P 2.9659333011280915 5.120704924377323 12.152633656947971 2.9086810359429327 -0.3350602504415068 -0.40267563559763553
Ni 5.078489600671906 9.149790783181263 11.650658855366217 -0.3796971724245912 1.2607417206881188 0.434936038293238
P 4.906444855210158 7.992426541345347 1.7298704685121182 -0.3802810699525192 -0.5356985996252969 -0.011417240698006143
Ni 0.23719660034411663 8.891599095180986 4.863109325975159 -0.4783889672705503 -2.0079755189153676 -0.22338104219694435
P 3.2344781242535006 9.095284571787188 10.033475157598424 -0.20859257103386014 -0.18572955039275757 0.9802032554435763
P 3.3106779369659227 3.8448886365509285 2.7844664645110204 -0.24164127395871288 1.837659989084835 -0.22237574086088152
P 1.4953728806672004 7.925186527390949 0.7330942407909233 -0.3140746493287752 -0.15689385710798787 -0.6170696438046213
Ni 5.284804884328608 9.100784098110342 7.647548108306701 0.222764491658868 1.0454043747312576 -0.9798841815412608
Ni 7.692933041562458 3.656086945111249 10.652906369448731 -0.9730476182354018 0.7772617120479066 0.08017213877521677
Ni 0.15591618495798884 2.0052140349175605 4.1894284242606155 0.6787221265090956 -0.7417267523660903 1.3403749562407303
Ni 2.2531264069379833 3.7137489249659263 0.8268500917289033 -1.6918493863742023 -2.2192250679561005 0.6159730683063327
Ni 5.14743668236084 2.7700449717417976 3.111468668781469 0.06811109384562464 0.8089796119764777 -0.23209013993516803
Ni 0.8190787812098428 5.416064552024686 1.022098040029917 -1.3378619600108894 0.9013506068107315 0.6658249588314533
Ni 0.27074924735125033 3.2150083246866306 9.58322450837311 1.6470864803362149 -0.39355439002265774 -0.4926789015306612
Ni 3.3261707300809813 7.066642185637266 10.920755447129899 0.37312646118560905 -0.6702007193016457 0.4371872962212599
Ni 2.8290449236046245 8.851404570577534 2.256007199082427 2.5001674535072813 2.384105542813991 -1.6513429416197236
Ni 6.976739694082758 7.959530884731181 6.06230503196105 -0.06211990925919625 4.029159051880577 -1.1813272860145332
Ni 5.211770067469947 5.032094267865166 11.891308346230675 -0.7349156429815279 -1.0180915458489175 1.227000619681932
Ni 4.216734126098664 0.12451167507842256 4.450997338157326 0.45219302560147284 1.5603063493261773 -0.9512935143877618
Ni 7.66755771037341 4.8799068724829935 2.283801030018621 0.3425359899932617 0.3453186949447214 0.5839335233722847
Ni 3.543189789802883 1.7733573269949352 1.4411831688585006 0.25253606649434573 -0.04762634362871153 0.000923797365850022
Ni 2.727469779703154 3.6364325976811864 5.1355093539626715 -1.7797093807119804 2.2407894243904374 -0.11618995163072249
Ni 0.09138810185321275 7.582296597578208 2.340752500600005 0.950158372342054 -0.8048506774097687 0.42876744758868096
Ni 1.289076051796817 3.834387863135243 12.123178895243038 -0.8970815471217325 0.4193075877273617 -0.7605418281900643
Ni 3.584187097611226 1.8229914748007139 6.091530954315623 1.035507684442836 -0.7966357456991441 1.234272727863313
Ni 0.7813258248364346 1.4390211906411938 7.50219175208062 1.3205872320908418 1.089575155711201 -1.1028569604217715
Ni 8.92163425991566 1.9422832135687205 11.84156808340356 0.6125259902979967 -0.5473081588397671 -1.7469416993626559
Ni -0.11523537673502243 0.08933408413587378 0.01873899002862525 1.5512987465109283 -0.3104167408612138 0.31430861971645224
Ni 9.015135434802433 4.17604132226459 4.986938173959768 -0.17607891467687095 1.1596899102504157 -3.0863620049996006
Ni 6.247175853914718 3.562622679797114 0.8171640971292146 -0.9736207171300524 0.28194074490870796 -0.38373534704970685
Ni 3.4902522352459484 3.036347538329411 11.843634096732007 1.43029029044564 -0.4288733770389259 0.042975218009945346
Ni 2.68839176967202 -0.3162393728890283 7.305434202258686 -0.37539314573259863 0.9880091246412404 -0.43170390450918555
P 5.953634022719807 4.544048216257909 8.05605403087774 -0.6943261515949396 0.15595129068906044 0.40195906914658514
Ni 5.093530251522141 2.9556632125413964 9.741789877907236 -0.5576439935481363 2.6997210542673247 -0.923339709487313
P 2.0712637151543634 3.5279922732689326 8.54850893093668 1.6364696240523173 0.28998829780353286 0.3789865195108118
Ni 8.317913607658982 6.343537520680984 6.684126138639707 2.00094560865178 -1.7940895606930523 -0.08974332740341963
P 6.748786173466666 3.719239223895921 4.380027611887796 0.9414374475292883 0.6024578074287172 -0.5712777822814872
P 7.626689586069303 0.04031171249658022 7.7247979983606925 -0.46715556044857603 0.24134688264674567 0.9385027903809966
P 4.784938542083834 1.8008457312175445 13.279226388075074 1.1431785428589538 -0.2513453886203542 -0.9401701507810906
Ni 5.758391610854688 8.064640120212799 9.749730972460434 0.5864573182354029 0.4987215081803153 2.268456551288403
Ni 1.467782975119835 7.770563100214627 9.369923165355234 1.7964369778793063 1.4502605629199796 -0.22901638610585073
Ni 3.7017533138583767 5.008287593513258 9.38966794123826 0.3540424479709645 -0.4164562343214957 0.013052462308583972
Ni 6.376128673320881 5.488684136191163 10.117275574056453 0.09732936728079367 0.5622290418156576 -2.1775024914063335
Ni 8.139437369164954 1.2695693426573083 6.039602876570354 -0.5294197085951206 0.41409673295038363 1.143523327792882
Ni 4.017745392610726 4.771060542771715 0.6642458922087974 1.761327792880999 1.007952657642703 -1.770077514049171
Ni 9.036469167787553 0.622709704639931 9.319630181677853 -0.7519882821930984 -0.3696516152631311 1.6494323548605723
Ni 5.9468334339611415 6.037363388250506 5.97001080009956 0.10904434172487672 -2.1388151021384654 0.2929304111509923
Ni 6.174150264449216 1.6524600218171492 4.878491390372302 -0.05358410387404319 -0.790133425804252 0.288882980554496
Ni 7.633730087050119 2.6860756939889465 8.331345001142173 1.076299264537901 -0.6133543997365629 0.3334826215417418
Ni 6.966414241137104 8.724509459845972 13.384728710505293 -2.3500965328583976 -0.08435660917020957 2.0343321545320254
Ni 5.563582886468073 7.2497136659248005 4.148034338546408 -0.4663040110815582 1.0177254207587505 -1.8796419899435757
Ni 1.4361514713685413 5.544703640063422 3.603625524041352 -0.5603361956683189 2.035075717566269 0.5357538783432644
Ni 0.8565964390576798 3.889613811195771 6.841786300904871 0.23146844719076912 0.06125473304542354 1.6044784158577012
Ni 6.437647703516295 7.197089842735294 11.78284772155347 0.8870799558243303 -0.9782952397875863 -0.6384748489532746
Ni 0.792728114563819 3.6694758925859072 2.8460639275482906 -0.326824749905592 -1.4335759031754471 -1.9026831880337554
Ni 7.475904754447398 4.0712458181504 6.518930887120371 -1.7064367972700742 -0.30062418025082416 0.3945373227612173
Ni 8.285451638523318 3.8780057506009267 12.895056792223304 -2.344466074045498 2.747981174825293 -0.5128438065143104
Ni 1.4264350263714256 6.360645107598982 12.4799468243679 1.7139199930209967 2.501403125686595 1.162110089656134
Ni 8.477658238038911 6.946769121100202 13.054054003757301 -0.4983476697806643 1.2126284101206601 2.652243320401335
Ni 7.035038364065451 7.582785649415669 2.27070089994986 -1.012405551207734 -0.5416609878563188 -1.8966243834341852
Ni 0.9020072090142848 0.5726926200180268 2.3439802427272514 -1.5276512822953174 1.2219933962753275 -0.2637321923204813
Ni 1.6687555981370983 1.9035281622981737 10.77423736210502 1.7062653046892164 -1.948889511386489 -1.3205298964903451
Ni 1.7236678148301987 6.259946566047679 7.584344156120335 -0.20654957246190234 -0.5857944878404233 -1.0074476929818261
Ni 7.892715330862127 6.672346448532093 4.217856177106878 1.210239341063193 -0.6190151975667662 0.7040238384986778
P 1.030902818582859 6.699954808865778 5.538410557928538 -0.48752075436848935 -0.18024667290131538 -0.21108396999714613
Ni 1.3995002657383957 5.589788683041491 9.81026082610913 -0.1821552027779379 -1.4772854282482557 0.8009857951377238
P 7.582278142791889 -0.14516996288425582 3.7393936960352367 -0.38219679891799335 0.6812937438910137 0.2483906768674045
Ni 3.0830658298967384 8.615413990519384 12.815132803631645 -2.0256767928498727 1.3621961658808799 0.48346689601408993
P 0.031017882106176762 2.967585004503669 0.814409720271058 2.050678714210849 -1.1675975951332664 1.8651617940495298
P 6.615570298420741 5.972974638782441 0.2517020623910926 -0.30992051795108566 -1.2787309581766884 0.3733059241862668
P 1.9495820815580065 0.8169444851720148 5.22550781040604 0.08341918495760473 -0.6505870588357763 1.2534264179736285
Ni 8.08969249264126 1.9382047057921534 2.2887570628846707 -1.1966076092123714 0.16577804697149515 0.10274231076624887
