# total energy = -340870.81196193316 ev
CRYSTAL
PRIMVEC
9.18146567944455 0.00000000000000 0.00000000000000

0.00000000000000 9.18146567944455 0.00000000000000

0.00000000000000 0.00000000000000 13.43800309863895

PRIMCOORD
 96 1
Ni 1.9825631067190337 8.086924960477393 3.5066873592426187 -0.9585946760348651 -1.452760189413382 0.24064394304245007
Ni 1.6447861588371337 3.959819326165357 11.783852292541045 -0.8994186798953413 1.378626286412445 -1.3841032503666162
Ni 0.5427118568274528 1.0392868476594574 3.838135522700506 0.8115031497292797 0.5461593899473046 0.1517948453185257
Ni 3.0944569864764024 1.5668814209323818 10.502418054765975 -0.06858186283445607 -0.6994030518972147 -1.6343595196878498
Ni 0.22434544594077227 4.2741376287500685 4.894241897686743 -0.784150725858256 -0.7922041922903518 -0.4946676498259159
Ni 2.856859012699246 2.4160476548271133 1.0569446428201432 -1.271734729364513 0.706083292130868 -0.5747544279761779
Ni 4.610619989944335 2.418214480772372 3.5066873592426187 0.7753333846769421 -1.1858280020983643 0.8711964518248545
Ni 7.599031045625229 8.710713751667594 1.179794492450451 -0.7124493435582117 1.6154657681071405 -0.9384410839051257
Ni 3.7165931138100494 7.418459156365034 9.868828966906412 -0.11071041657338998 -1.1226817084571827 0.1485125750228281
Ni 6.121292476822163 3.9511887482478003 4.725500327199708 0.2182807448559015 1.3238638459595846 -0.9785616060750955
Ni 7.085291304349744 0.1870044242485358 7.789069944343715 -0.2292074190707343 -0.03494797683009465 -0.4251632751771904
Ni 2.3033543427419128 2.751171159072658 4.173023981419785 -0.18436943682043733 2.0268013933726188 1.3464962386471198
Ni 4.218507127045308 3.221124489615349 5.872393954852529 0.09999277304556972 -1.394215913320586 0.26516506811226587
Ni 2.565769818764979 8.575342218884135 11.926927075189218 0.5750477908468806 1.5799506059196662 0.12404004380276056
Ni 3.8025591787484343 5.506969776943666 5.731483243709854 -2.9417541643478176 1.3092710357470743 -1.807673212914758
Ni 5.062219570213413 5.638026020768348 0.17839220926271881 -0.7226514809021941 -0.6966293458068196 -0.3054966778517771
Ni 4.230167588699879 2.6739366681763967 12.230800542200512 0.17583594542812944 1.0534627262593599 1.8236988989190526
Ni 0.4120191990512122 5.4206639977681 6.990812184256936 -0.3137046675838662 0.9152703022156173 -2.504507218533216
Ni 5.184590147325321 7.389133554377081 7.004626617804548 0.9536036505781772 -0.08738356892199145 -0.17524999101767239
Ni 8.561175217047124 6.965812888986805 4.835396964780985 1.8742984662434752 0.6735380112049949 -0.14225193882509693
Ni 4.962343584482372 0.7565390154678499 0.5549314697534911 -0.34359759848855664 -0.704828079567528 -0.3914705109104355
Ni 7.390382233735366 6.378961134990573 1.1755214382346737 0.05524220830275648 0.029887017367419496 -0.46800505293306494
Ni 8.481204649321679 7.015778426249936 10.49791638205004 1.297700300190339 1.1071471031566933 -0.24564679557368016
Ni 0.17106080876573065 6.107382556029505 2.4557143418241547 0.56281396778485 -0.2274721815471824 0.13274502777592626
P 8.47123357738714 2.8894440350709565 11.514031046147446 0.7326857252097445 -1.9801199301556802 0.6789357851817984
P 5.516995937673422 5.92361551664664 10.291172724328149 0.6491791227446562 -0.35362567214852003 -0.3405778378256264
P 2.6287914004948805 3.918300737502388 9.61381650681412 -0.4927640050452997 -1.6322910671945954 -0.06860500276290767
P 2.932312299216777 8.93378664643882 8.691821967494015 -0.02952834847642011 2.404632459122749 -1.2437256457460968
P 0.7182844379215741 3.165668435762113 2.873381060531845 0.08937488832040737 0.009443661911403091 -1.9481397777046576
P 4.566484683508491 0.4682538412102016 11.756008579144469 -0.0948222845882238 -0.6095021158700084 -0.39928743585169296
P 6.2068453757964095 1.8317208039450597 2.123527070363753 1.4785720082701632 -0.5345367181067117 0.31661772746560307
P 0.053059691261232965 8.626464620846852 2.5000461316296123 -0.30034598688877306 0.24241980399595026 2.759122279043777
Ni 0.17640350375533292 0.9069837607696642 8.230548794784577 0.15365889511045794 0.20438881736515765 -2.5592781436265084
Ni 7.272143316264843 1.9491701153507859 0.06051963228039749 -1.275853893739209 0.011374817495844926 0.612290477248423
Ni 1.4633328488534432 5.836566038735626 8.899398384170292 0.5427040844088524 -0.5366753617162693 1.625876421917503
Ni 6.243093803050146 1.7386207400258862 11.308697661583148 0.40189067780249493 -0.005085899163339628 1.0549755633594606
Ni 0.27927172921332355 7.804328622472637 7.469285915126746 1.073681624409396 0.7127522195106113 -0.06441024795526973
Ni 3.8006586153133974 5.112616636372422 11.167478453187249 -0.746482778993837 -0.253270373557209 0.28521298790207655
Ni 3.421785426198537 2.0096851568982483 8.00372894379191 0.02481011706514437 -0.12346771623905832 1.1282795142599342
Ni 7.546522242316182 0.2680023980048035 3.7187525945826123 -0.10851700846649699 -0.18353279985175489 -0.31289245609521593
Ni 1.0649123189019043 8.862712919141156 10.001663660670063 1.008209253738199 -0.4546911094329782 0.36484905166816517
Ni 8.897428041594647 0.6465863709447671 12.249358121016433 1.0377689696731869 0.5837730865350204 -0.7754128317646258
Ni 6.533301576260918 4.394387287246066 9.000882044575127 0.6598232327220637 0.5569953042205439 -1.143487332348624
Ni 8.59360415449905 4.7102297131651545 10.570561976304605 0.041182901996212946 0.029504180106704022 0.021021082336357345
Ni 8.98023568227384 5.573673126487333 12.81071753502533 0.8461191971412525 0.5764660113506459 0.08675776241253445
Ni 5.16336259823448 0.47995194687483855 9.45038365989297 -0.5592923277848367 0.2539733131615045 -0.28771210017484644
Ni 1.8128712545144814 0.8474346094316983 6.4609920236571865 0.5425176794296592 -0.3407038218805294 -0.27968228789183447
Ni 2.292492668618009 3.9439629346083143 7.135647053912339 0.39324817163614856 0.5104202846744822 0.3347375769947654
Ni 3.421262082643962 7.727167583303335 1.1606676627506067 1.3043057213219986 1.0582249235346937 0.3811349333123823
Ni 6.8931874939571545 6.309503345685982 12.15300781817937 0.624733330997466 -3.1887109369821727 -0.15971847104097656
Ni 7.0456090088607235 8.525541948006659 11.740917921840962 -1.2989591122981048 2.412261693533233 -1.2657589713970523
Ni 3.855554599748579 4.609270314461483 3.2123277271655497 0.9467825138912855 -0.947329644644007 1.5891883224678502
Ni 4.875523643218101 0.6894785069018489 6.682907135582239 -2.4028851374143394 -1.5566340426809127 0.5080468993462993
Ni 7.51324861000424 6.817293497077875 6.83978257957922 -1.4934270710051247 -0.5695654275760708 0.8398485336411923
Ni 2.3942875807158273 6.472437639010405 12.748781202561231 -0.3166740346248353 -1.7060801852616039 0.15832287624503055
Ni 5.925681346467331 5.071502032207722 2.3714854102283254 0.8685852394542526 -0.25509200014698 1.0282111507814227
P 8.135476551996584 0.05485374969218035 9.785728437465975 -1.3980046909390569 -1.2978419679745261 0.5237753658251496
P 0.6635169940085693 2.85884220932711 6.515361910098031 -1.55139824820327 -1.7293509828640863 -0.35702852718248185
P 3.108926976687114 4.441616747680014 13.321737726110198 1.7521348135278212 -0.45454712765594624 0.16339129190687346
P 8.612830144030285 7.760184134570922 12.860142283948733 0.1457884912234457 -1.3765174675995582 0.2547035064593097
P 1.4860294324834429 7.348184216598037 5.623912271433381 0.3103228955958268 -0.4393719625774046 0.41743608173626173
P 5.473760414892812 5.117088010250986 6.607586980319819 3.5356373427336463 -0.5553271724895016 1.6429878847868091
P 6.611830653844812 3.9507572193519223 12.754345170878295 -0.42992290134936284 0.883186277196879 0.6635834710954442
P 6.226126454122865 8.650547605823181 5.176170743122769 -0.4297146419932987 -0.3349638340729586 1.6364778515824332
Ni 7.909630854532696 2.74366990145708 3.5032066655314 -1.2778071608108381 0.010511698164601251 -0.024867452665641047
Ni 9.14080115740387 3.568303258547863 8.439791647516213 0.11321287128026954 0.5394490678066645 -0.5449751398312161
Ni 2.672017741809621 0.9722254209468695 2.7223248296031057 1.08199554359173 -1.2584107585620972 -0.16179772216750846
Ni 1.892024671777518 1.888122548782878 12.435810739166199 -0.2919685614583552 -2.390655685227683 -0.2476815666155218
Ni 8.62117609650588 0.6931143673862664 5.9956606430333235 -0.1324663201932428 0.14707147170092735 -0.5480226684082885
Ni 7.563838486946512 4.0888097401693475 6.588464741352909 -0.36020461091761835 -0.19680432014968044 0.49405032795689113
Ni 0.2857327267458603 2.1898714245919146 0.6171441643402689 0.7998334267008353 -0.19061798883331044 1.5015440436853043
Ni 0.8245791864421522 2.0844314705438096 9.93099391787067 1.3703452773505753 1.7296626005672338 3.123728104352885
Ni 5.379127046173393 9.050253540996485 2.831427270386651 -0.9344659013074617 -0.4343626822882713 -0.09486830733481082
Ni 1.9309632685310893 5.5036460862988195 4.06556043229399 -0.2672270928476172 1.0502943558337072 1.3051451865041588
Ni 6.358348744113004 7.559752734634477 9.17890883149623 0.5918705188311743 -0.47246591691789597 0.28566961582352096
Ni 6.466570682319641 6.952407948816983 3.7854586985660412 -1.6639894267391409 0.917853232451445 -0.2668496549035404
Ni 3.935148727373363 5.201190237617813 8.392839467351532 1.6084132321357332 -0.2047667695298667 0.4476812537740483
Ni 8.014602553821444 4.064414585353446 1.131418266929373 -0.6652495459439575 -0.009658091915054335 0.5569073724924279
Ni 4.899606628194432 3.22603657385566 10.0221162940415 -1.1703612739213327 -0.4119568037892454 -0.8983437016636078
Ni 0.9673316996382976 7.703552853086361 0.9355013937610795 0.27002342464583173 -0.4472570217524362 -1.6076493573865152
Ni 2.5507213962044735 5.714865708632209 1.821346665658839 0.20411345221658395 1.2221810868061016 -1.0629017601850728
Ni 4.835997432648866 3.2938141549060878 1.3755277363013496 1.457105096645639 0.9719101621968488 -1.8972198509263392
Ni 5.034987342443762 7.382054644191511 11.87166934099877 -2.8567984881410284 1.702389109563262 0.5964892485501082
Ni 3.913030576093157 8.054973459250695 4.955586025602242 0.47438730231032494 0.004176242864876679 0.3209451511963634
Ni 7.603851315206843 2.0935486661524623 9.512776311210793 -0.40147518753163114 0.6751462362323791 -0.2966266290556569
Ni 1.2337319318488311 4.390209720275333 0.8099595383377636 -2.0436174364886934 -1.8901742569334674 0.3560057423449223
Ni 2.9474433549701105 7.081967613704898 7.39900454833364 -1.7225776686959946 1.565716464598155 -0.6131942200096149
Ni 6.461603509284111 1.7627863581950445 5.767402974485455 1.9765630660423574 1.4169136120284178 -0.9679385791436105
P 5.595671918711233 7.63800636824228 0.9748035765630927 0.22079039865163266 0.42533888152310617 -0.32457040665377646
P 1.602698319290241 6.861300262991544 10.740028882595348 0.3972428946178384 -0.15557642384814496 1.3198526679176623
P 3.393093345355597 1.020685197807362 4.89371763598558 0.28657181592281616 0.14441372236310612 0.027495634317107488
P 7.82655695134328 5.314296715667151 3.6383661064532693 -1.503570844307346 -1.7132880158639525 -0.09829507362817265
P 2.2698695367149675 0.2466380450725033 0.5788363342919486 -0.019484591087172893 2.0317011446670814 -0.458405839280404
P 8.300660304459093 5.718538294980107 8.689228203385813 -0.26918807322872995 0.47974316730559957 -1.1478648925910295
P 3.8200682341620302 6.783928050107237 3.175897506887592 1.015063043435239 0.1032058806662287 0.820459073370987
P 5.864174706605937 2.2829072182499996 8.06751901421511 -0.3809305306110601 -0.2598374852517654 -0.3979077818953469
