# total energy = -340861.84387594793 ev
CRYSTAL
PRIMVEC
9.35232446769627 0.00000000000000 0.00000000000000
0.00000000000000 9.35232446769627 0.00000000000000
0.00000000000000 0.00000000000000 13.68807220591775
PRIMCOORD
 96 1
Ni 1.6151090301363185 2.1774175401014952 3.6806680931743876 -0.6022701168979434 -0.2755476968981706 0.2524620187233007
Ni 2.552745026536796 9.200152818287455 4.312645809195857 -0.6009030613470877 -1.247947140026612 2.44452775265579
Ni 2.864158727406991 1.3453225255714045 9.558326271143079 -2.9675968364425342 -0.7181744189674469 1.4705468239728416
Ni 3.051392263698098 0.6135816937495107 2.4078691030936437 0.5169552575795227 2.048243108186163 -2.2923017333371165
Ni 2.0352528555280127 1.4368537253556737 12.3489822746853 -1.8524811132580676 -1.4128145022583796 -0.41467086028629874
Ni 2.7579256735243387 7.767348649435981 1.8649863063267815 0.6558722184941156 -1.8241943504982325 0.7484720415097239
Ni 1.2215445109453904 2.445791843668409 6.092588623237128 -0.5282976791755354 -0.8570299305164853 0.03748128477490965
Ni 5.963715462228926 0.0014084600682038354 9.960221840989757 -2.4543367683264115 0.22197336321614028 -1.0925782042035828
Ni 4.454484097644636 3.139696911533295 1.698648668643827 -0.8654250965587159 0.5691332251346585 1.8509397369128768
Ni 4.934454742799279 5.059785243290643 5.646357423912845 -0.0018059428604872126 0.8225537511164865 0.04369384134352475
Ni 8.073141603287645 0.2517084613256177 9.526131829318478 0.0013966232372104978 1.520410284462188 0.020671412306422464
Ni 8.334548425109462 5.0843444474015556 10.702566338318487 -0.10010101648865986 0.004657553376669398 0.1793735262677427
Ni 2.80536066333795 6.258323035990473 7.203800021243421 1.573110185959065 1.9788752591153018 1.003168091769866
Ni 5.188968901471915 0.8797507192016675 1.2961779308410093 -2.2109769690146956 -2.697328899886064 -0.6217747625897744
Ni 3.2420768077260402 6.930025685515943 5.024097708269004 -1.821119825337967 -0.317221422487873 -1.5091493668363882
Ni 6.392631767992301 5.8446136098479435 8.279408055148485 1.1993350354458636 -1.7380312842469035 -1.0699614952453316
Ni 3.0754370899620564 4.907940902869943 9.589014988724779 0.20749111043956525 -0.4725075687891089 1.194673368304136
Ni 5.434121383329997 7.3625145792345235 3.6425601765747184 -0.554531930281716 -1.5894716580362238 4.760497004813176
Ni 1.421562674814417 3.8434406247617297 2.031761632795871 0.9906787010536036 2.108926799219465 1.007363360798136
Ni 5.074945361289039 7.624183266142061 13.175905453772383 0.17388962033503602 1.1789348745229569 1.1461119144556648
Ni 5.69084269058229 3.4841523748268903 7.459712352427323 -0.7785246379207302 1.8370187559564104 -2.6724642754339007
Ni 8.419252428015984 4.301639058503499 1.811657481619531 -0.3852386710681107 -0.3612024560545134 0.16652572377079708
Ni 6.554539209564311 8.900700740440055 7.755292567935838 -0.3222026777525483 0.2984950497229633 -1.3692972957020355
Ni 6.623465841056092 2.3492945595799157 11.071706326871162 0.2362954362657672 -0.5852694685748888 0.26387668831814554
P 4.163523930434215 1.392654639815625 8.037375508740288 2.12027899100749 0.17808411803235782 -1.896486058084108
P 6.927098407950552 6.334011398088571 5.2582181881586045 -0.3391647595281836 -0.5626051942081537 -0.8162977429044458
P 8.392738588086647 6.119684177749744 12.787999090897944 -0.8243581513150772 -0.6548779729016464 0.45764119320023766
P 4.3163315602773915 5.05798959698855 7.914935811748803 1.1310113113688005 -0.43272951756022254 -0.33122827828992635
P 6.9939955850279905 3.904127858377763 9.260665163435526 0.8475173630403599 1.9867675173791848 1.2431623170434591
P 8.730366854502495 2.289261988678186 13.162586808466083 -1.0104509985845243 -0.07361479727267321 -0.48244102585273696
P 0.8836618613034127 4.709624862058107 9.771120645497984 0.608785806529274 -0.9036975097763532 -1.3197066292581014
P 7.206658091607585 7.527162251882124 9.19854889463741 0.6912462271180353 0.2835093749474085 1.3713909450062705
Ni 6.2730155377643655 4.645346335837889 3.3689354780390817 0.4640815495089427 0.6453880311333402 0.7380040520988644
Ni 3.624904858402373 6.1906122066824 11.61595830394337 0.5828657442294026 0.08939571425601378 0.7974096477506912
Ni 6.707777046334031 2.060101981698116 8.638432569532704 1.9771816734629624 -5.516279463941383 -0.7654678047367721
Ni 9.187461713954438 5.024723378777389 3.8337693860065527 -0.4029689984683383 -1.3834923562554948 1.2436611110567484
Ni 3.633209722549551 2.7790712791963768 6.37156472184598 -0.44323633062881734 0.13831223745105858 0.18613681313350522
Ni 7.003909048987459 0.6897049389363974 0.06299351683528388 1.522356095334649 0.03725477058640036 -0.44061817627967986
Ni 9.398618496291132 6.539285568321015 9.138184316216284 -1.0637234847554196 1.5791733614340095 -0.8379474599637374
Ni 7.89473666131516 6.997904856664837 3.017357284413853 -0.23131880898678228 -1.0991717982607005 1.2751728085117846
Ni 8.139187718836487 8.058944774711728 5.576575054730223 2.4390322767588577 -2.4102030112319914 0.44579046450923876
Ni 9.192680311019894 9.038432423205247 0.7199681257537996 1.4078368465381301 1.4958153687316433 0.1224169063770408
Ni 7.097292009020761 9.061139867067125 2.5988445044132265 -0.10161951001571533 0.9033033596617283 -0.9142017517417869
Ni 5.942710141424239 4.809872428267118 10.957999830488498 -0.8860106340195515 -0.45240694138449183 -0.9647858924472416
Ni 0.7848863509691391 6.970502545908945 4.1254478117378115 0.5263845213132226 1.2778326147321346 0.27025893769540554
Ni 5.486905902751926 2.577051717886476 13.377065536461648 -0.18929978424251914 0.6153122947938822 -1.0352585445465072
Ni 3.655645949001218 5.2652464600128885 3.518450154429307 -1.4191322169462914 -0.5104264553220693 1.837783144926261
Ni 8.946891871096486 0.7042506092157959 7.219212652003049 -0.48847360520006206 -0.19431137852449762 0.7279314983542109
Ni 1.20006222159171 6.292141041346548 12.876356111750287 1.6512460110305431 1.678357779645671 -0.4424053500870897
Ni 7.389439921441421 4.324019171008225 5.954394000409678 -0.2369616090948564 -0.0921064283189575 -0.7846281797153067
Ni 0.2331487733750831 6.856002037177076 1.404970715936592 0.7661632881418999 -1.162503468439811 0.4541496351072114
Ni 4.6683998157059 8.002297745275401 6.198903977575291 1.3884152474784088 0.43454214528892904 1.2478962321840186
Ni 8.78122479507947 0.4057917482292397 4.019926469748854 1.6021788211902472 -0.9432583027881111 0.5731408036321549
Ni 6.572411501664826 9.383561253862126 5.490149288885081 -3.153384750877053 1.82758820667113 -2.231450663488015
Ni 1.742338052499167 4.294166551235937 7.585053140475628 -0.8840555671757097 -1.093742656825329 0.47105978059898873
Ni 4.1296311064822175 1.4524627549295928 11.53989397840077 1.6613478753512354 1.2800849011014213 0.40666727325553187
P 7.404319469705116 1.8084402819949488 6.238297838792344 -0.8275907993197618 1.7579164532066045 0.6794266087752879
P 2.6883911409407037 7.93910408869603 8.929071952013118 -1.175750306147388 0.3157929175714626 -0.48540679334928016
P 6.410242195007094 4.198426805431138 1.2594214251301548 -1.8448860745196294 0.03648986739591781 -1.416375994357393
P 1.366860928872025 5.603576150765491 5.733467779910661 -0.887910936366058 -1.1249051984710625 -0.33722331953109663
P 6.005305249236246 0.3111200378812066 11.907965931496678 -0.24562057032143503 -0.08435480939799665 2.4614402121404124
P 3.376843803627881 3.3255088945019122 4.243192641835285 0.3481993589266261 -0.897812511750486 -0.05717362099751444
P 8.760041780109473 2.0044556509822273 2.5258739278119404 1.915213459290282 0.28253004175327473 -1.2167799703951883
P 5.383553364812214 0.7798987563185872 3.415434300171237 -1.4827978734260527 -0.03130780897434608 2.3733621882545575
Ni 8.939830866106488 5.397703431765683 7.276387152540614 0.2932883087110433 -0.39157309792657075 -1.1587190616967142
Ni 4.698523652888401 2.895105569144617 9.534700429016276 -0.6316161741602284 0.9618530350711629 1.341980095944321
Ni 4.991606797758068 5.2279961515689575 13.082745079061946 2.3583070936936483 0.07163556205911534 2.281197910114471
Ni 1.705994919530773 3.47272383430003 11.371968316019402 0.617613175012917 1.5977331267140675 -0.34151989002392147
Ni 8.500103273232597 2.6465581934966416 4.538471712495219 -0.14897434515059507 1.3658548456793895 0.6602011848867727
Ni 4.598407019222251 5.6435760426095 1.7239167789510854 1.0313512390723012 1.4574156859075222 -2.8058448799112967
Ni 2.7159150319149656 8.586135306216708 -0.34785222754838707 -0.27884230848904235 0.19572342838067583 -0.7705277357581827
Ni 8.525130093568013 0.4883858667308025 11.866463121107117 0.4062700378171132 2.0439997595287767 0.3804937001839576
Ni 8.51764823397596 7.692371063999127 11.124720913475546 -0.8900439235486608 -2.2045507537733773 -0.41191643746961315
Ni 3.742500986540455 8.70102861257716 10.709684392487876 -0.8149463710828739 -1.2510406913502712 0.7204321046533722
Ni 2.6825085288364527 -0.011829755247483609 7.133101124260772 0.3893128411374844 -0.04292302461577124 0.17880017026277592
Ni 5.646896117803473 2.7958025877091033 4.908529164080368 -0.057401420737604375 -1.2291973702229346 -0.5941366891575316
Ni 1.0331793433909848 2.0809109036885114 0.7411642339780837 0.08656287279290899 -1.349549937871779 1.0455015624307542
Ni 2.924425106420972 3.8669430162052634 13.594774557336082 -1.059890998383207 0.09286747485469812 0.6796574938391715
Ni 0.6918279165956421 8.909538687083167 9.378779410350356 3.60728164654351 -0.3514150376504464 -0.16469638387154215
Ni 6.655001879236593 2.1585539016050337 2.401134494228348 1.2941115543978163 2.2051953293359117 0.3510388852579503
Ni 7.47364825114997 7.587316403002223 0.4929208088760351 -1.4862614064946211 -0.8676876673406476 -0.3418469343460371
Ni 5.657323959609895 7.099920012202469 10.914773386695416 1.5210168076979353 0.5444002411643527 0.33397601623839257
Ni 1.8174933321013318 6.725050789667182 10.626091445730774 -1.4964835984432614 1.6716466861740826 -1.077528766069628
Ni 0.35444374584898514 4.33182836195743 13.502366109514645 -0.2879954357432201 -1.0566781478728642 -0.18717451036940025
Ni 0.910915470099912 7.468859861011056 6.747987365479067 -0.7892209412923117 1.191057883038736 0.7851038338001446
Ni 7.356781604322114 3.9994561019049986 12.672075158378687 0.33142548190239696 0.5588382709665537 1.46905198459487
Ni 9.205418176975362 2.649981144260005 8.64754921544562 0.3401410073985239 0.726208087905201 0.6377212586167018
Ni 4.713637009264346 7.319082384302661 8.833926078813437 -0.6172817598154272 -0.04338736584669947 -0.9823043609469793
P 0.9060803183385482 8.43597438420422 12.051280016749988 1.6800986735961776 0.37444260889387126 0.9146347255141474
P 2.1482008783945314 5.777398453737844 1.1359305268659854 0.7461716755113214 -1.1863424798409377 0.14531669379334974
P 3.332766298306203 1.5283007542195324 0.3112350714724344 0.32385615419557123 0.07868449848609674 0.7044622115876771
P 4.03844594270408 3.970650942475598 11.791042235489433 -0.40924377573345644 -1.572877758233285 -2.5557701304732503
P 5.419952611727548 7.903247276601119 1.8212660598006243 -0.5408683167516943 0.14322458715101138 -5.604996406962818
P 0.9730064876219047 9.450523897210994 5.783238045149441 0.010957270342452098 0.68189435358949 -1.1641309767409047
P 0.7087939684530695 1.7126537745676997 10.561456595947485 -0.7440392025493507 -0.9824964223531274 -1.3779953376966656
P 0.9060934115928344 8.60353062976823 2.763348151263679 0.193506366124699 0.854919569041702 -1.2466680162038724
