# total energy = -340892.65397648636 ev
CRYSTAL
PRIMVEC
9.06492192550163 0.00000000000000 0.00000000000000
0.00000000000000 9.06492192550163 0.00000000000000
0.00000000000000 0.00000000000000 13.26742953432430
PRIMCOORD
 96 1
Ni 6.256872045814141 1.9583948133876337 11.632165923439612 0.8132982939564896 1.1055792444489412 -0.7600083242840976
Ni 4.4507407272282915 -0.00139509149550482 6.07812810087156 1.1615017666481737 1.7938885004258396 -0.9291892262895545
Ni 2.750324528984073 1.5370481739947839 4.893983685707508 -0.25209563652281747 0.21777269487123138 0.047277702040041156
Ni 3.6819990821029456 4.517213800240226 5.028701117489804 -0.2546443710866002 -1.052287475004336 -1.02975741222262
Ni 5.184981279228937 4.624234269349583 2.637737291275695 -0.3039514448518443 0.38243591151199297 0.3366931580592395
Ni 7.456904549764233 6.10436379811841 2.5140981006672556 -0.1530775686856912 -0.0580159143931517 -0.6751063841333792
Ni 5.142729677795877 4.508756228016017 11.636464509451102 -0.003711644523632318 -0.24609365330311167 -0.8234739489379108
Ni 5.627204433983369 7.84219999437071 12.505919250959538 -0.9057654480489755 1.1965433316333391 -0.3478545739926977
Ni 1.8120688424945939 6.719445950454268 0.4458019859592751 0.6597034193147477 -0.4655308803609596 -0.906885677696348
Ni 2.488656490587438 1.5077050214869927 0.23910726052780856 1.31506913048609 -0.6707676475487093 0.6141452710689745
Ni 0.5607841760595467 -0.20910690117515618 4.525015978603975 -0.03930445402657747 1.14547865174704 0.5920643800095352
Ni 8.463092761707339 2.224323365123367 1.4106459951613288 0.42439734354544323 1.1562420609111312 -0.5295287233691591
Ni 7.065889139376965 0.6876305360709078 4.825895243595514 0.2863766691928746 -0.10292897285575821 0.5864426629473836
Ni 0.7151162860612923 7.368059249261032 2.5076239333762254 -0.4749935684357562 -0.14742139884117836 0.34319727772634445
Ni 7.753481602775482 3.892259947848457 3.8032813929918836 -0.4283622417304623 -0.37789560043947823 -1.080675539228726
Ni 7.8899086788466155 3.8862408396417307 12.856670090815726 -1.0699398979787766 -0.6490024879574758 -0.8362438470090694
Ni 7.798171668226026 8.817349913392384 7.314692240473923 0.48502035654413883 -0.3117038351037535 -0.9769500386136012
Ni 6.857513777407054 0.7781455952061562 0.4020718957483277 -0.43576573328338497 -0.9476425478987356 0.021600866099227314
Ni 1.8948497101810786 6.521350210030182 9.094637718883913 -0.06830006992797914 -0.29041561514893854 0.5023110253037865
Ni 9.562948812656627 4.838030454674347 1.3093228295277672 -0.443389825487546 -1.03256865641917 1.4185429201017246
Ni 6.360058052918309 1.959446344339411 6.926076314939548 0.9059605947789171 -0.5777168530386115 1.0581992125030806
Ni 3.5316301559987613 4.2351859470359 0.32870857552565025 -0.41267491290219244 0.8296160572799066 -0.2670851679531142
Ni 6.245042322606644 5.6809684863539935 4.728525290445316 -1.416004212840271 0.352981867916934 -0.30587591556806676
Ni 5.225900337128279 2.9332999795153585 9.327587177898424 1.2512237538953548 -1.3550186742958341 0.21212012457114435
P 0.22059759629992493 5.474523952769674 12.589304748943295 0.6826929382313855 1.2825451897164557 -1.164123520541737
P 4.044632221714218 6.188876065906529 12.724566076045477 -1.3664405429795305 0.2881404459615167 -0.6827649291199015
P 2.330781809068842 8.511127783375175 1.653148068977419 1.0398847304646093 -0.036623050539672415 -2.0510348119986874
P 6.520634081192334 7.824867863510378 5.794590031662354 -1.0207564942755905 0.2757058197425897 0.31319893159204126
P 4.616048644785315 0.9569384907275265 12.682707892227132 -0.2432458994416714 0.9475052509899229 0.7132944651673263
P 3.9452988064592347 6.2711946225711115 8.269297420279143 0.43515946715795384 -0.14130782974427275 -0.14370538344217185
P 4.655879912044887 0.9772983055352187 3.934536024570912 0.25364112663306637 -1.0728987234967846 0.48479101414215214
P 0.47262509015159976 5.560695101283442 3.5706238244657102 -0.5027913073743147 -1.1810364942469918 -0.27142441875841644
Ni 1.647486118697417 1.1663925784152092 2.6840934893894866 -0.2974889770559522 1.056110448294852 -0.3516292105437815
Ni 2.0187581289728618 6.387706065012459 4.859700150710761 -0.12328979590029736 0.12080405336396614 -0.15401627844987667
Ni 5.892262753207287 5.597788762099594 9.28380451113989 0.42579705210644725 -0.05199284812752336 -0.3905361720216242
Ni 8.733562839364112 2.254808697802917 10.144794428486517 0.2429139700235494 1.5681844665226734 1.0093909327511261
Ni 2.402041160895765 5.072666895672701 7.028063032863369 -0.2467919649217169 0.8011832558605105 0.19363286440023425
Ni 0.655406551352126 9.25501341238178 9.169319985257312 0.23758998670747467 -1.1618802330335152 0.0424892795124623
Ni 1.2678290555737468 0.7196931651781239 11.465752085398822 0.3887716239220337 1.2461350265185378 0.3946944171643719
Ni 3.9772798512684684 6.907706250510435 1.8028842635261373 0.959662198067431 1.2881671638889234 -1.4901031488382144
Ni 5.5843273529324415 7.916450770457001 8.071014942461897 -0.2369577524401145 0.15231446526742157 0.4064021925196033
Ni 5.44547994268782 2.6638723678883656 4.987664215604486 -0.8818230783007652 0.9514590934313486 -1.4355821349721984
Ni 0.7982561246589012 7.463938929234744 6.866319442635992 -0.8668183773618169 0.02504203057029236 0.13718763692831212
Ni 5.049759837783547 4.721437427935015 6.986296404757207 0.8982519132807498 -0.001714668698261563 0.6698168535996658
Ni 8.188561598995426 7.301558981483102 9.254204821339552 -0.5481111143570367 0.11025327443131334 0.24112448222329438
Ni 4.436200592343368 0.4840369204549852 10.618441135347298 0.10645498373114569 -0.22376825033303396 -1.5296516005547978
Ni 8.17894371675546 7.038522139864756 4.610272476488137 0.5961750597437991 0.40246660491062297 0.390917723730759
Ni 7.195281835977588 6.129428307443107 6.9241255437255615 0.4857934872647375 -0.5416111084549898 1.047176893250648
Ni 2.5811005651238785 5.1449324538414105 2.5488321622873062 -0.5753668647491962 -0.23917352914451068 0.7419563518783931
Ni 2.382089267577986 5.189731298355932 11.397213116663522 0.07939335162766327 0.6818773843086255 -0.057409648267720485
Ni 1.108893778181375 3.318405060759876 3.729063250624787 0.23066626300444792 0.5987608181931043 -0.25441965667030375
Ni 4.09443490317168 2.605820607412648 2.7167054527697867 -1.6624670765573433 1.201353865648105 0.9816962950493351
Ni 0.7569010440114513 3.5709719174704366 7.975781591426647 0.12176667438755158 -0.651836100751529 0.1135543137800883
Ni 3.7297712210328373 2.835407886858071 6.806297874610091 -0.3172646170209827 -1.0142482608434276 0.6882002412028598
Ni 4.0520654577526445 6.810203949499065 6.073537624371733 0.5490752780425189 -0.3388937652549841 -0.06610331938697647
Ni 0.6102070372852896 7.125336897840388 11.222679827989053 0.30019943400857974 0.1869829631838844 0.44490600502175637
P 0.03348944782971414 5.813570165341937 8.022137789540439 0.4461234223686252 -1.9155615866583204 -0.2017480373082009
P 8.536609279111783 1.622621037656678 8.108973396836666 -0.6654842876625829 1.141567489618092 -2.1232324172088597
P 1.7535638359189727 3.266780329980799 10.160290912642237 -0.05383710042511373 1.084922744540854 1.2027792852407222
P 4.180841739657398 6.1720515706780885 3.788434863743425 -0.14439855285445455 0.7158164602582318 0.9336590891354501
P 7.0042748645560025 3.966601373154728 10.511545762161518 -0.5172951574174446 0.09745278023253538 -0.12864360401304295
P 6.364418280399386 7.903206919417802 10.369013461124675 0.2743536765900695 0.5889656864795534 -1.142459405304742
P 2.350362040584699 8.48719638930024 5.86181549320013 -0.0037391553274580764 -0.02246424254078712 0.07268457214891998
P 6.9281385846941115 4.114278017425481 1.6321328603092655 1.594062619841016 -0.9014418809729573 -0.36105873138779754
Ni 5.328968500246472 2.865213350387765 0.7212623031759919 0.7847878452216226 -0.6677226900747985 -0.9436948761048973
Ni 1.2944255367161195 1.0124611379657786 6.9696196677573345 -0.027233638904972456 0.8965483003260817 -0.39973069403669864
Ni 6.889367913308315 0.8785903698981037 9.30658466012107 -1.5356903505497101 -0.6499309133090161 0.37678179855000915
Ni 2.8018314157771753 1.9238665254969394 8.986109753246277 0.25217894026524307 -1.6011964026723198 -0.2551552492847477
Ni 6.324215351337893 1.6681178811650517 2.702880540230512 1.5663872654129347 0.802455951925347 0.14243911513523855
Ni 4.368086768449779 7.022803565120083 10.473123183780448 -1.2768689652672849 -0.3985554427816749 -0.08164872332074326
Ni 7.978128499731949 7.350255742456798 0.07288287935677909 0.8181342818925522 -0.4973223138399435 0.5902152426159384
Ni 7.329623979989163 3.7331252421721275 8.252075881467187 0.7290602126420154 0.5506567635970259 -0.090305884775109
Ni 3.0176672085515075 8.32853305956781 12.293016866943786 0.6132716102147696 -0.5063144900362249 1.0565048555197933
Ni 0.11921006972017696 4.831431191459743 10.100003742401794 -0.4689661312947536 0.18311705247057494 0.5473135581564058
Ni 8.677242478990028 2.548983546484674 5.67791632711724 -0.23274628546192822 -1.0203078367739462 0.6118657310061785
Ni 3.5992997987144433 2.7869377489343266 11.4559347748749 -0.5517188863129531 -0.8174043457050633 -0.162652613968636
Ni 1.3681958719365108 3.325765777422319 12.556971985160537 -1.3329786637766592 0.16120791110230945 -0.2223765121918299
Ni 3.0412903952785095 8.479318972083906 8.141146617992257 0.589362921917972 0.4466379001111986 -0.12256834435324054
Ni 5.607977734425438 8.055298180701623 3.690800214870883 -0.9267446214038039 -0.5906533585946214 -0.07836233925998763
Ni 2.8574356473134106 8.352944894508644 3.7359353679915333 2.0273485241253404 -0.31415152531329765 -0.05422250878899048
Ni 3.5274149672696526 4.2908536330261215 9.166043015955005 -1.2926370267348188 1.273266335517691 0.3073334739501997
Ni 6.97819508396752 6.143288573178174 11.484777543688397 1.6818735061084131 -1.209862674450065 -0.9391867038218986
Ni 0.5359091236046098 9.050572226559037 0.5920654088905279 -0.7098473871589903 0.44991811352436706 -0.6351313864023385
Ni 4.487598700072493 0.5781625380220696 1.6832916540976413 -0.47568133853140016 -2.283158633385268 -1.1571776853515232
Ni 5.977636188585224 5.613344168248302 0.30548243238216455 0.046831872751874185 0.3933962671782386 1.6039089165074765
Ni 8.089482001556389 8.965788011110977 11.460683887509694 -1.097729409387219 -0.5466504706511102 -0.546314170357614
Ni 9.201077126493193 4.937291350553345 5.70971788647091 -0.22146608456241862 0.2979872568486094 0.5815861061860307
Ni 7.740455309864237 8.648479481490114 2.696154368107935 0.49053845814889074 0.4430265286108564 -1.0501902261556753
P 8.643974215257067 1.613855258084533 3.416191093829786 -0.5297171852308813 -0.7236876354761923 1.8779435191952303
P 2.2853302901704593 3.1425546389190835 1.7313991951414625 -1.4640645586826075 -0.13158777424303142 -0.5309415445562856
P 4.6863652447244375 1.1289181908751382 7.9832646845360635 -0.043137454619422484 -0.15709671714741333 1.344485378864678
P 8.549771545852998 1.7860343865161026 12.341973791178827 -0.040299470949995114 -0.2701267829929154 1.5730801040520779
P 6.188078352770697 7.791717443763392 1.289143406667837 0.6822823330565282 -0.12438894250174706 1.9883081223934276
P 1.75811442676201 3.3116879535592973 5.881238901565419 0.3169000345927123 -0.5455364116513249 0.32824528440220246
P 6.899529690868166 3.9927808678851884 5.901817180993266 0.682165862083322 0.21519670661393905 0.9622572124881169
P 2.36042410400257 8.387183104895401 10.242296729497886 0.2317723515844331 -0.270551786345476 -0.11047541774444844
