# total energy = -381165.0813004099 ev
CRYSTAL
PRIMVEC
9.31624994272020 0.00000000000000 0.00000000000000
0.00000000000000 9.31624994272020 0.00000000000000
0.00000000000000 0.00000000000000 13.63527349215473
PRIMCOORD
 96 1
Ni 6.237611308171085 7.268482313954234 1.4733053056868581 -0.690987831250326 -1.3179546795640011 -0.7013519480934696
Ni 1.298033105616351 6.3800381374157755 6.958161754599907 1.6168441365119057 -0.3261876305422253 -0.6603809049977465
Ni 1.7819191280502364 5.615127435222203 4.600637191727185 0.6160226905973455 -0.5822713051785133 0.131358946061677
Ni 9.256206719663055 7.339071539829889 5.532498819535394 -1.133691943524757 0.5200994596354591 -0.56441319395117
Ni 0.21277103774664577 4.604929188079424 8.174891946897418 0.6571631693913972 -0.42607884501292426 0.925371138095045
Ni 7.412110939442551 3.4191755268676394 9.35325223214841 0.1469082066501857 1.231753303875569 0.03388148323879326
Ni 7.6469829169469925 5.318702994294183 4.118670316783122 -0.7000998208539234 2.538737086250363 -0.48624240187669804
Ni 3.39160874326383 2.791623613945634 8.472317884695126 -0.07970882598555305 0.7040690899143165 -0.188431779815269
Ni 8.395785822975988 7.171537416968346 7.9494191339681315 0.6716235677911014 1.2283149676179814 -1.9892422041719222
Ni 3.9588752027555376 6.588694187559244 4.804334202021951 0.4221923654743245 2.0297414498375494 -2.5073524012914947
Ni 0.1929413997268051 2.246334188087379 10.931780854527256 1.4661492091257782 0.5953726184471617 -0.81180731123326
Ni 4.124108211879284 6.150485738633124 12.77355129876009 0.32167740137669765 1.6524577719504574 0.959553954624341
Ni 0.8435510312765322 2.3750474974047946 4.0850461074614355 0.31035734837818807 -1.1157777822484978 -0.12228423745391845
Ni 4.479113232496643 5.58545517912956 2.0072624451052095 0.8439959801506626 0.05711320007322422 0.7660203348061324
Ni 4.740434043610823 9.025061242138854 5.158401076269286 -0.5222720418067456 -0.45800603273882406 -0.28554131777577274
Ni 7.558385379916838 8.030756517411788 3.882849013408715 2.575177074244952 1.8710244234778939 -0.1375740737334534
Ni 4.537898769684896 2.5664219038899097 6.307554917925164 0.23540712012354295 0.27780898212852156 -0.18565653106297703
Ni 0.6110845095093344 9.019145423420225 3.518500725715904 -0.31084842908199367 1.5520181411754561 -0.3566276921996374
Ni 8.335397890796232 2.754004596645133 7.118267099750846 0.15869671464468155 0.05666222857873467 -0.5791466435066026
Ni 8.420865167842988 0.6299145139094762 7.751802840016118 -0.34047885035391684 -1.6910975958098424 0.1916374312367603
Ni 5.405306853834911 2.7676342703228527 13.417763461468745 1.3502310230992036 0.019141863035773487 -1.6421659031061462
Ni 4.999472373487107 7.369526360918383 10.770270618883766 1.7039510547337429 -1.9314762010060476 -0.0033578607286393783
Ni 2.9427704531440817 6.186763215940739 10.702271310494377 -0.2073836383274235 -0.058176608340732065 1.4134811893081012
Ni 6.61368968617669 1.5632667417097803 1.5044886575214886 1.5997226463402707 1.080307871476662 0.7693599407023266
P 9.116966047901467 4.938283243811601 5.565182087612071 1.2659669736428003 0.24807288851666953 1.074759687964923
Ni 1.4764206596703373 0.21464267236172024 11.835036005237168 0.28529397765165704 -1.006137201700519 2.237536721781095
P 5.023554879609393 4.863007944210796 10.339832854041438 0.20521054193550464 2.287176753405725 -4.080069722687515
Ni 1.472880484689111 0.4602469698092467 7.920430690621862 1.1420737398305492 0.657208677917352 -0.9154788186819975
P 1.452012084799779 6.413241252239695 9.037595324822382 -1.3929208486582463 0.30566688488105426 1.4770213759535917
P 7.505170960199041 8.551926172147954 5.891583426006119 0.3997579477302083 -0.11137401829931785 2.289677665450708
P 8.444584340217203 8.45852145014329 11.238669307399784 0.7238077059938244 0.4789170718598784 -0.2778866294439924
Ni 3.5185053838408797 7.651668990672142 2.220790893972839 -0.2756901360133059 0.8664879906055916 -0.14165878532578827
Ni 2.9771939967115286 8.067518439716835 9.439917578938813 0.031036300480514287 1.377026288915177 -1.3115613744431478
Ni 0.46712981527274605 0.8818501348234268 5.945088512722373 -0.09297057609146568 -0.1732864395333983 -1.462697760242068
Ni 7.388838947065965 6.809759482636904 12.118117712985946 -0.6349028153313001 -0.2970220647218626 0.24057169504361794
Ni 7.276196168913326 3.136473922116845 3.9151232981125594 0.6699220117189624 -2.7374082844054537 0.056684082955605605
Ni 5.883332955049872 6.531175660364273 6.1038439332554715 0.5483808230786555 0.7101677466128866 -0.11980158024138077
Ni 8.834078118151663 4.5204121685276295 11.31223228025967 0.6594234261804837 0.7285166814337195 0.788313598986694
Ni 5.413048657543855 4.485895462460676 4.330235831786161 -1.5862045572491779 0.9540607927202536 -1.0047482917727923
Ni 7.648091550691113 1.2831177894454489 9.819074045928092 0.09930834538403543 -0.7072127777496208 0.026695249902999187
Ni 4.952313516237196 3.255134997737569 2.0395367298090545 0.07856442796846469 0.8216628638711011 0.40216604295106867
Ni 6.53630891408705 1.1399270277048092 5.842046130143821 0.9040201832230946 1.1603547975279243 -0.41274613245976016
Ni 5.45026707609648 2.593979371243769 10.789728538530579 -0.014549358569084622 -1.9377430078513662 -1.6625699206837947
Ni 4.440478743951528 1.111531097855397 1.0281758146724416 -2.337016302635672 -0.9079873954009589 0.5193821218534603
Ni 1.7611811556602128 5.304626140618834 13.121482490789964 -0.5962624772512828 -0.4018839929342756 -0.7540065981747078
Ni 6.309411646540317 8.838978465625676 7.646879506572541 -1.4865018046402012 -0.5798860927757884 -0.05571889082885888
Ni 7.383249197095609 4.894580715293362 7.099191146352008 0.8733273821249283 1.3374017325450192 0.1872873817981807
Ni 1.6314803238480342 2.7830153989912847 13.07032323581127 -0.24824078155310153 -0.10426646072025915 -0.4349514649122057
Ni 7.374575768391606 3.778875937460098 1.684037947944314 0.636048241789653 0.3951839552062807 -0.4608761551977676
Ni 7.0340388839475185 7.9235916942300975 9.659309675525346 0.6011113207031519 0.6692254998725701 0.9191740081453976
Ni 2.9040893833492123 1.4821874183897552 5.3694476761500765 -1.6640717020403017 -0.6027056617734653 -0.5657841061567676
Ni 2.9295227457143356 0.6290099060392734 3.149720697921596 0.47048822436623483 -1.0046385056678053 0.38521861646345273
Ni 6.2120382020567035 0.3047634162587975 11.255959335683093 1.0364661917013633 -0.8623284599112632 1.537541544825836
Ni 2.5379421277909424 2.6546188421721895 2.157686343307491 0.8844443179736962 2.0865106363077937 0.8966578293207526
Ni 2.097208975128211 8.29053083103417 5.325706019382046 0.5280200000341164 0.3253049708269559 -0.3289865334436011
Ni 0.29317679619524295 6.762889429135463 3.312975867180831 0.25152408029006357 0.2287055397336513 -1.844222472793701
P 4.765019627230442 0.3234089589099176 9.683144369398946 -0.46065015522989045 0.6700904189760266 -1.8176519213940243
Ni 5.034287199552479 1.8650480263593925 3.9072287079044257 -0.39073851784041735 0.12947792698888025 0.4013975402161603
P 2.376491516147137 7.721168215303577 12.891755878133235 0.5648690505416658 -0.5205519737918454 -0.0883778145144607
Ni 3.181033545630539 5.515546039500297 8.274047589996583 0.7241517195968044 -0.4332517086122797 -0.0072757077258068245
P 3.1940762955613717 3.5901007647111993 4.234747996292546 -0.3871819108374106 -0.9037895552695273 -0.1462803432581997
P 5.9724615183272105 6.9875228479442 3.543903344456191 -4.965657924457668 -2.846578353074917 0.3744986589427873
P 6.9603100818385135 0.5933491644783874 13.368527080479852 0.6386483984166613 -0.3510211446461374 -0.9486481063451147
Ni 7.890593536905092 2.6231019685893275 12.439501319156605 -1.23843765787428 -0.20110140486313752 1.2093741648494205
Ni 5.182266513767725 4.401313229159228 7.737594627216466 0.9256033087105092 -0.6319280489736924 1.118595968423583
Ni 0.5762408030691154 0.2104028470092046 9.865161534433684 -1.471961187821865 -1.0152358215676776 -0.28252721353979726
Ni 3.7796864512058 0.5681105117372315 7.550737670332395 0.8336051238346417 -0.29534930500513 0.27496637047340383
Ni 1.821000796592981 0.8657088001590265 0.9825168736645773 1.317404463487486 -0.6535517978910551 -0.1678184744402916
Ni 5.249036077163637 8.469868642583116 -0.2751219037909905 0.6430488414772022 -0.2855001801251922 0.5335041630771392
Ni 1.398098946335688 3.61878549830908 6.281443332563637 0.24057632302930826 -0.6403928919115939 -0.08608053383985174
Ni 9.562292111789843 4.38537312549376 3.2294603444987255 -0.04645109237368775 0.8206290232899479 -0.5147510508393522
Ni 4.020772367427289 4.045730601044931 11.814310143972081 -2.7519725553728733 -1.0689433383934623 -0.21179436580060942
Ni 5.585548341629065 -0.10377277657467862 2.626058014698651 -0.3820764712900452 -1.190992319908123 1.546739152164704
Ni 2.2000603745827756 5.529110499428363 1.6842289310683012 -1.0028999257101439 0.20630377499968341 1.4468481948043213
Ni 8.301169988477747 6.021036445569612 1.3715448391015082 -0.20591399576043246 1.3711793432160966 0.8077118010076476
Ni 0.5913908887387723 6.804486485164867 11.929036967238668 -0.7091025385731659 1.237541885532888 -1.1027890832983136
Ni 5.847176588991614 1.9466397434267002 8.119886943939116 0.3819335179542777 -0.3910953869592039 1.1494954862159172
Ni 7.903971671834146 5.704134887250184 9.453062807619101 -1.1573849162663228 -0.30820302103934666 2.0676613648117743
Ni -0.08005174095047456 0.896626638870065 13.494462284062001 -1.7950601521364373 -0.5466782385652521 -0.3801070062685002
Ni 3.9211071254558267 9.018092687175807 11.597549887996589 -2.730331065843698 1.4686148970574515 1.2907462374700094
Ni 1.04984820693251 7.9444321453695785 0.9800191870528228 0.37066257302614875 -0.8441235068674624 0.2448664657642299
Ni 8.129769621886707 8.482892760014048 1.601490383632075 0.5473755217425927 1.8221343826454102 -0.44665101273732105
Ni 5.375448272743254 6.6611466634250185 8.541244159954601 0.12228372323328618 -0.7152677868436133 -0.19088229823829062
Ni 6.087545153966907 5.14726536270334 0.35556865373937024 -0.355059319271253 0.08565630181823958 -0.7545537289274296
Ni 6.483476460617228 4.399887842916787 11.706345986544628 1.397799516906786 1.1037270217315507 0.8033967185720615
Ni 3.7359559739377093 7.624102207068332 6.897880027669589 0.030093219840954623 -0.6895909509027994 0.9894247740418444
Ni 2.865967288551379 1.7354869382964728 10.683509314718872 0.18845260575087544 0.8160552878763364 -0.9447623981374632
Ni 0.27497377541677603 2.7511538241602507 1.6430641490366038 -0.6828490041932757 -0.7315151019404111 -1.1363175540730623
P 7.812942593566886 1.1104131478613257 3.2734749673903094 1.0105049917509112 -0.8710447567383386 0.07897786135679946
Ni 3.6814931767265326 4.800477274542405 6.009569073505425 -1.2163881342734082 -0.5574899844687754 0.9545410747907818
P 1.252989037105226 2.575682256340801 8.811522545396278 -0.48449790838176565 -0.3505776293508156 -0.07858293991122596
Ni 1.9814825182419242 4.232689105053464 10.138657752608296 -1.0738469463426668 -1.3934435539309356 0.07556677879272147
P 6.41426603973426 3.469818661599072 5.884097819170815 0.5170946113708642 -0.7910096577616184 0.9557284102306637
P 9.055404268227939 4.5417091159146885 0.23977791472842455 0.8641889101587696 -2.182353391740732 -1.5825564189736292
P 3.515458970107035 1.6520971849887 12.751312478503026 -0.3318918800158542 0.3093399628572672 0.1617784388937988
Ni 3.547786357435599 4.093793134540049 0.25207629628820455 -0.15345757773292928 -0.3415360879738376 3.228577691270124
