# total energy = -381164.90470070555 ev
CRYSTAL
PRIMVEC
9.26648940183561 0.00000000000000 0.00000000000000

0.00000000000000 9.26648940183561 0.00000000000000

0.00000000000000 0.00000000000000 13.56244391068490

PRIMCOORD
 96 1
Ni 8.97435395928149 -0.10721606115917891 3.0659801487934297 0.451749510306151 0.2420336243011251 -1.637598852560754
Ni 5.740784718235108 2.5323183967050924 4.9685609056886495 0.08416017688868732 1.7334974009322917 0.5869730815295569
Ni 5.0390983488966725 3.9629253474375568 11.526409051548749 0.3133154025652475 0.09920730102979688 -0.33446092629461105
Ni 2.8397527122438495 6.7850995294774386 13.37271905216374 0.7718968481915673 -0.8961322958345859 1.2229030525737905
Ni 1.9378823745362495 4.342499282184477 9.87424590152333 1.8770845136290448 -0.1265818363880078 0.3202530102253452
Ni 8.544231325397702 6.522969080131195 6.519833300151742 -0.8919030882445865 -0.2648110272069568 0.1092600572801086
Ni 1.0375224745847096 3.9248678758784146 7.195066622482657 -0.5517574528603723 1.734452822867026 0.7517489124887827
Ni 4.410997171097353 8.89612625660258 1.5024611620701573 1.0346296527132568 1.5393847686821618 -1.1708690667956867
Ni 3.593498218475215 4.828183785916968 1.0685494607111954 -2.7050072423669285 -1.0621450845247062 -0.3279807178869061
Ni 4.808038438176628 0.29832072331123877 8.579846150377104 -1.3962882224685824 0.8888393617175983 0.8412443855474543
Ni 1.2669885491449842 6.870897953915253 11.698909383131223 -1.877647585221366 -1.088799453887441 -1.2286484396980002
Ni 1.4999388236824294 4.068971050998021 2.914284012340596 0.7634165786346981 -2.664301022896818 -1.340026828872692
Ni 1.3840706414629211 7.0954991215925105 5.44331373199277 -0.11714280246229504 -2.4917517186397604 -1.3386299485251656
Ni 5.0577147259023505 1.764237631525104 2.3859458583556745 1.2912290906436987 1.1784599917690672 0.40511175584295395
Ni 6.446038685954424 1.1469411802507323 7.425288842569892 0.7447534550075561 1.5758119011609442 -1.472061460845155
Ni 1.2333882589396152 2.3742691551875037 12.292103695733735 -0.054366490566022496 -0.9515940763473161 -0.6743155128009677
Ni 3.560528049542313 5.709232322165256 11.17762395415328 -2.4582412455871405 -0.7061395992901 -2.5407949972206563
Ni 2.322849406056342 2.267695261736883 8.258768782640507 -1.3156486571386439 -1.4314298033667219 1.1563862997984795
Ni 2.4898222767707785 7.740196581729893 1.8944290262571435 -1.3152043705123735 1.156743168917266 -0.39609721104916945
Ni 2.9790373129269447 0.7565217464259406 13.235345201574509 -1.1792462351157884 0.703618118419827 -0.09478448937175288
Ni 0.6392181850137103 6.947022163522839 2.9164134515819624 -1.8966182127865978 0.20652797519534755 1.607936549609631
Ni 9.269639907346656 2.1450347428597536 2.2232911716554966 0.5098142756593672 -0.27651648856934313 0.11771230181251985
Ni 7.880722891979321 3.9675493255987484 6.4630741998853525 -0.6787915462944504 0.43245620929417783 0.5913074472388526
Ni 8.188249872411088 1.7900911366748502 5.54866722880245 -0.009453432103415977 -0.5677394301109254 -0.2733828280363679
P 1.420765939094819 0.6083932083539858 1.1821353066158709 -0.8043148595109566 0.17383048496232642 0.7997856041820355
Ni 4.141731524989351 1.797393130244026 6.611053547479561 -0.5154138812343317 -0.280595029514091 0.13227143057361737
P 4.043506738398917 8.108335668679398 3.3737397181066515 -0.9876268016011571 -0.526093729545681 1.3398517367474088
Ni 5.4546077291528094 5.560301306119837 6.998370560686384 0.47397412603230626 0.9862726015661079 1.2403225336018187
P 0.4074475345642807 3.1081009759110545 4.529449777182905 -0.25733323077267295 -1.7251901666181773 0.31726950211698907
P 8.336411769844526 5.9749674358495835 11.559894437286786 0.4332933604834925 0.4640923481422201 -0.7777548496342411
P 6.808692011237746 3.657353596248298 8.442390754682023 0.24277795866631735 0.8348582795154524 -1.2230850866776097
Ni 7.528661163967023 3.3721032560960973 3.638626948019939 -0.9006160426375521 -1.3123185643241464 0.33142573901271305
Ni 4.965920882886799 6.602262429079718 12.347384790956616 3.5833786146736677 0.19583809958166917 2.117052256540077
Ni 0.40987164816541816 9.049523720491074 7.7711040301443965 0.5039292776334998 -1.365590022053777 0.0013035493027719483
Ni 9.121626273742034 7.778207720842531 9.821609462346949 -0.10328995573960276 -0.7647712928903796 0.11186664166502025
Ni 1.6838230373711622 4.695413527212464 12.38789510223373 0.19176264396071488 -0.3906163904402563 0.5872165649989306
Ni 4.024250973631471 6.667025922804298 5.008800635478174 0.5130055289031552 -0.49726472112913067 0.17581871903694882
Ni 6.818041898942439 8.148617097670778 0.4718227623871488 -0.5939667392385707 0.17754650036133293 0.9029272072692321
Ni 8.193902430884688 5.697936471707357 8.766464905058557 -0.09553782259800965 -0.6387340161519323 -0.09477343362815935
Ni 0.47669230251481604 9.203764434905958 11.768335774272058 0.789193687598802 -0.6466494143442669 0.5145211942167331
Ni 8.077811852921956 7.434180039054187 4.490931761105504 0.073912273908434 -0.23222537996145165 -0.5754450262852993
Ni 4.40409363656812 8.060789312076048 7.0605134912366445 -0.4388842243077086 0.24970759590661512 -1.9063552375687038
Ni 9.383247066176724 7.574354222710177 -0.05132523094029196 -1.1631009928144938 0.7964408560795186 0.9504072551280662
Ni 2.772468733429402 6.3955641187319605 7.018781856669662 0.19622067973206853 -1.4079018954481108 1.826026775721281
Ni -0.13807625047824698 3.7899848576132866 9.555040364625532 -1.300272688903206 -1.7867104946201615 0.4025162272016359
Ni 8.833688651692547 4.584956974744731 2.0877483793521385 -2.288049900039298 0.15303900213827193 -1.8267142887066088
Ni 2.397796771522703 7.408122671139819 9.686378950733035 -0.5325384567297603 -0.42903098566271275 -1.1166756114724188
Ni 1.5449183627494072 1.6567741551015889 5.922067828377055 0.029680300673252107 0.3984968216295976 -0.3411360243219415
Ni 2.9602448726245485 2.3669300956611243 1.9046962964026342 -1.4689190585614313 0.21416672268752796 -0.9099764008065295
Ni 3.219308114012167 2.356977886151867 4.323571551138286 0.4878542264485081 2.7255750392159515 0.783998773661424
Ni 7.620862732511817 5.794419158309205 0.08715040522682746 -0.5418365942022345 -0.07294733889200339 0.2276058789115693
Ni 7.850291741114888 0.5163834561377222 9.197303838565313 -0.35299266655021144 0.10153157828759932 0.8223976851545967
Ni 6.039017409897987 7.2267404095623515 3.588215392924724 -0.7380665299056837 1.153814425306245 -2.4531023816986783
Ni 4.641528891927241 6.635603257584659 1.6510372715753494 1.0162722332519916 0.543005160589039 -0.10677225786124837
Ni 5.004219283167767 4.873793446256412 9.213795409574274 -0.3036056314766513 -0.5775988394035084 0.03441550136539234
Ni 1.0510052165176418 1.0530067782066543 9.77822375943974 -1.823029383655854 0.3590455576125107 -0.18664306334596242
P 5.674964844730217 4.678789445406499 0.5539942829125574 0.11420505999020976 -0.2859326396769205 -1.3423413359384817
Ni 0.33619193843543155 8.920052331977722 5.246265543603058 -0.21736388946858695 2.420567642295767 0.4451402325197495
P 4.2055683697838315 4.525781174068645 5.706276312078243 -0.6474688249217688 -1.5350128648667112 -0.9512022402255361
Ni 8.903882308147503 5.05028300148296 4.232025123387072 -0.1062284695426364 2.611506504803606 2.3263842768431227
P 7.817330838671286 7.120147983133129 2.106573252367088 0.41239260577508335 -0.09302688325069786 0.48920611249071233
P 2.9475497822822 8.123736573897634 11.844570255102324 0.3367746620294522 1.033581928175033 -1.1839783504841352
P 0.7900543912594126 6.7077614097714235 7.980508155368041 0.7308062487988446 -0.3287049976474403 0.8412893798527769
Ni 7.114449092213024 2.704026443452332 1.2534400151380152 -0.7030848716241762 0.19013950653499512 0.43484527835164466
Ni 8.893874499702441 3.6813630700271482 -0.11294367819611731 -0.06481802491664966 0.05095335111941547 -0.04895997483847052
Ni 4.1903527943516155 2.987923876166589 13.411154596486364 0.28616532451301685 -1.1118581354791175 -0.026474135031128603
Ni 6.753482267982481 2.74524378786311 10.329916246409933 0.8562460011626092 -0.148552427121828 -1.249340935050345
Ni 8.539440550429092 0.5635637864136839 0.19054681949614063 0.4260973569556855 1.069680473669803 0.40900440602914073
Ni 4.666446481657588 0.6352447144014481 4.372382783531221 0.4835185751876318 -1.2850892962945482 0.07083054965931673
Ni 4.6209665521683565 7.2167604005851915 8.931275903819074 -0.42040853410102436 -2.138995850690703 2.1174402360071145
Ni 6.874743546975162 7.562483849915616 8.388710908810351 0.014537531494542705 1.4128818651612054 -0.9704099235022384
Ni 7.339383853505118 8.000149406090406 11.753702134367943 1.1230946276248852 -0.14799629750804189 0.24535009026886775
Ni 1.8769181414250735 4.551013824435226 5.162733702448265 1.6880366974963317 0.3852139884777624 1.2770057479554653
Ni 1.0934086715589462 5.87900367264859 1.0531374357057983 1.061324902616256 -1.808435545002079 -1.2059268297307681
Ni 7.0366291150633575 2.3616111308023595 12.514242757203721 -0.28825228894903265 -0.587955242937168 1.0106916538404207
Ni 2.271392590967976 0.6230185084177294 3.3881426224271713 -1.2128572383020144 -1.8810177872451799 -0.6879328464740861
Ni 5.658414894838658 8.629835153560194 10.382593458139239 0.5948110895167369 -0.9682738509958422 0.564269212174138
Ni 2.934428433432006 8.829166604913668 5.558879826661066 -0.9769109578455498 0.8524199425482997 -0.24432910520352114
Ni 2.578836172996034 5.783605165294956 3.3416776651252458 1.884043204335065 2.6407245211284582 -0.4036174306856145
Ni 6.318995117637928 5.151741792839437 2.528134576785698 2.885566561412656 0.33291646462562663 -0.9124392605247252
Ni 6.470075959201177 5.515405165456568 4.917769424532095 0.47577492668647087 -1.266648058870225 0.4921397411977395
Ni 6.376706813004458 6.191367760495471 10.32001592924076 1.2755404762638485 0.5437803481921667 1.415722162823478
Ni 9.207952888070004 2.043937344586015 7.684670851189465 -1.417208260450701 0.3461386197428555 1.0062493017983507
Ni 3.3025211879350063 4.027892703926758 7.869010976151806 1.574477755730553 3.433326720188178 -2.329531821333169
Ni 4.845743783142333 8.852759086673974 12.685536591879208 1.4018569748056116 -1.39265293970884 -0.45726246970458023
Ni 3.1058862849681192 0.3149123724046512 10.302167744198137 0.7626349632736672 0.8385575827439108 0.07505230105014818
Ni 4.461249342576591 4.294322804308659 3.1452123389125664 -1.2631624143144697 -1.4984191249030774 1.7876342919860118
Ni 5.062097775341715 1.3625353203274337 11.225702207242506 0.0927008673698468 1.7411616023457688 0.5453716039386866
P 8.439121537256636 1.4530225883515455 11.124418552533818 0.2460975099578536 0.9060783513037042 -0.10033447265570462
Ni 6.029278329642652 8.284056105293963 5.586804392169582 0.9410852063961921 0.40292066172890606 0.5157792349935504
P 2.5319199376651498 0.27905198545877197 7.744508279201641 1.613339722903073 -0.9888907559152452 -0.5434144802123156
Ni 6.994577786615491 0.9251801915442261 3.7399384021965307 -0.3393637629128672 -0.5900936294364096 -0.6336692000345151
P 7.803570102059325 8.914316375100412 6.66131591209703 0.060840528326140376 -0.18680529995543957 -0.501176140368395
P 3.180527856287548 2.508345988883446 11.254156815939039 -0.41600217750321256 0.9362255643110456 0.03428977442080546
P 5.481480548125664 1.2067378357099843 0.32540667153801595 1.1535948530962714 0.8724627201317878 0.04210027160415975
Ni 4.6781963900912364 2.591179136744945 8.984305242141817 0.8569741375778853 -0.6129913599701894 0.6647918895812486
