# total energy = -340892.0282682657 ev
CRYSTAL
PRIMVEC
9.06140322035562 0.00000000000000 0.00000000000000

0.00000000000000 9.06140322035562 0.00000000000000

0.00000000000000 0.00000000000000 13.26227955366852

PRIMCOORD
 96 1
Ni 6.385552549903914 1.493908200590762 11.189080192179036 0.7650014066233147 1.7293368417966992 2.4119205081437296
Ni 4.674270353474303 0.5347043278358673 5.746333094075847 -0.2637743584123264 -0.27560760360182857 1.739480100878288
Ni 2.607101555411828 1.5460565746810773 5.041364098300026 -0.09732859594984529 -0.26076488216204124 -1.261403522641834
Ni 3.340676494222526 3.9134930829487264 4.766702100606478 -0.5560740779578552 1.6872967340065135 -0.2764064453540401
Ni 5.240037170690119 4.591240718063433 2.743249135030766 -0.24560771480562862 -1.1568681245309045 0.05724381211381755
Ni 7.327358528957086 6.011298484451576 2.634856632707855 0.3698336493669501 -0.4255697665869896 0.170754417140164
Ni 5.1190040112245505 4.817957020363987 11.606218253325522 0.9904730128007005 -1.1804456547405282 -1.1520979568357705
Ni 5.833341591530689 7.753063240471077 12.489459478845575 -1.70554513869374 0.327082631552669 0.24791090901750854
Ni 1.8579138192844293 6.277377521252275 0.5634362243720223 -0.5123704664223175 1.3201036075862038 -0.5808448571446319
Ni 2.523301700748538 1.4859522887834122 0.27272648201923094 1.22337330734199 -0.07435141832838163 0.32372605637561025
Ni 0.4138931727430561 9.158903665599846 5.213508101215885 0.5729137752230132 -0.8196849142091238 -0.6756170052212106
Ni 8.528239080315423 2.0776800255072647 1.40732649521579 0.9549959029400132 1.1334644008949835 0.12378241926599971
Ni 6.642524876720117 0.787550091739694 4.548762673222324 1.7567234613397682 -0.1641004021587561 0.6125082496861839
Ni 0.6958731594748899 7.67790796424083 2.9651801104230504 1.042852040623049 -0.1485359720615958 -1.2081441490970612
Ni 7.649536711542866 3.791608151604012 3.826366787255279 0.0904768631353345 -0.06575287802609321 -1.1415492347856468
Ni 7.438152303066953 3.840639403072769 12.643872128430427 0.6469332641332729 -0.5420528239780987 -0.9081529744445456
Ni 7.947974018348172 9.009707665704617 7.229626767227965 0.30231853723411156 -0.980528499993479 -1.5586166203285803
Ni 7.133671040480895 0.4680549905732268 0.5022427578374059 -1.866032626690257 -0.16290098253401622 -1.3898545510280966
Ni 1.8837931861657395 6.583825108282747 9.23687250745217 -0.36367765706788335 1.007631012637226 -0.5752460229006158
Ni 0.1022778675989934 4.670219906346871 1.348946594303249 -1.0202818686320172 -0.7162052110562183 -0.12809673037063746
Ni 6.529030804525295 2.1571394681480944 7.077998686775683 -0.4485847394249242 -0.37634471101259054 -0.8336442046026933
Ni 3.274863524453984 4.340819785594284 0.5443184763866622 -0.40594582170847504 -0.9420599116046356 0.35000735866964233
Ni 5.986279950852382 5.6721301712977095 4.926127518314142 0.6472603084553885 0.1028011890286423 -0.8966321182891396
Ni 5.255242204873185 3.1529242246914517 9.210838190580077 -0.6478462628658456 -0.28754009337335645 -0.13468158267700675
P 0.17710965174322468 5.369515557723397 12.422830076669467 0.32524249302013664 0.6275319767885257 1.143233050245973
P 4.038404522885303 6.095614839084136 12.837342143235349 -0.6172215960014531 1.6979773536488114 -0.12608432792629898
P 2.3212233531224524 8.362442590179802 1.3186416382115633 0.18561205097828676 0.09901086874827464 1.0776154122461636
P 6.451954510865483 7.981229367246774 5.719543962336385 -0.10184962374865039 -0.0520542974930781 -0.23357469490049448
P 4.660053012214928 1.033208350807997 12.5099898995539 -0.31662338389255795 -0.31584228275215925 0.8654544071347547
P 4.251845869835325 6.246414707304993 8.046331016882199 0.03449057757770189 -0.5957904227108706 -0.09341666248994879
P 4.521123581884309 1.2657873808299127 3.690534544459685 0.715793063219464 -2.315972851701811 0.5866874319683381
P 0.3176003618055141 5.553362362574553 3.442025568017131 -1.7067854388587445 -0.01917400182528956 1.2544602585547815
Ni 1.5072737699709904 0.9986844054936442 2.5148465056375606 -0.35557662522730377 0.35406378812720307 0.6276551326299513
Ni 1.7863831042420404 6.575334573700189 4.769088874148683 0.7453700055456325 -0.21234123944301495 0.16857617854192258
Ni 6.258647601314015 5.7711622443529755 9.152418419494468 -0.9605309738256298 -0.5299007619965971 0.3336854815811673
Ni 8.55368349985419 2.6418429743974525 10.260136874641276 1.0359229176033835 -0.6079476268986949 0.3650691380987713
Ni 2.4667585462179438 5.440085764051003 6.734770865091415 0.7313765194800178 -0.5222908108598231 0.8620237841866508
Ni 0.6153399405821572 8.997202929606505 9.183505374662435 0.45562776231463464 0.19864651556474178 0.20819533559544146
Ni 1.5565859249318064 0.960626513021129 11.349274922998822 -0.862513836449192 1.2676425615730105 -0.4646032263403676
Ni 4.019620234529226 6.6923082246353545 1.7623712925127741 0.08119106695803437 0.5631456400926559 0.010120890484085796
Ni 5.896028377274703 7.883266539741927 7.854810109856049 -1.4000235211412986 0.8168502729738062 0.8220768114800681
Ni 5.33228225292112 2.838339497794236 4.988911261069931 0.4057051664525787 0.44954221824218704 -0.17250688105489645
Ni 0.9427211807531077 7.403764278797145 6.9804146259149675 -0.6123588685925131 0.49992812689390675 0.22911794468072155
Ni 5.238868249707034 4.610052190628418 6.901610322708843 -0.33628872353196926 0.3824785918244703 1.148007588816481
Ni 8.12541441129979 7.292762092418977 9.130588593600294 0.5400851587287666 -0.13465098654938745 -0.02432469278829359
Ni 4.555547851765995 0.355202465708656 10.291342534188143 -0.44738223447639075 -1.3913018249975844 -0.09583889877819624
Ni 8.197579424550053 7.062983035914682 4.745296348371284 0.33185691301286074 0.205819122053781 -0.036882731958962287
Ni 7.357025562279709 6.336865631748003 6.933877978683753 0.5061638233909734 -1.2082901877566223 -0.16465473200032935
Ni 2.1665089588187088 5.105602196232444 2.675903882020057 1.9893941563687545 -0.40290343533772544 -0.037446317771916156
Ni 2.467465335649577 5.310861096300875 11.551298902207089 -0.6296716488393479 -0.44369244432962945 -0.4723175642654898
Ni 1.0602838228813007 3.2395059300664233 3.8355043060098706 -0.5355921559544196 -0.22091766825811632 -0.5095149992513934
Ni 3.6352717661687017 2.6550726227331367 2.5815556481598008 -1.4267123432863946 1.477689862775526 -1.5245790711278968
Ni 1.2709342577166716 3.7673417144512986 8.189536523274196 -1.0451146114049807 -1.1005008014847693 0.22919379222397948
Ni 3.6328342487698673 2.9551228592670395 7.106950775404 -0.4539079514100505 -0.3663179229042078 -0.1569085123960072
Ni 4.280054017279834 7.246585182885658 5.804355975711384 -0.3163292496909068 -1.439879733906288 0.09350279444585188
Ni 0.7656278395352283 7.311328907103783 11.557930036900277 0.7997861184026678 -0.15433689501408904 -0.4479843868367639
P 0.12718222752076971 5.58267600118136 7.943654447552542 0.48515585368073866 1.3625792602519113 0.31044605143725246
P 8.655642406068651 1.6211212368816286 8.22000005391785 -0.47791691273013814 1.7438556042381643 0.2657667062520068
P 1.776243394319006 3.440197883038153 10.470608799838143 0.841673502665073 -0.8016630237104064 -0.6164525790459126
P 4.064528547646794 5.974980381349233 3.894468667413954 -1.5163111746921498 0.5003125068165191 0.5381321487674539
P 6.834998137198378 3.8888823124831666 10.377826376411043 -0.23940338576712963 1.1527769851806664 0.43936887725361107
P 6.353991683360635 7.811672394878751 10.269659503022076 -0.6003340762174951 0.4754414546064522 -0.3112443789688317
P 2.5094196313990396 8.570700814631186 5.861701970545089 -1.1016945646825544 0.1931158155544997 0.5932964526444233
P 6.920637456664506 3.724889041538505 1.5013294896229024 0.14915072282745928 0.03583089365568023 0.9628714490333482
Ni 5.121196870743205 2.9886047432398835 0.40817995817069397 0.7343281459091741 -1.3669768750989748 -0.17964837719568416
Ni 1.5697068364318545 1.3393750343464113 7.332687540043537 -0.16379264111035016 -0.6501862238529319 -0.5245592951790257
Ni 6.6765323220652 0.9360429267644783 9.0654180773023 0.1514757714162101 -1.0314198875267075 0.010880651468245777
Ni 2.994422163946396 1.8871368438615392 9.331989148284249 -0.9396240484696333 0.005256363302932883 -0.15741656238067728
Ni 6.276652609014702 1.80202308576765 2.421427065581694 0.25586281687473356 0.8749762305822608 0.02860686510341525
Ni 4.228603371218182 6.680455909551057 10.363834664085612 -0.08672922316744418 1.4393554859717017 -0.02172633593349807
Ni 8.345407152596866 6.936494911861388 0.5078109899622537 -0.5669971526282623 -0.13436713676038148 -0.05261454087192229
Ni 7.612439327785134 4.029334058512687 8.166686383405638 0.7216891169889248 -0.6058393223064406 0.026586749349592924
Ni 2.924894018960299 8.339943126606169 12.40094678849777 1.453818455474567 -0.6890253082073167 0.19799422669272354
Ni 0.22896443637732347 5.253339310249559 10.244885627303063 -0.39650858755497514 -1.5940415367950933 -0.7972440687071045
Ni 8.597314155153036 2.24952953282661 5.641601398552674 -0.07818776135533631 0.6378580413048821 0.885401796790959
Ni 3.83138771064076 2.8118983239288076 11.551524531141032 -0.9104206874327998 -0.18545572790608061 -0.46294666457355105
Ni 0.956630434311515 3.196727046646723 12.459235169240317 -0.4151845666979237 0.3243521199953833 0.6088338861583902
Ni 3.352601300530581 8.231731852342651 7.9180976666169505 -0.277757817175612 1.1368533719718743 0.6336265197220379
Ni 5.525444180025073 7.861763830494956 3.5918893933112224 -0.14510920576823397 -0.4580409997418176 0.00033681451412845216
Ni 2.9941956288721547 8.463350373649785 3.750678700530416 1.0878666576605265 -0.08131936500578253 -0.9268976020419004
Ni 3.152371479110303 4.66897849414003 9.185162705265583 1.940246748109826 -0.9057780464544659 0.25004646730327257
Ni 7.380875174895819 6.1918288158158425 11.47945738104284 -0.1998042833182688 -0.9991489433081439 0.007360554130129258
Ni 0.4543595861249032 -0.10924336806176063 0.22250365605996553 0.8860607705311966 0.36693910142797453 0.41660998629054063
Ni 4.658947521052631 0.1414919950904354 1.6563392856634562 -0.7800217912915469 0.054890995610924816 -1.076914529524397
Ni 5.956141724575338 5.464841516964078 0.5536136635529255 0.22836769677825833 0.6239360319071513 -0.3582066066509831
Ni 7.974732341317538 8.641035424481581 11.579375659308537 -0.3983970628269397 -0.12678701042027843 -1.2235951935448088
Ni 0.12128597260842076 4.820177064091551 5.812220367348741 -0.2518603805835598 -0.24324949898609716 -0.155194615028694
Ni 7.766347257224578 8.587002278573578 2.515018672293984 -0.26747623274394583 0.6456554258621138 0.7534517541125023
P 8.543815632020245 1.395465118728523 3.6067301590949095 0.1582585986659984 0.14588722158483905 -0.48424542605132737
P 1.5857817653000073 3.0573083005557424 1.5487160964526685 1.1109045133165965 -0.0956262685467579 -0.019398459131269818
P 4.668335134529185 1.2236246728121476 8.015111765230877 0.5280788782965099 -0.32992087233241246 0.28342350010182155
P 8.503854844924104 1.4936091742927635 12.266335116682185 -0.0044456944761794405 0.8136392222356761 0.4901926447736977
P 6.261230101160364 7.466913196092611 1.4043027050448191 -0.3836268464963006 0.901305355395093 0.24070127864294674
P 1.6066320535331637 3.137827927344021 6.047625648956889 0.7342414997326387 1.1160248652622973 -0.03299573819973027
P 7.038009809330337 3.9515056684063934 5.884937220039856 0.40752139372571106 0.3610854708606749 0.5373443627588359
P 2.478474940257697 8.448951804331015 10.159224560469807 0.3376832898866507 0.05229520985929058 0.1396381553513337
