# total energy = -340871.69024009624 ev
CRYSTAL
PRIMVEC
9.18986532112973 0.00000000000000 0.00000000000000

0.00000000000000 9.18986532112973 0.00000000000000

0.00000000000000 0.00000000000000 13.45029682329625

PRIMCOORD
 96 1
Ni 0.9874694276597039 1.6423576228900005 13.407605733843203 -1.9890866524306645 0.984407523332911 0.42836866948836555
Ni 1.300990879043005 5.3670284895963745 7.363943070284901 -0.9466904683981116 -0.3802921256961128 -2.1542296369213223
Ni 6.154939987932935 4.097421001234398 12.219877190122737 0.16026714445559495 0.6979187540422045 1.8645357304297565
Ni 8.160609753482902 2.47272629983457 3.275618197921977 0.7978238524699743 -1.559087646427728 0.2609340607500538
Ni 1.8305384987246778 7.6921287900458655 7.875780900162355 0.4453528627511878 0.48032706483352766 -1.505460348020575
Ni 5.661159324775584 5.861489202800692 0.4635358968117178 -0.43220784072879753 -0.6445747912034253 0.44404571390399006
Ni 0.971598529941948 1.3744270942500618 4.2743433728455535 0.5747508284317521 0.5445411376175913 -0.20417387314087415
Ni 5.39316446707715 1.3467104599033615 4.536381359727168 0.8527976376026926 0.4253897893656996 -1.426115333132344
Ni 0.9566558086396485 5.9417075387464315 9.52422221401307 -0.8815461704902947 0.1622237539613335 1.7975237831855817
Ni 5.626715708883199 1.9403573914445291 13.023330588992168 -0.4260449064511953 -1.7653970778543662 -0.985990551549315
Ni 7.592253331796548 6.112841214079408 9.220757232445948 -0.6648371409968873 -1.0690893770530232 -0.6505178961607376
Ni 8.234974145105415 7.6570970227615085 10.710928844689983 -0.6488317667075665 0.7128450363347336 0.399753319744518
Ni 7.956208765041484 2.777664416841273 5.517836020417405 -1.4915725342948891 -0.7608727291669218 0.589110953808166
Ni 4.193096690950413 7.3822189558038955 7.588105945496593 0.21567364625035756 0.31866329714072217 -0.7475017071766545
Ni 2.325146249776989 6.003114220014552 1.9993728697096622 -1.3772492035592603 -1.543840747570986 0.3448301853440771
Ni 0.8598791730367858 3.699931748781534 5.09155583834094 -0.47867358839050456 -1.8296466318620552 0.15314750269167818
Ni 8.717157198002308 7.242505430613946 7.333438230745632 1.0436848209369896 0.1934955674914216 0.1333037284928736
Ni 5.715820644767022 5.197879825211304 5.630320893118681 -0.15139375322536508 -1.5610126313645827 -1.2544294053168459
Ni 8.896010360354923 0.2909272480660603 6.139227155901771 -1.6965241661420525 0.355997000594174 -0.17315659882375337
Ni 0.7762587488831062 5.52262210236958 0.03546001501663751 -0.12003915017348359 0.4464154996877473 2.9751350538011083
Ni 1.5016883516880954 4.023506913021364 12.00799473217812 -0.44245805770189606 -1.6021798496315116 -1.6680741383314757
Ni 0.8588646118856333 7.226331267334703 12.159889424087751 0.7714705592874261 0.9961708345164264 -1.513946274004399
Ni 4.979455102017546 8.458021370645458 2.9600474065322726 -0.433426286516931 0.353527713118075 2.6052942053453063
Ni 7.316419518826979 8.900816660011198 4.448483972169989 0.08999041041721921 0.09577950629517053 -1.1628531384697456
P 6.4049778484452125 1.9218122428663986 10.824086415545828 -1.1735738673213596 -0.5960125660240058 -0.13436739387069763
P 4.738322221174351 3.584350810393453 0.5269285080142957 -0.5450723275307129 1.6746929291995738 0.8530115533857114
P 4.85948140792067 0.24203624462180248 8.14654925926856 -0.4274271315107026 -1.3566469539278765 1.1124713435830842
P 2.193749552864149 2.9702656179812434 6.55133013247205 0.8652713445896711 -0.012687879880313634 1.1853253514303328
P 4.135246487630625 7.033141914802761 1.6816369460082587 1.336261448292989 -0.7771483263984938 -0.8871678875524464
P 2.7165518112691385 7.403842709324381 5.6873504414493565 -0.41580523100105804 0.02306896600432156 0.740346584189112
P 0.1997159950097366 6.755497698329778 2.1661431969034437 -0.054611002476660786 0.8582316641340703 -1.3412550448528384
P 6.441305386765009 6.216852111803532 11.479882569487481 0.4065544018267514 0.5032283949117333 -0.07667903802029374
Ni 2.597662521301212 7.87845331304963 0.37183758088391694 1.3312879063377978 -0.8572194208194721 -0.7483321734977499
Ni 8.400676609928146 6.180607282273231 3.917816107883919 -1.5059357449950967 -0.27085183408439806 0.30703882552791634
Ni 8.276475577701468 2.463426155949006 11.673122466279674 0.5476817401291019 -0.3769844014791185 0.5724118958859303
Ni 2.472248426828592 0.9675733688531367 8.728624312172672 0.045743781894017996 0.026070471834806715 0.24440212453330168
Ni 2.1790733376613374 3.5625708291594735 1.069989824913085 0.35661869333857293 -0.2979726015605901 1.4673689404654922
Ni 8.525484173277794 5.11415096064473 11.557490983631343 -0.9528248634306236 0.48775755296964385 -0.5012589298901884
Ni 0.4108513168892378 4.164387551129758 2.689023569165179 0.7956512702986878 1.3090033839079842 -0.23124604676731786
Ni 2.082690028301856 3.6372292964779738 8.782277503918806 -0.3684223708417203 -0.032439351475628 -0.4594000848728733
Ni 6.343975521259072 8.817657567105597 11.707878537599044 -0.4000338270994143 0.8347364092256077 -0.3192387100282179
Ni 3.345717572966141 2.549167601059986 4.758876274350686 -0.17204176849301986 1.506210338812722 0.18830348176752085
Ni 3.169446762818905 5.850452174335709 8.849515154846403 0.21206227475001543 0.6840731064083638 2.412997800368309
Ni 2.1803966782932753 8.313299368758242 2.733032916056066 0.24851074738503656 -0.7736482836650354 0.7462238689054954
Ni 1.8935717861862227 0.6554855364877685 6.3006168168455545 2.1024476192530246 -0.364624594362185 0.3512893107058595
Ni 7.377697541978107 1.744558117110709 8.779062888967056 0.15816166807681795 1.502504864936677 0.0596706763877553
Ni 3.7323076449365162 4.7407299659352375 7.036737909172742 -0.19288801581440973 -1.4811181717307846 -1.8741830237115338
Ni 3.0757836536472962 5.179803359773652 13.208863864576422 2.4458873520074778 1.361705085177074 -0.5893865760670559
Ni 7.586941589537797 0.9348574476746705 0.14007560589063275 1.577824560715599 -0.6171606608565307 -0.10549827624483123
Ni 7.24816638776168 4.042254238640484 7.497141899822207 0.157208045914297 0.39893159517417104 -0.07497799616878699
Ni 0.7923327426284027 8.12457629085909 4.620082654697244 0.17541968382631723 -0.7369817814819373 0.730979026931283
Ni 6.768584066801165 3.9407705539287425 10.121940255970548 0.4202583816764053 -0.022470156078058075 -2.812955265703833
Ni 1.847429471512886 1.0700403691733327 11.375359796255033 -0.018788850571728934 -1.444540372606751 -0.9761547964058156
Ni 1.4933807132764851 5.739273181521923 4.7888839421664295 0.6441575011603486 4.111317110737571 0.2286021813865676
Ni 0.5031423791417609 8.533580444782915 0.679194470490107 -0.8467295770317418 0.14998067492792233 -0.2002359715390487
Ni 0.4352761414139927 2.1216550580200293 9.679654085153482 0.1221256003888671 -0.57048793939034 1.0575579793746561
P 9.022959162365972 4.088359793851823 8.994240832679818 -0.8794309239195047 0.5368476256280754 0.21852422832527524
P 0.9782795621601348 2.038688952289919 2.1268546839196856 -1.0412409873821873 0.18298386932682037 0.6760918879751001
P 2.7749074571914027 2.843868207900169 10.624308848437245 0.877384068692805 -0.11984965987049684 -0.8388766566462262
P 6.7888109607657166 4.125339812622089 3.9420396743542327 0.5817871664532431 0.07220043342364986 -0.9741691334343546
P 0.004855924929972337 0.2579650384922057 8.204465629619946 0.18803557281811487 -0.3271628499713011 1.4513558528666874
P 3.9244953021290057 0.2756573675519762 13.067959332817727 0.46616645706242943 0.37697720239026683 -1.0895718132770913
P 5.784230003545815 2.593398423709412 6.222955101481795 2.1692086268286577 1.793909583471762 -0.39217242207346653
P 6.087559894090094 7.171228833799287 4.597970919318731 -0.4660484434273264 -0.660429755957811 0.5114620956754353
Ni 4.816105242762704 3.9717587803932894 2.9473773389680167 -2.114699954257816 0.5845971250982125 0.7648144874234892
Ni 4.291510960585298 5.0306242731191455 10.808483861900658 0.3503212903656354 -0.031205993289159156 0.7875862339023662
Ni 4.355426475134802 1.0714372287292673 10.398734409884819 2.4494241615161427 4.008024583894808 -0.3165045989265065
Ni 6.589400069290566 0.5629527807726068 6.571788611047191 -0.4581921806077012 0.25742399071426636 0.0028886344017047022
Ni 3.184288395600709 2.4336877511923998 12.708661323407972 1.5252452439569861 -0.2253952444134957 0.45988139538466605
Ni 9.02577126120884 9.27294188368525 2.696367190685885 -0.9010724134486805 0.15942330839806093 -0.11816815840301584
Ni 6.549607951677431 6.733212274493323 6.987711814705641 -0.8795304256118466 1.1369384754865128 0.8200145296344006
Ni 4.337193781983657 8.902838430421104 5.831632248779142 -0.2409193081910238 -0.05846482900511221 -0.9119939454571907
Ni 3.959177854524379 6.330457229109205 3.845722532026349 -0.014141324497388547 -0.12180061294928056 0.8680527639895502
Ni 6.478947075851244 2.94581138588689 1.9118522666379656 1.2030824183034379 0.9699576664561681 -2.021440386171022
Ni 5.275479049489666 7.253597598271925 9.74901735197113 0.6948339444692936 -0.8035430143419388 0.3356189511584543
Ni 7.92408099525499 7.2010683270763876 -0.13780387113913925 -1.466706367180829 0.3663238364414788 -0.5113543664529774
Ni 4.561545968424638 7.193679675214735 12.399586847939913 -0.6405952377303871 0.23307410111499213 -1.5185022688061978
Ni 4.113861670613128 1.9152782484962048 7.14407186226151 -1.436488963057184 0.1613459793420705 -0.4822283956212985
Ni 1.2369834658385057 8.31357506472323 9.977766889053656 -1.4045607468900196 0.8849708799011275 -0.006550399524008073
Ni 2.6893681891214127 0.9235722928411997 1.4388857298505897 -0.009949140792911898 0.4478239499994997 -0.2918888572603554
Ni 7.854311536382261 5.277059706355593 1.1423563397759924 -0.09802922156129569 -1.0285207116020416 1.4526180074085628
Ni 0.3393642721546394 2.401780538177896 7.37272674372939 -0.7727435124625789 0.28594138142766884 -0.5374994002794615
Ni 5.679153081423741 8.56524872129443 0.6858828546006933 0.4580322579910692 -0.5103570355367146 -0.8245319578887799
Ni 6.835651705217019 8.795702978427126 8.678252821396432 0.9247049652659558 -2.342627992395495 0.9751767487632624
Ni 4.943495158317731 1.299005868095098 1.947266332327105 -1.7543212796561787 1.4149418330140278 0.21826403268535313
Ni 4.39001712887518 3.274882089695462 9.033515560865327 0.8078071889349314 -0.4186190463007694 1.1614372319588255
Ni 6.706129740866093 6.996841946079463 2.418053952004533 0.6194319733892106 0.3602143811096312 -0.24050896012648257
Ni 3.4275073759123065 8.515742915848252 10.577623412712883 -1.660453131451108 -4.465553934107529 0.7966771404600408
P 8.697858480453213 3.781684792265701 -0.0849612255300667 0.015054323229961168 -1.0220590151370978 -0.41077358211442155
P 8.712543885521525 5.442229158979349 5.8883925340506815 -0.02040710290144227 -0.32901430135774307 1.5224946777950423
P 2.5935546514229046 4.436885442922983 3.6615613033611827 1.2852646455301477 -1.4319393960132887 -1.5012694498676789
P 6.9298386367221045 0.6786384836273831 2.1641398062245374 0.6710319569536894 -0.5311852851359755 1.3107941572598198
P 3.3251138945161065 0.7211572343342396 3.7554707009281802 0.20339225777984324 -0.5481190847768367 -0.6335797256445024
P 9.07694962217594 0.13800145324738 12.046140025893735 -0.4133750242930106 -0.27014503782536053 -0.14231827328665814
P 5.413758955661684 5.02562498628738 8.348854958376076 0.7619723899890039 1.913955161403149 0.5651004498261817
P 2.519236209127889 6.276540288223233 11.230702123426315 0.774515516761337 0.20389130890344886 -0.6101497767563363
