# total energy = -340859.8916700438 ev
CRYSTAL
PRIMVEC
9.36947379425666 0.00000000000000 0.00000000000000

0.00000000000000 9.36947379425666 0.00000000000000

0.00000000000000 0.00000000000000 13.71317197881795

PRIMCOORD
 96 1
Ni 6.092959270893896 6.002206550225591 0.301228574177784 -0.4717722332849811 1.2493381068368676 0.5635865842848164
Ni 8.782447910414412 6.559259229826399 11.92826551513057 -0.7394348710081201 0.6060619798402078 0.33784295539296655
Ni -0.09211316822571167 3.9613478246453444 11.959393717058747 -0.21846200762877216 0.3646469629596881 1.7829371436206585
Ni 2.3888503421754894 6.46994003860908 9.62376666930369 0.06492755391132045 -0.16875821264574162 1.2402286883364317
Ni 5.116819409507767 7.123451448261529 6.760059228015399 0.8403190455197075 -0.21497970550712653 0.9405493884973801
Ni 0.026415356739640013 5.997531182931199 9.700573865561225 0.016878520922893513 -0.02104756469891859 -1.154157924688593
Ni 5.31656721581869 6.098955733956845 9.900333852187744 -3.690974911098108 -2.978153014691826 -3.081947935092305
Ni 5.050858315815337 2.9266862315542554 6.585353213623759 -0.2997284079094322 0.3446944310971612 1.2022846049924907
Ni 5.268904703941788 4.165265046679724 12.59067979853679 0.6155760899782302 0.016161440251210874 -1.1584519240782563
Ni 7.357810089813905 2.695541319424678 11.865897614539142 -0.19664182642988715 1.1141158211650426 -0.34731258544629867
Ni 8.280543952045655 7.2730163543144055 1.133562007946175 1.3401993498948144 -1.853565347461182 -3.046834379218623
Ni 3.8432175023052673 5.461288104053528 8.063234941486476 0.4620696612852364 -1.1403449300649007 0.7748764996451816
Ni 4.09011249944862 7.581028427332149 13.390706350606195 -0.012867599991287518 0.7154521349402776 -2.5827546294818937
Ni 5.945952231116308 6.897375421314849 11.603345290170019 1.8592649689491205 1.2419191886649774 3.9654627992731966
Ni 0.7186292507266518 9.164994145409894 13.519569404881596 2.466685776810068 -0.9820166545032312 1.4408258998696413
Ni 1.0790073113362975 7.7169888578109616 5.305283558839458 1.4585737107713654 0.9599614744754047 0.701024903771354
Ni 5.185947385255315 2.3000464720026423 10.973759768138732 -1.2451842325694944 -0.581938861539759 -0.10710393016905424
Ni 8.210301008947338 8.109841513695885 5.897664775354566 -0.1627014649287004 -0.3278429067574612 -0.6184426128927477
Ni 2.4656612862224403 8.893410585499558 1.5930456748813422 -0.7554888391471892 0.8524258560855706 0.5864879143630223
Ni 8.392630963955105 0.8369038629591817 4.081794280843487 0.4111901008265499 -0.016907831498932168 2.0692868162303397
Ni 3.3153975801363313 2.8121163091578034 9.067985427261696 0.34731438521851155 0.942084594194984 -0.40268257757617104
Ni 0.0790989694844071 5.209324221727276 2.1806681357875886 -0.7627954001109315 0.0746578938252069 -0.1327702245869068
Ni 7.990718027161007 7.202951431213271 3.4199824545856212 0.7807285875505844 0.6749297493461989 1.9337989356019536
Ni 5.364520181375203 4.029323355147983 4.454407936943607 0.752033533608737 -0.4845135921110494 -0.49317255333762805
P 3.7733212297277783 4.399098997714093 10.471090323782096 -0.32038542203815146 0.5449291170846293 0.10565691330988256
P 3.667315006143099 5.224043664652107 13.601505450952661 -0.1409298775795637 1.283127544582487 1.0625371777568025
P 5.943028955373122 4.813726310096347 7.229611331212197 -1.3132472467860028 1.0537260072230756 -0.6752004865090823
P -0.02541469696601055 1.3101053760981962 10.513587444898679 0.5116225325126995 1.0460039559884697 0.2856919844210241
P 3.1122580244054285 5.4702827986479505 3.3698473386426073 -0.11777066585428105 -1.6534707865960039 0.17379191841490715
P 6.85169923782755 5.678135199567389 2.4707020629847314 -0.6900061840633472 -1.1253453713322747 -1.0380463917042897
P 1.41675809335685 7.76942980119115 11.72048338526265 0.08697142108523731 -0.4511812965075068 0.18059994247567607
P 7.0247253056142105 8.015912541498926 13.071929689443104 -0.11033683528405513 -0.22420456653950419 0.877305907156702
Ni 4.875527357538856 1.1217883275010179 4.935123767858379 0.7179720731486537 -0.0270919711207856 2.6802061241628485
Ni 1.5540208806571465 6.869782321751752 3.1692918837128934 -0.49239016664564883 0.484586868551146 -0.8178997972842429
Ni 2.3781410339240057 1.5074452277104042 10.863478253779641 -0.04066045383383965 -0.3245310687754088 1.5557061315500047
Ni 0.428156832168031 2.467188510408785 5.239953967663345 1.5887430074003155 -0.3431913641890735 -2.391705980869068
Ni 5.717843028412348 3.6986652645940743 9.123455521436027 0.19813049516027167 0.5287041705853347 -0.3959537434927697
Ni 6.2983475002734055 7.991917319773597 2.0277114803147325 -2.2838214637802476 -1.129944303556867 0.3849854174067241
Ni 3.9601016846650756 7.026411810850664 1.7840564471200788 0.10383451538916312 -2.2089077451904924 1.9226935697174112
Ni 1.954219203794182 5.445369368516108 11.74438491225262 0.5671449910600361 0.9337583337174759 1.8350793728418524
Ni 6.2483051421183955 1.0532974759539075 3.132664737766523 0.19038993198290435 0.43555824525826925 -1.0157441286626634
Ni 2.8503999780253126 3.57401378867304 1.8938713616970841 -0.4319533015158302 0.6647882900368228 0.8568273275873759
Ni 7.633525587553553 4.252447997930868 0.006388107056746909 0.14911729848636254 0.2949183881152985 0.8133322325182186
Ni 4.206537577605172 0.6260738433500477 9.07486917946849 -0.3561738924916704 1.6932781484009292 0.05741556180499144
Ni 4.423974949951791 1.6473970539154916 0.6072946075421306 0.3743438785324779 -0.1883739299941401 -0.10634005541983622
Ni 3.186689122174272 3.1227424652920517 13.111053800086781 -0.5537932523434785 1.1817659162138485 -1.04940423991927
Ni 2.3811486349290156 0.3534231004039794 4.699627672218749 -0.3747326293304643 -0.11749427226444281 0.5329868571210885
Ni 7.031293306562845 6.990114470372757 8.984404101637734 0.6378248740741015 -1.4428730122066569 -3.0344429475328063
Ni 4.981720970594252 6.278962059527719 3.950600101552364 1.4812729521410941 0.7456227449863868 0.18570795312620275
Ni 2.03800103615181 3.2036103913800282 7.037242922258114 0.14807523037509338 0.2873639728068083 -0.2602768867820292
Ni 8.346158375217255 1.8024712104074512 0.0811021629263732 2.0858040971590723 0.7451033821478071 0.1525494640963631
Ni 1.2998176941558257 1.4020105420114117 8.70686249350595 0.9135551192967235 0.20411448065784846 -0.13977956602520444
Ni 0.2992338132620002 0.3146400385970089 6.69249408045363 1.4358557003485592 -0.6878832241830735 -0.43813551906714215
Ni 4.326925943067391 8.682091479371852 3.6059880540615037 0.2626057920255219 -1.0317718715494877 0.15699515857254254
Ni 3.3079113707811816 2.8970224783397343 4.90964442152497 -1.2463247739318408 0.6242551058094669 -0.13145741931275426
Ni 0.810386378958001 3.5035085003157205 0.6132685838685927 -0.20591785241517438 -0.07632551133561694 -1.1880314375075864
P 4.339171844978755 0.6568497530732753 12.225237537481014 -0.6470011412567309 -0.5449152331275583 -0.6984568859338616
P 1.8928491521343223 2.13717691352885 3.441073139514834 -1.2180961181034506 0.7397264341066099 -0.39016567605608293
P 0.16885571511585087 5.5307627503219035 -0.17778294950081489 0.961725251244047 -0.9692056187814921 2.4369908208487963
P 5.60878235645498 8.434456293819167 8.866032046880433 -0.57968143296415 0.6292906113508452 -0.1714226468517822
P 0.5905298085444228 8.914613704111202 3.031584983366997 0.3925915118887562 -0.08479112560446687 0.18739022592463211
P 4.628304428821749 9.08355468143623 1.4469315459317218 -0.4613404964286958 0.8299490151392931 -0.29926355245787173
P 0.8451658647231 7.876344863708808 8.455843054112114 -0.6928408252986649 0.5222046789039201 0.07597095620967562
P 3.2587872210326867 7.679904481556042 6.0890325245350185 -2.2420245823491194 -0.20760963829530055 -1.1424745748133935
Ni 5.090444341504331 3.940294617610275 1.307932595185231 0.6318843402199504 0.5863030520457257 0.4914745968099149
Ni 1.8973277604844614 6.7802851105372515 0.6655980305137045 -1.1066094854856683 -1.0375972199820132 -1.3114659865158638
Ni 8.017486613052949 -0.0672671983033276 2.0533829008556257 1.3340032483864315 1.7335588502978467 -1.3402127196312532
Ni 6.330072537665815 1.01957674069836 13.088454629918294 -0.769046780337282 -1.5715749802614611 -0.28408838737933007
Ni 1.5027885993630836 6.102141354959036 7.285369068224079 0.020242295188803848 0.23819830971543493 -0.6143185634220453
Ni 3.613393685944245 5.324999742000961 5.796941997896755 -0.32007611832784877 0.1854989224391902 -0.9467570599699887
Ni 0.4476809411220486 1.4233729416731644 1.7075640651733472 2.0606751633019287 -0.07602674914827552 1.8563853334084803
Ni 3.8694239197850577 1.5205812296076748 2.865326486315286 -0.3834147304854945 0.3690144958997644 -0.26401552788885496
Ni 1.1609246184602902 3.9434052828241795 10.23867865883047 3.461694986918225 -1.7041130342329038 -2.6290720244911947
Ni 8.012380249975907 5.099410927678146 7.6421173947859335 -0.10421735264987858 0.38035023262755785 -0.23314094979718555
Ni 7.808875284777106 3.9441642101805843 5.07650631267239 0.5369808087718301 -0.6588305297914911 0.568712335547156
Ni 7.202548543851229 0.8724525825015746 10.561912378554567 -0.8285583054393536 -1.0575006437741594 0.9974898104381661
Ni 6.945993619492408 6.076871884832831 5.653378239643596 -0.16563355097383087 0.09094660368290143 -0.560554482326712
Ni 8.831731341213015 2.355616819543807 7.175841796484623 -1.686759630556121 1.8018206107887227 1.327266186772914
Ni 7.9630874497037665 2.9591889352501415 2.8638311183389633 0.13584269286464346 0.06654657757198217 -0.7042529237903484
Ni 3.1105808886425095 8.156632664533953 8.255014010555152 -0.4209088707762106 -0.23000934614673935 -1.3081742031384698
Ni 6.4401919601327355 -0.2219796931168032 6.8742759212595494 -0.36399853074241184 1.3460884616857398 0.09256614156419542
Ni 6.438795908575893 1.4470402318247377 8.677612871021713 -1.5785979485465136 1.2858454577342824 -2.5048080376030866
Ni 8.411810276283003 0.11484351102369934 12.32006410524271 -0.7268539490193159 -0.9032095143963413 -2.0425792250321657
Ni 8.363351359155553 3.642485901273079 9.756304431099853 -1.6476055860644785 -0.5781212875658818 -0.713319661978307
Ni 8.304379892720872 7.988216377726934 10.222867672238712 2.131501856306503 2.776375152586954 1.3994720195132027
Ni 3.9540115268667693 8.197961412300616 10.539024628601176 0.11578783109629737 0.062055374569847964 1.4826016982548467
Ni 8.487309494034934 0.568645529206723 8.664036503868257 0.45731903397412854 -1.8241604119365036 -0.48460126672884923
Ni 1.366162936263225 4.763402867735262 4.85826129170698 0.34768770939753024 -0.04247745243792039 -0.36570317213834436
P 9.103474182173459 6.164017358189831 4.984874735386422 -0.864395112632305 -1.807029665793488 0.37020054578806566
P 1.7246577326921637 1.6657893304663778 13.130115057048128 -1.3034773118834324 -0.4628260798352868 0.7342155315907096
P 0.5198361937690325 4.342179445983765 8.141770805611378 0.6542159138376153 -1.436694908420403 0.5248531722703605
P 6.183046758941156 8.257476308200376 4.821043868927851 -0.023589357284165825 -0.23466252864803458 0.12040167571922492
P 6.716685124175858 4.637861291828322 10.959100289844532 0.4711788226753562 0.2703530400711086 -0.09939164912646108
P 6.731104743947542 2.5403640987238236 1.0628805734863813 -1.6923877753761756 -0.41603508762367714 1.2690643816212015
P 3.5048389655578123 1.3565311174683647 7.04584128812197 -0.7486309356850914 0.3368430533735425 -0.0444119504564719
P 6.848513616825358 1.9777927992103965 5.921375165084404 1.227884307838466 -0.5089730107049945 -0.3336168331267609
