# total energy = -381168.20223429863 ev
CRYSTAL
PRIMVEC
9.23967246382322 0.00000000000000 0.00000000000000
0.00000000000000 9.23967246382322 0.00000000000000
0.00000000000000 0.00000000000000 13.52319461120947
PRIMCOORD
 96 1
Ni 1.644532293981567 5.114297150917527 2.0455044999722585 -1.0466223062987587 -0.3449425425522253 1.2012499930803893
Ni 2.137441086173282 4.358880032204005 4.763531475659798 0.6759769596637907 -0.08766587604910063 -0.21207641581740252
Ni 9.182838963970685 1.4563478905367873 1.9464339628751917 0.7904506999343548 -0.19856372604294836 0.6199055705915195
Ni 7.521545904640818 0.19006744863661196 12.37227586260384 -0.2521046353838819 -0.764739925431812 0.27769996735448305
Ni 3.5390439189985594 7.804529344730338 12.586077257188732 -1.3938461886859932 1.4700940527061392 -0.4201853623466248
Ni 8.083816915944821 2.0813008379614453 5.6639735650626175 -0.4858022290154859 0.84139145264828 -0.830967943322111
Ni 6.73339262736664 3.2883900918934392 9.102570235808157 1.9491872451325658 -2.4302465601464274 1.1158952816629686
Ni 2.518974869815708 4.534914266722096 10.199261114541091 0.3327056341664012 -0.5669243904087978 0.449793929241677
Ni 3.738315929068455 2.630460754431249 12.456268178657968 0.5525089863144161 -0.013636616946828127 -1.02765347850574
Ni 0.5729834872383025 6.778944211251492 6.222116290833202 -1.6523762679802447 -1.0364957593877182 0.9193994938926423
Ni 8.67439828283162 7.744471475510961 0.8531377397039812 -2.2551135543225937 1.366277277928789 0.08991893374933546
Ni 8.899328862566472 4.183159946540293 9.86715772916787 0.9316675126267181 -1.3452703366598184 -0.8003062525721958
Ni 5.7264716317067395 8.88829669397448 5.215369001010427 -0.1359524789696304 0.40425557849024574 -1.0422066937295662
Ni 5.762774303731806 4.917214943156092 6.391129298455938 2.1091484283119675 1.1816867262364812 2.089052686003357
Ni 8.776330346405185 2.633870193468472 7.827941750086489 0.3619010247834348 0.2759780995673699 0.9149746253520694
Ni 3.9225272734725682 0.7833726708843144 6.429412956198026 0.32727880672387505 -1.1557332395955129 0.47856534494741454
Ni 6.331051101957748 5.480631673811357 8.818096436594777 -0.5242937002224648 2.7247021496926944 -0.024530895261828722
Ni 5.173052226358454 1.781676748262063 3.321783191146632 -1.6044128527270884 -0.4537439150283605 0.23648878322349592
Ni 2.0195059103707993 0.9354244122722789 8.247647391437534 0.8365433805273592 -1.4026948973258746 -0.5405785534254174
Ni 4.374541276561981 6.452266361386827 0.7552757517290519 -1.173738932144314 -0.3365057246387818 0.975669886349597
Ni 0.4220700734638498 8.160367600019057 12.056590450740758 -0.6781549411517159 -0.1891059230641582 0.5043118577838993
Ni 3.572362176907033 1.8849578039750177 9.932393510681178 -2.1223911522544867 1.2992504182862785 1.408750102381019
Ni 0.28741848273956716 5.353752495331281 11.780527525119748 -1.086989654372212 1.3431193517550868 0.9052854230887635
Ni 1.425431947397089 5.7538395407264 8.30343098830293 -0.35515650697074963 -0.09564529471015142 -0.2749110917554362
P 7.146295098085957 7.598863481506625 2.658416306602041 -0.2862044052810684 0.1284785391900884 -0.5917604756158712
Ni 1.6515729241885153 6.531598186789531 4.321904712043681 0.6019584991947956 0.042330128226778715 0.08870511594689238
P 3.5661808362135305 2.7552055686359904 6.836935165802504 2.1778791580194623 0.730615215833961 -2.5661974964541607
Ni 3.369218744190534 8.793488417657551 4.506685220254551 -0.91723925301653 -0.8048496489685042 0.7876703089757402
P 2.5593429976033177 5.957269403280715 12.152821636574576 -0.2639291388226358 -1.6485409533945543 0.1567416478008397
P 2.6751530488026534 0.6107109167146969 12.376048420758035 0.1538866948505479 -0.02829910405500933 -1.2648549715255444
P 7.300976450178512 6.987797761379925 12.059119349018504 1.2558941627878308 -0.22728474812672472 -0.6069924620742773
Ni 5.310880416380833 2.6286774976990426 0.8543767797443379 -0.07632448289435242 1.7516815280404865 0.9314188869510216
Ni 3.0453405149987107 0.7023167226514044 2.587852930105366 -0.07923677144514096 -0.021150408825370025 -1.5476184694458637
Ni 6.66535168137718 5.950616839305645 0.9262863764787459 0.16960307714454018 0.9503126385317311 0.48276421352011056
Ni 1.1602256365965038 6.562190741402664 0.21076801020570338 1.6629288466851102 -0.7314438823828435 0.42743201660670904
Ni 7.599491779215382 1.9826858167032269 0.3799196129112529 0.9369040784353091 -0.6970129543984835 0.6385087875150036
Ni 8.602328839768365 5.518763800929568 4.675170642595374 0.45881053091799046 -0.08529120516933698 -0.660511774148656
Ni 5.818230816201761 8.016090118809737 13.101419049484711 -0.34483712732261257 -0.27937889771880275 0.6924590164792139
Ni 2.0272025573030676 2.3858034745758787 1.1006713295113502 -0.6604264135237013 -1.5503399821420847 0.18395857453526382
Ni 7.395073271736996 1.3902565153789086 3.4687669723397 1.2541445270865756 -1.0798116485665337 0.21639406935614988
Ni 5.3501859818668684 7.4444500799075115 7.458190396417686 -3.197244942595113 -0.22533379504794096 -0.03440958782812138
Ni 4.6866574030589945 6.697782930755643 5.201872611846005 -0.7117662014482581 0.02967155892250374 -0.24451242485892083
Ni 2.6558236545862015 1.90932281953371 4.484615339267257 0.44175280410475537 0.48319153086551625 0.15573788912667375
Ni 5.424703938059835 4.756038101515657 12.772426661737054 -1.0580922546115712 -1.8297654168281068 1.3259991471350325
Ni 1.6677423505168094 8.686899559301438 6.090927729244831 0.47310277917094656 -0.0773837773968022 -0.26380032655425534
Ni 5.893330871742546 2.5657183714127596 6.7071260872717415 -0.2336248314121396 -0.27093462360619147 -0.636708243971155
Ni 2.2140656876250207 7.487682506073276 2.3721980572796424 0.5903437977740027 0.2189140075645262 -0.464948011274296
Ni 5.241250246775104 1.2900153118156732 8.7010528891584 -0.10144133256663819 -0.03135537438282986 0.399961321990266
Ni 4.469497387633911 4.080368593453281 4.947014733895528 -0.8054062928029225 -1.6031635537010196 -1.383678761234688
Ni 7.677613207561512 4.211451822778714 13.220720772803741 0.2900530896031972 1.0278547958832687 -0.44314839890070135
Ni 3.3866632452807166 5.318761856756852 6.9964950648101105 -0.6099165776996077 -0.5796505797262146 -2.306615835966944
Ni 0.47626906654907264 4.378292583470145 6.296507663517199 -0.5281902070633935 -0.7716065706446582 1.232341315168555
Ni 8.46902808911791 2.028514590753706 11.421906280568122 1.0616673735573394 1.266967646993173 -1.8529459687096281
Ni 4.265965888685534 0.7126171092061371 0.24718340623145904 -0.8823344707195451 -1.1250206410030044 1.5355677089289166
Ni 5.6699895156239615 8.036944058937143 10.02742169119617 0.8052096034110842 -0.0006905983091213913 -0.5473739790806961
Ni 6.34011522037378 2.5264312852710984 12.171551376066054 -2.228405706014104 -0.14606951279897423 -2.1558995684245774
P 1.1092596048097212 2.596948463406836 9.823424512769538 0.23291752093246984 -0.529372657407269 1.2112834660569913
Ni 4.729917548241321 3.828088584043144 8.453753987024594 -3.2210505296551433 -0.3952839711192547 -2.3991087010910426
P 5.065058937829824 4.645956647072631 1.9151410411102396 -0.07172760755228937 0.09906948990035196 -0.5183724496420233
Ni 3.359258377572305 3.4319468786721274 2.763694979441954 0.3809536705395117 -0.27632596982509183 0.27547236357554494
P 2.853478722023268 7.752593147363858 7.630597135634926 0.5183863335990944 -0.6729173469018604 0.9331063019557737
P 0.6602346356729959 0.6869437560656813 4.043691714704616 0.12578736551117048 1.4675216639932727 0.12112184171470106
P 0.1893467542059794 3.379668813434706 0.3413412096263808 1.0455681540026316 -0.7739136215112801 1.1786397118800411
Ni 1.493546810764051 3.483652084233918 12.108437947254236 0.13431417203525903 -1.15316856419213 0.1765558543132895
Ni 0.3617322421771878 3.2129851271704633 3.844779127882818 -0.5157648368158473 -0.6544210878698858 -0.09707997027414894
Ni 3.0251425915966244 4.197259686298565 0.5638981175762386 2.0341362364711357 2.6742699611840717 -2.002204163649229
Ni 7.02526463210063 5.0174284277027645 11.027961769243316 -0.03213467575101562 0.5691067427720973 0.5185974211686359
Ni 6.459362429626901 0.2531466906613339 7.29700708700672 2.250245684707331 0.016891119328383816 -0.9345636032275905
Ni 4.8480375174875565 0.5084591604834404 11.52596716461371 0.4951805849065923 -0.05331876602779849 -0.8720415734339692
Ni 6.17614799773269 0.47128426340386426 1.5018994744216383 1.0853482621140471 -1.2044402178829128 0.5514656326515665
Ni 7.471161972201853 3.6061793771136363 2.1900674870521764 -0.09139217586075228 -0.16651363958593904 -0.11270199308212203
Ni 1.5634079721744687 6.8756743393834405 10.462786728970753 1.2406621763294245 0.28236960491601043 -0.46901318248260515
Ni 8.72333158673713 6.435330042266963 9.68808364250006 -1.2119941189707708 -0.41399594570646114 -0.1568627467597363
Ni 1.2138249749567516 1.6314858768526805 6.207457550907581 -1.134875165199581 2.2528391564661203 -0.7985640730701086
Ni 7.442177120549363 7.511095835396646 8.02585368041037 1.6323900546663048 0.005530957120558217 0.4320525460978559
Ni 4.81207671333343 8.232076695866995 3.0206484150445774 1.745552275214297 -1.0241583208682876 -1.6217675419554523
Ni 1.155365569025828 0.46328455522384315 10.23233821700547 -0.211011721998314 -0.3514029534655883 2.1366168089355653
Ni 8.611836462449403 5.823275677216189 2.266717035618821 0.5375909315520032 -0.037295394016348675 0.5798035603643111
Ni 8.081599394619797 8.605433369623398 10.139609790897968 0.9097293177927299 0.08229869819991632 0.06618919423256342
Ni 9.12350178918194 7.89482866101972 3.810700444953306 -0.10245074766775904 -0.7279374118914818 -1.9723832236330547
Ni 6.916014748154487 6.890818162098911 5.838436131341597 1.3106357773050845 -0.1558672156156864 -1.06262433815397
Ni 3.8355172804819713 6.107571150756349 8.985662511552935 0.5166169004034973 1.2414237370857975 1.0750975309203161
Ni 1.3957171616417783 9.044410195256113 1.0238517709764534 1.0071625576412397 -0.6122429118399392 0.04899108518672208
Ni 0.7762960059558341 1.1540442959030017 12.973814556737908 -1.772740919813947 1.2668614604326116 -1.1481325444301194
Ni 2.0513365810570696 3.2312334797409665 7.976967498833016 -1.6471582141144148 2.4589706675539973 1.2425915321416534
Ni 8.270402856101146 8.950368811730755 5.526294133762459 -0.7126275210072889 -0.03393804750834155 0.5582939684273095
Ni 4.702448002827596 6.228148872804485 11.303105347481663 -0.4928287968449641 0.25270987306804865 -1.1903030071505822
Ni 0.5058009067950688 8.019490318174773 8.21166256413572 1.2199920495745828 0.7980462528934256 1.237419758132727
P 8.872681647977442 0.5301705421898549 7.353601927090187 -0.5096864918322512 0.07684564550514507 0.8023466800409924
Ni 3.6031302852917295 5.833319200884106 3.274209043019916 1.511708642923132 -0.4780778637880347 -0.44507878315419475
P 8.082255411345116 4.8552259824495065 7.827035338244886 0.740718365706234 -0.025324594807717673 -0.3722556285448815
Ni 6.546215348190309 5.274614703044516 3.704435899090976 -1.584627442570045 1.0467755440471715 -0.31739214373778246
P 6.5460397944187445 3.199920230697202 4.224807768925885 0.17418606852953228 -0.15148631293917136 1.5960791360504123
P 4.995234735108157 4.000694900179636 10.43670128645073 -0.1147583613905185 0.20238258556840633 3.003838078162756
P 6.781309567331516 1.0079743182892873 10.213270305511925 -1.0306112755824832 0.7876587390115145 0.8303621914173118
Ni 3.282689214153692 8.338693273239672 9.887578328669676 0.15772483764971548 1.0093503093211778 -0.7827034518887681
