# total energy = -340893.0922756886 ev
CRYSTAL
PRIMVEC
9.04567596662620 0.00000000000000 0.00000000000000
0.00000000000000 9.04567596662620 0.00000000000000
0.00000000000000 0.00000000000000 13.23926112809943
PRIMCOORD
 96 1
Ni 6.492551913320074 2.0453629887208518 11.426382819548563 -0.2792706542757126 -0.2536624667893051 -0.8220660128467906
Ni 4.7032539157971085 0.16737485345597833 6.0075924273938925 -0.9417786329187909 0.43864099794865097 0.12558193436858373
Ni 2.599338267473886 1.5158562630690706 4.771588569234487 0.9833492572717257 -0.20913250269773015 -0.03431831366589574
Ni 3.320441452732931 4.250146968146505 4.739735126391325 0.3585151390303374 -0.1692716619470504 0.3537262022821263
Ni 5.081978271155067 4.796551016235678 2.5077146170625757 -0.9145830463406055 -0.5968332621530883 0.8137852608952372
Ni 7.305387297100307 6.346428066075105 2.6170442733298547 0.4310894108536382 -0.6775499605778654 -0.7906072801168771
Ni 5.03117775573302 4.7379078998750765 11.474904729230794 0.2191649472330677 -0.8685320176188139 0.08448747832111901
Ni 5.412127347343438 7.954061756044477 12.63393531354184 1.1528350921121113 -0.3895182722800711 -0.6588600974778459
Ni 2.0315321503874633 6.200177579368611 0.4578966329988894 -0.5790620542125963 1.4434535673004754 0.47565228506567764
Ni 2.4616268987443184 1.5096871121577748 0.43734666666416583 0.9633157356596183 0.06741021112385809 0.3504087078731191
Ni 0.4036451922503619 0.09971591200257914 4.694350257084516 0.9453282979432623 -0.15156704557843573 0.8592788744516621
Ni 8.510045174830221 2.285371905332887 1.4005021867036647 0.4138403939652034 1.1366253151214682 0.4316170012223341
Ni 6.96658150914931 0.6481751376387397 4.715758658054844 -1.4033057914369962 0.5470700746870321 0.4058506908915075
Ni 0.74083632706695 7.430850820765514 2.4916684927201307 0.15533628281288087 -1.1517521434605777 0.09110935451301085
Ni 7.486002306258431 4.044412117227871 3.6719093777009824 0.9964991643901224 -0.7121631797763606 -0.11123954960398262
Ni 7.6712215644104695 3.893105097736313 12.661672069317948 -0.8877314733654 0.1296620179752283 -0.17021448547629395
Ni 8.055780380674271 8.76183156136382 6.795500642308643 -0.7838175108885532 0.5968098651143205 0.5533978166772728
Ni 6.799878749406982 0.74350118316441 0.28652811366705033 0.10127292530957396 -0.3781912773030261 0.43723486162974373
Ni 1.54412400001599 6.510335711988121 9.185531921481386 1.5899596534162361 0.526329499705571 0.6201570244806932
Ni 9.094251102183769 4.8931226513221775 1.5124134788508314 -0.2535781346056149 -0.35464151500754404 -0.11564487776052987
Ni 6.334144038307451 1.8803789073848962 6.913396553580316 0.8262659098607511 0.4365951711632158 0.02093623593203491
Ni 3.359364995799361 4.119726414130287 0.37122729923584363 -0.11567958765320722 -0.2340673182661969 0.2591342885371537
Ni 6.069169056423896 5.783515659608932 4.66172883636398 -0.8525981199973768 0.09786827050339919 0.4835165183051028
Ni 5.49181070566837 3.153440185688443 8.918959473247488 -0.0012750100576816752 -0.6834380439275263 0.5082135068311506
P -0.010847574446958608 5.6446645357256635 12.449790681677577 1.5995038454612451 -1.151107053677411 0.28391740901910456
P 4.103028096561003 6.116098022593694 12.78625273502283 -0.7127859009620241 0.8830515513912275 0.29093934886289247
P 2.2492706131232376 8.444301202948553 1.3572756156482269 0.5309289461507953 0.01888218161648361 -0.9381068404941585
P 6.318666886974273 7.807232346085311 5.666112737669613 0.3031975974049553 -0.9790382886011977 1.0292241654269696
P 4.576514951840857 0.9721478263751572 12.549495738869167 0.15400522270628314 0.3863185343958508 -0.9089299618198863
P 3.940712489592836 6.047522754179424 8.286095951074364 -0.7587142880630224 1.0551210877983892 -0.7671359364678143
P 4.712254363241008 0.9929076523889747 3.924686265737202 0.10194141213150831 0.6894402842575481 -0.5129895880635552
P 0.3339907747104058 5.562357931412058 3.68664387904909 -0.7845662161291198 0.25203033050252077 -0.49586141302370096
Ni 1.34071388778387 0.9812115935498174 2.743108429869709 0.2183915594021529 1.5354008443337492 -1.1844015540644828
Ni 1.8766792259732834 6.2947048917191095 5.1418642633737495 0.24954330241460893 -0.6089138474667061 -2.809257248026955
Ni 5.8278846995208164 5.535700324761635 9.258519670562123 0.5866303534781574 0.7043372559740386 0.34312477261719615
Ni 8.94642666788407 1.9748338543288104 10.187730387508179 -0.24657162138079475 1.361422778049965 0.28541816193434716
Ni 2.155720233761625 5.075257334018567 7.0619410236755265 1.8905882045424343 0.13360531889369248 1.4978177438736529
Ni 0.6873962834397468 0.008881044523035323 8.977608921581165 -0.4606033611523551 -0.42285391031772335 0.053560449724959366
Ni 1.6587236670177568 1.0737579028950754 11.504494039415455 -0.23534052855166565 0.12316535450729113 -0.3358398089200087
Ni 4.399427756253709 7.059218275252799 1.6355649277756756 -1.7660637649040873 -0.5217087131041079 -0.9579938092260727
Ni 5.619580876668446 7.746635363746939 8.150525693812105 -0.9080629858339007 1.1890475374769263 0.11305757664932788
Ni 5.402131875559008 3.0133498042174223 4.844418018988322 0.1103949422155002 -0.42622796899627885 -0.308069837895592
Ni 0.9186426538820283 7.413175570207343 6.950029731528359 -1.0329553503346276 -0.2667920621927276 0.8503802864104516
Ni 5.14101939725188 4.608066269111531 7.004826626529014 -0.5195291889542859 -0.20917903966494944 -0.3509519819710988
Ni 8.05100426383972 7.215536599150306 8.994144416985636 0.46078436681490964 1.2410876939026174 1.0414970692570515
Ni 4.673204180713056 0.24618168579366018 10.236093093295924 -0.10854014839494856 -0.26930891507731036 0.43229448690533295
Ni 8.243369605891939 7.175355707144479 4.709324468841934 0.015605824858056993 -0.5554454432349208 0.6852355021475811
Ni 7.027287039597558 6.165966833405972 7.147956355076568 0.6015977734212672 -0.5874644193436787 -1.771779327231626
Ni 2.401084190460885 5.13507638823616 2.50496111334205 -0.677271252995182 -0.5188375622039 0.7235202566603927
Ni 2.5094332954689484 5.312100264092548 11.59019186759511 -1.237867387193107 -1.0520635319189882 -1.422890655547459
Ni 0.9769329888855317 3.5077050336209705 4.189431487454852 0.3316144579847515 -0.3379064616410503 -1.6575570408502356
Ni 3.753611730869611 2.5934314411614583 2.7195688676754792 -0.52093686793509 0.447114582637301 -0.27362528306447714
Ni 1.0443142280911644 3.20549805004989 8.189952176454295 0.9697964582879557 -0.4129068264073405 0.03816648376739234
Ni 3.8342539308317827 2.624222921662998 6.938179896200211 -0.9390959438803053 0.07559557514812787 -0.46094274676964486
Ni 4.2164970540848925 6.7390194424697425 6.116975453148527 -0.22379781801938875 0.1828530001759109 -0.19505005646273504
Ni 0.9753138129132122 7.470850799254882 11.783683396287294 -0.40157648899618587 -0.5536664969576272 -0.3938423535767217
P 9.040881614827985 5.659056205960079 8.007886240894159 0.6767027820862217 -1.036457707060931 0.5432638135670643
P 8.490895479112899 1.7070094845610062 7.9726298148063774 0.12187697471317073 -1.3531823924180437 -0.2805441216714975
P 2.0017718769297463 3.2134582447741424 10.491929228895488 -1.4878254085476312 -0.7479393089347054 1.2707471686402632
P 3.811314096944619 6.172344034861196 3.7485380113004827 1.1983670151056396 0.6108619723320124 0.702152589617894
P 6.865061889387622 3.935248901395736 10.40215361005482 0.9366608520762514 0.5204483583344456 0.2578029713202399
P 6.436342083755865 7.8176439189576 10.272792304677475 -1.1197917885038975 0.40126692817556703 0.3357086826587831
P 2.431242473654814 8.22377667205929 5.689863968678101 0.8679116104259955 2.129435203585462 0.17618227302395462
P 6.724501132773805 3.927062564775908 1.5127581190996884 1.5018466625273876 -0.5893701210068236 0.2049701437899244
Ni 5.256170850478851 2.788772810559449 0.2841038725464825 0.28103725925783213 0.2352698232147303 0.1670988226654477
Ni 1.3911525761729973 0.8299507070049565 6.76824149821599 -0.24680764865100074 1.4833951406904193 0.7617049952602301
Ni 6.996631244233364 0.8145404936728696 9.190959326975195 -1.094589835316973 -0.7190411378431166 0.11661984007928947
Ni 2.6664029080257134 1.5938299886634528 9.221674823799823 0.5735987171051798 -0.3978154792918568 -0.5141383569560177
Ni 6.312542964442093 1.9032644672171222 2.5358484780073143 0.48158433427939645 0.6057537045711696 0.5709520235109522
Ni 3.943589014504555 6.894080417427851 10.438839252922635 0.6027961646047425 0.06605395420627978 -0.5298516539262165
Ni 8.160086068589447 7.342537887705427 0.17158471098400913 -1.179207411458053 -0.4256368723794992 0.8221161493584358
Ni 7.8373906292792395 3.806583208489182 8.25060162371244 -1.6291003281714396 0.4710672367981565 -0.07358111582126038
Ni 3.0713325862429435 8.326544595084554 12.4559073676691 0.2568305801046416 -0.0666908164593303 0.6049011267628873
Ni 0.38872887281821145 4.599762338706003 10.137725891558556 -1.2339749941172362 0.4080420421158714 1.0636741195747228
Ni 8.514405190576912 2.303951723473358 5.854877900744273 0.34003199262448536 0.7578341994509142 -0.10885125187746415
Ni 4.02007020358814 2.6127982330985318 11.100352239562408 -0.16774879754462077 -0.7963081871563964 0.8886704402399018
Ni 0.9980727332839159 3.4274698890708346 12.688560340701859 0.431206910268109 0.11327406353550815 -0.3952361486004548
Ni 2.977221374980304 8.525449960756815 7.94043173171436 1.38870938168006 -0.7498552950104956 0.5465913352784006
Ni 5.55314943342423 7.925956841262371 3.4039330405793518 -0.215174595126752 0.9109009695033281 2.555141238639999
Ni 3.0057966649052057 8.379606529462356 3.398107625349331 0.6070487692335094 -0.3137892568778725 1.2319361093103365
Ni 3.4212916924837162 4.275348220989423 9.415736230068855 0.34462861085623225 0.7489456387120327 -0.9471509529742977
Ni 7.15603414358652 6.10129025127142 11.421762288338167 0.21270890719507884 -0.0867204814166958 -0.5576604486083686
Ni 0.3430961519938518 9.240338766725447 0.4615709865181978 0.6115443431110178 0.029826082222497018 -0.041125566395716275
Ni 4.591476499652123 0.5638540613193483 1.502749078801523 -0.5065420326659986 -0.9547822442673104 0.15114178511555906
Ni 6.034623620455806 5.670227615601502 0.43481930483921566 0.7529401045834064 0.24707530049009063 -0.29324511417793364
Ni 8.167485431412674 8.823360248311962 11.289859148054557 -0.6259255515333542 0.39798594343145005 -0.324549323607854
Ni 0.054459491292456884 4.796641472993907 6.06483889140742 -1.0005373390152381 -0.007641318595341679 -0.9441977838832448
Ni 8.03713724280304 8.876684507288632 2.773995794534973 -0.7536196471489344 0.41898105762587845 -1.363592017787142
P 8.525612782921629 1.863201168996992 3.6409424110884756 -0.7262643950644331 -0.30325647566734865 -0.16681034489075142
P 1.7497683941763944 3.1425130092942424 1.710327438452888 -0.028723850297253755 0.02442522292189987 -0.31986091699324914
P 4.779309958117012 1.2513607020041357 8.254176474797694 -0.488595732600223 -2.1220461102102424 0.48393972188545037
P 8.418095880089282 1.7102568821814683 12.434923208894869 1.0642150796798575 0.2136064793086837 -0.5746631538139523
P 6.436966235387653 7.990868610968322 1.4984596193262496 0.2408285482494304 -0.09794694626013455 -1.5073953602597587
P 1.8352319393522325 3.091739630899663 6.137734374594762 0.09040924312219269 -0.2495078211909832 -0.04876045723315473
P 6.966898107803115 4.181056096210323 5.965835778659694 -0.19556916219099868 -0.8200842065300715 -0.19182435043658577
P 2.2907721737992266 8.330705605963141 10.281186691841233 0.40217632736371384 1.048424392504504 -0.36634286260487225
