# total energy = -340855.7433679082 ev
CRYSTAL
PRIMVEC
9.40165319981319 0.00000000000000 0.00000000000000

0.00000000000000 9.40165319981319 0.00000000000000

0.00000000000000 0.00000000000000 13.76026979159518

PRIMCOORD
 96 1
Ni 3.6803054014087575 4.217205618186378 7.404717719254914 0.4738555981765711 -1.0346473933250697 0.033834689161257855
Ni 2.822827609348189 5.862833410644178 2.014971743569027 0.059291952892097884 1.5402764272584957 1.637886816114818
Ni 0.8098452556240171 5.678025111115264 5.452121244710894 1.7873694683603991 0.6991577686556282 -1.7164772122252117
Ni 1.2968640604882937 7.9018357801274295 13.164959348585084 1.0697995157461704 -1.0717617816788636 1.4908811646548195
Ni 1.0863610424055554 -0.20785645267004088 7.521968558442731 -1.0470951321701192 1.520550152474162 0.21408933248237325
Ni 5.505288534463449 8.580653953937606 6.436861696591541 -1.0732432513203969 1.1853729168388167 0.917942963951774
Ni 5.539388331095252 0.20527475866532807 12.64285357348924 -1.6088459487977773 -0.25534859624247636 1.1868009075345947
Ni 8.589049630362256 4.1867818680070235 0.36968899178847714 -1.7417403576673745 0.17677825473674072 -0.7238773828894952
Ni 2.129145421621585 3.0032735417314846 10.67465317491164 0.06398447327176077 -0.3271152845628173 -0.9871812294233062
Ni 5.355510795246115 6.23134061460894 12.586821599966708 -0.30446258016030786 0.8886377872297534 0.2235995859656536
Ni 6.213345850133265 3.960963556647967 13.302135111677448 -0.32707003314717864 -1.1078976081694727 -0.4508881907471202
Ni 4.186321186993801 1.8484120531557269 9.379358250364302 -1.7177645635780676 2.8992229758538257 -1.1158484875854333
Ni 6.21224585669353 2.377208044761962 4.000192895337205 -0.5454446232684671 1.9540502296518218 0.2265956924795001
Ni 0.32589232991100386 5.978624173069681 2.7101544351672704 1.254581100403362 1.0563511035507485 0.8656492967543802
Ni 6.065570663075449 0.9861394178963109 8.329917500589872 0.0061984155012280336 -1.1819091266599322 -1.3709034638468904
Ni 0.8896840957114942 0.6229554300476036 3.206253356818698 -0.15509537044666838 1.9428913848215248 0.5090069492667234
Ni 5.789914187408372 6.675390103088877 10.048437251488819 -1.1957264921589985 0.4281030745318046 0.2011299441082278
Ni 8.903290491300059 6.71587362233248 0.6189738298618939 -1.791471663454231 -1.4722378385220194 -0.3399479175511113
Ni 4.051482674919543 6.119348120129191 4.035804477824645 -2.1138640886200823 0.5058339508553804 1.8357108357782643
Ni 4.250120806498467 2.970330148459403 5.273196499836566 -1.6740200715022655 -0.5316408846161553 -0.5305530508686154
Ni 3.134624040419914 8.939627881424657 12.01495851478149 -0.17137739543614355 0.356840836651708 0.7066414786271831
Ni 3.9182800505248925 1.7628099995763016 2.6903254081267027 0.03134431863923634 -2.2754201270904293 1.3596181207410585
Ni 2.433176087041843 3.268710420227686 1.5767202546983623 -0.5098564417512121 -0.564843339510053 -1.5564075284924033
Ni 6.46314777913989 3.8398514584370766 1.9021236986361505 -0.527175392645634 -1.8070371219926553 -0.985815202313715
P 8.877304321492971 0.8331369115864189 8.859590666451895 0.42065150334976587 -1.0762031052796692 1.8109523978866617
P 8.794306525886254 4.714393251293544 7.854320764357516 2.326819307498012 -3.144884426715526 0.7933318781368918
P 3.3435193757830386 8.883725650718095 3.1080869337276256 1.0334680283049877 1.1501665441410127 -2.4524783749614345
P 6.813932866575578 5.273697607959113 5.371858390058186 -0.9386380304072802 -0.03749208340818704 0.4952176087921149
P 4.21966885135912 3.7516075402716194 2.9117418653961518 0.5215158803670115 2.834805528809705 0.6087330989144678
P 5.370826088522434 4.298689747606793 9.11183044416727 -0.34919231896751474 0.6937121721600246 -0.4050073690546057
P 7.9438235639040045 7.021972651485575 3.101675006155834 -0.9847942172483686 1.417091789477495 -0.10476191229943894
P 6.193856222777948 2.3840430467336526 11.137025545568505 -0.13466769871993584 -0.4870777532937999 0.22624885066304265
Ni 4.367744891323529 4.399503676275895 11.257043291331659 1.0376458138317615 0.2517032861804052 -2.3778366790861436
Ni 0.1751866475098932 8.43304799663975 1.7282072144912852 -0.09991178329598922 1.2971907075437725 0.26320665883431443
Ni 2.902901490768943 4.178226363475747 12.844510575952773 0.07003633589279551 -0.7326659277154027 -0.82954278083981
Ni 7.838675473049277 2.906793775248007 5.408928168977276 1.5831829968140347 1.1330615090296097 -2.67642711673639
Ni 0.4637685161765314 1.5530403104533874 0.24457084909321644 -0.6091861272914864 0.4496466050305353 1.7299217677658918
Ni 7.832921661210659 0.2648840612803341 3.4446087728947417 0.08958931832405861 -3.1826801574070607 2.2512419871823295
Ni 7.279549747796998 1.5199934989946637 0.22819034849448688 -0.656450973815721 -0.29198784473206485 -0.4829565320365746
Ni 6.049766483825915 3.567335134982577 6.637899130100555 -0.18214029037960244 0.5857379235708751 1.4438297196929715
Ni 1.5020833493989683 5.154259004041153 0.41826169355813586 -2.8880129660706197 1.1131899669166634 0.32686691599743706
Ni 1.5631470877842915 7.841975453368484 3.6097036857190603 0.3318530563581188 -1.1029590332172745 0.8925420073801661
Ni 3.650614980189227 6.010392359675379 9.021783288892912 0.09035884950023149 -0.7651294475607467 -0.2221973063014883
Ni 7.440957332184871 6.014143619354477 8.604571760011858 -2.0218473918014532 0.10910759086264435 0.7497707057164894
Ni 8.283383077262389 2.015338408048939 2.3074458967147295 2.1761328647523164 3.355149243245486 -0.6728911216496154
Ni 7.560254911302863 8.57962917372452 9.528133773336542 -0.32034762682168055 -0.4699549775705842 0.7679741160983935
Ni 4.079255158859535 2.1034413014144295 11.911357936065059 0.7687930124552631 -0.5204334459361102 -1.060803225784831
Ni 9.058803239049347 8.521874817311733 5.788656246192674 1.5153207857544224 0.44080509547950536 -2.8691891484958973
Ni 7.223149229463887 2.8023790133531037 9.076357065983794 -0.4957714244130559 2.331699261298133 2.1229431681032147
Ni 7.0538066496645895 8.20667498773416 13.816962126764372 -1.2263203057854557 -0.6260523069192057 0.026414999658419026
Ni 8.408989165765533 6.260325911828639 6.496416469617228 -1.4525840688468339 1.4552988966748355 -0.4674774625643691
Ni 0.01041985238682888 6.742555514486067 9.573432819416322 0.5697374343775607 -1.315247050824851 0.049788384277036836
Ni 4.286119737103148 4.641436421444412 0.7992937800905533 2.2426205640619057 -0.0011919634255721408 0.4637714744676916
Ni 5.930130445188004 8.296150522485988 2.33404411415367 0.1221345992499316 0.3519230876351165 0.2927447775027474
Ni 2.3894960056656753 0.3019162335860999 1.0130121636125187 0.3698351920288469 -0.015428675850244397 0.7423970389602376
Ni 9.26217980390713 5.821654169054076 12.348452081410668 -0.22359804330375688 0.33901357866230003 -2.106607407057669
P 3.8633555917647606 1.2884401791036517 7.126058355513891 -0.5501039764173493 1.272802765617711 0.3063495127703756
P 5.264286552974708 8.226418459729414 8.55181532250987 -0.2651915504748272 -0.5983101038089308 1.155617797063571
P 1.3704319978039448 7.161098317478801 8.04437800694117 1.5121642424033117 -0.7318922827741717 -0.33949000407808627
P 6.595673484494704 5.844077112248686 0.5572059076420733 0.685632994696316 0.12685925841911055 0.9728943804869891
P 2.4953398188669023 2.1350684632201613 13.338917200004605 -1.12178465056421 -0.9915130240294409 0.43327304876851835
P 2.0928362364569786 0.6394656734623019 10.339921410538759 0.1323159106583076 0.5415512017513319 0.26056536455672547
P 3.1308727807408157 8.185126398299339 5.176681947235765 1.316004754926482 -2.227224284111493 0.8609194953788786
P 7.699248954149455 6.964472139712728 10.991827351688737 0.6350992476128223 -0.7615206471635659 1.079587962591502
Ni 7.790924475780754 4.692581415565453 3.54955754869885 1.2472213176041809 -0.23125196030458883 0.9083005557660034
Ni 3.225434609944754 8.356086062471583 7.328018091214681 0.4815316266645901 -0.16536898445853457 0.0986246890534495
Ni 9.100574784799308 4.297251294647139 10.254841148719208 0.3540085094092355 0.19817060436958775 -0.6897524161813282
Ni 0.44452709246915617 8.326282821412079 11.11257372558505 -0.40917358461715336 0.6626640446049684 -0.04897797256059952
Ni 0.3257428436230398 1.216075653414378 11.757077745067473 0.38966431093963216 -0.12562024380568687 -1.3049281853973462
Ni 7.318077723147738 0.4970090016938753 11.405378816928005 1.275607582056358 0.8071325314654099 0.1417498023776978
Ni 2.9493456582244466 8.085196225043358 9.73701500621967 -1.195105313635232 0.3212986778810402 -0.14911318472130447
Ni 2.450681965544302 0.7932109103853486 5.053115077340131 1.3348285725012043 0.8065463199446368 0.4828122931492265
Ni 6.655693639360278 4.62100662875599 11.125604417101917 1.109989971922127 0.799956582542261 -1.8472658876057153
Ni 4.71515478521336 9.468687119324164 10.404553076363225 1.7737513633563324 -1.6477349125534912 0.23343636955041733
Ni 1.9057057285552894 3.6701704191178606 3.7343996941797557 -0.389344208596052 0.4177417859021386 1.3975863724547157
Ni 0.6779043331063963 3.5510232664531642 12.433449608680904 3.2464167763340734 0.37727262214349866 0.40739360989859513
Ni 1.6928146905264585 2.2825898056380374 7.884758617016867 0.8282171200498512 -0.7279731502254236 0.2887562251686447
Ni 6.7624776178946115 7.536985819308455 4.935051935304507 0.7973523121501944 -0.9217484537407933 -1.37875612712209
Ni 4.559021528344221 6.428483883308221 6.444017294941821 0.0015876562020940399 -0.9667977806709479 -0.25964799494877866
Ni 8.200770749442245 1.9350670919082325 7.295557942923818 1.1979597523648917 -0.916041890274319 -0.7319817571641846
Ni 8.129882283325951 3.101031933067988 12.1257287943282 -3.2941976432627786 -1.8908741112139693 -0.7378940088835615
Ni 4.943389321478504 0.5280523208277472 4.552048322068564 -0.6227792925948887 -1.4897030851863182 -0.2637692162060038
Ni 4.478778417163508 1.8850220912269275 0.4751463970377967 0.9860396596196953 -0.1928263093385389 0.06399758589788333
Ni 5.755005848590095 5.801497024312254 2.802843455027659 1.3699693820683954 1.0284947434601128 -1.6479287737318522
Ni 0.5841604477422614 3.51788243846113 6.09908849736606 0.5183693643182299 0.33101307695532667 0.9023903609291556
Ni 7.624881876300663 8.529913230909802 7.328086723283999 -0.5371481875876297 0.15726872394890334 0.02703334996870828
Ni 4.150895757242315 8.133003632231867 0.5321636638294257 0.27975067923592467 -0.3458025765596754 -0.06926423361346136
Ni 1.6063006765739194 4.6437116215505325 8.532963127250403 -0.9749993426451338 0.8431297754956254 0.42524220804424184
P 2.338238191704662 5.252515683004203 10.916270024528231 -0.9632020928998895 -0.14650968566018638 -1.3717696685019278
P 0.5382286703933014 1.483778330363368 5.454213112577059 -1.601842520896751 -0.5448512126588423 -0.15851288076864958
P 8.901927251567054 9.063033983048332 13.341393595492011 0.47823830062529893 0.8359453419320443 -0.6589927664009683
P 0.2129324053034875 4.0341272228703815 2.0823007437341774 1.3307441180191855 -2.4398069501413526 1.7545020282084172
P 2.8830451989337154 4.793376540927893 5.4481452855171835 -0.005500875213571171 0.03657728490340152 0.5735025578469478
P 6.310521338963241 1.2397678198086837 2.364440599538364 -1.6178468667448072 -1.5912480332103562 -3.1617464925781866
P 3.251477189671828 6.313501663069192 13.358263922229288 -0.19957365536470142 1.2614397751964082 0.8794427509940467
P 6.577048809245848 1.180819453422852 5.970526529055626 -0.46307444840066697 -0.23536752513485917 0.20460350447912504
