# total energy = -340863.7214172162 ev
CRYSTAL
PRIMVEC
9.34465224702542 0.00000000000000 0.00000000000000

0.00000000000000 9.34465224702542 0.00000000000000

0.00000000000000 0.00000000000000 13.67684313545016

PRIMCOORD
 96 1
Ni 8.512772343853294 5.914940412526848 3.1257599121563464 0.034327826747592494 0.5513283357427536 -0.4458285168360257
Ni 5.89509237178564 7.220883556456261 3.582292883159985 0.42904101296504177 -0.370439144161433 0.7200196997063019
Ni 3.39329542854648 4.3535238289440015 9.101911532814649 1.4666863125761709 -1.1506781936701085 0.28163015564682464
Ni 7.096123108275531 2.5238690111444018 6.389698258228028 -0.7623197460260935 0.3302962533939602 -0.6746384433580251
Ni 5.948898877712136 3.0799505593684224 8.412598609417476 -1.131052191909065 1.5466908154252716 1.4070840275325056
Ni 3.3284341993634636 5.1188601682781325 4.040919056200361 0.6143928683034063 0.4583330770609397 -0.07979547216208838
Ni 1.1992272186635955 5.1723209220824895 13.24550214891699 -0.0989789870690747 -0.40066580425645837 -1.2271410019145381
Ni 7.420317118367215 9.126426292739549 0.32811689498017726 -0.7380264206963677 0.02510476548742773 -0.3928964447236846
Ni 9.15552553891098 3.137569683290404 10.653658270559925 0.6671290223548575 -1.5353162550397428 1.8439489074173403
Ni 5.641870993252089 1.0582257653942493 3.8745674311218106 -1.691118678855765 0.40539406297006314 -1.4779801403224353
Ni 7.046119875692572 4.795880962939912 6.850101784069242 -0.30968551912214404 2.101224288368884 0.35550617700068454
Ni 6.265953573714232 9.936261864658253 10.470320871632367 -0.7675789375425038 -3.457479406174981 -0.09183620537670635
Ni 7.016198300149564 6.076696337776525 11.094750138681844 -0.46221390017258457 -2.2799990047103638 -1.7658004839403718
Ni 1.9839817447492483 2.4050330722997946 10.010218243583932 0.9458744002547195 0.6063435156363687 -0.29042281423779015
Ni 8.707010279280203 0.8866504798758048 12.03331016013835 -0.19641068425568753 0.4587022874749004 0.1618861681162567
Ni 1.3638426074098875 2.7887712046151036 7.88335957391903 -0.07938898075228909 -0.14429185207326117 -1.8200067947794463
Ni 6.002527835251586 1.3199133985942473 12.830902369072529 0.1538722966728447 0.3967263599927361 -0.002957282856111036
Ni 0.03371737316498473 5.986931611147502 11.479658221421259 -0.6769364953635826 -1.074253437752466 -1.7791352533760652
Ni 9.281369966717879 5.756847590841462 8.005958604103789 0.9516313573431547 -0.8528099788978668 -0.19135460988901884
Ni 4.274187733890867 6.671660982763337 1.996900726069738 -1.4783223541532025 1.1950276663197612 -0.6332570521977611
Ni 4.055625669438832 8.453779556094704 11.920148293957615 0.9014272256849378 0.5760512924107305 -0.6194859665555977
Ni 5.584962062878286 0.6010835230834889 6.293153052144287 0.36307447626624567 -1.4147418011880797 0.24897585994691315
Ni 2.988905615422287 8.435893892262936 7.629613025945905 0.4669838107574022 1.5661154998087865 -0.357302606779475
Ni 1.9950645019616178 -0.35454543962437934 9.82817881681219 0.5214572592149342 1.0045302622247152 -0.7403972349213894
P 5.021563652177633 2.6052048617147765 6.385690337006793 -2.1084282623164916 1.6594452590118842 -0.8675040905749318
P 4.28143918380385 8.756976133255364 3.2927544492890375 0.6545378159534082 0.5539868564115232 -2.552443122982546
P 6.084751427757184 1.6603390691225974 1.4915690481194592 0.25716070975055066 -0.3578214553974225 -0.149330185828117
P 1.3868211065542524 4.376016406186981 3.416775735500545 -0.8417439508916923 -0.016924800779796658 0.20430319962988686
P 0.09399224717107765 1.1911440947270864 9.26591017453226 2.1269003529787502 -0.3138669041933433 1.296930254793534
P 5.021993506167321 4.811299638656952 2.607476546603754 0.07831374541023933 -1.0158096917932764 0.2382548739849832
P 7.3851251591245655 5.936208840364414 4.867054504514965 -1.9070396652302382 -1.5308898438372731 0.7840558521516046
P 8.613049803925755 4.129326939366285 13.028806211459315 -0.18813918827551468 0.8472183437427022 -0.7934483491100981
Ni 4.784994443418487 9.229479114441075 0.6539920079576164 1.6844294397610473 -1.2513949893658964 1.1467472340468186
Ni 0.8395665165619386 2.6384064100921365 -0.5810373757209466 0.3713215467663863 -0.10020463194605969 0.32466116659536987
Ni 4.379473927408378 2.99450306194017 0.7430652303423607 1.4509475616846752 1.069792830877951 -2.001271624532631
Ni 5.428691448323096 8.507660819236797 8.446052463397479 -0.21177636807848046 0.24039043227074733 -0.44021939817936445
Ni 7.621563542756415 -0.37743890243600176 2.8296568602907195 -0.28986771306526854 0.3153013226470247 0.41241163193847685
Ni 4.4917779545401295 6.455332290127286 6.662934012307491 0.02615943200418721 -0.9850161034511875 2.673632584710389
Ni 9.420156737475141 5.06258667423691 5.436996040510813 0.15086307753287567 0.5323456239926638 -0.7645609766517865
Ni 3.6208937714338942 2.8141980025702953 4.438340562365648 1.0072954836746781 0.5715922281981123 0.7994243641878748
Ni 8.577072893919327 7.564981675200853 5.340561101320078 1.277227634158284 1.3000939972334964 0.18134093440675866
Ni 9.067227922638063 1.4786790352200134 6.536778407590669 2.057521705274611 -1.886548744365738 -0.836622827615043
Ni 5.492711658830636 4.437578973231745 4.844323638647269 0.9675842811279851 0.16814320476956202 -0.08031946298635845
Ni 7.719149743067355 4.369204154915633 9.666136010747657 -1.8539962643510135 0.9779545686187159 -1.7888992747413641
Ni 2.784229703767539 0.6847088133815457 4.183924002847728 0.18543181664668065 0.5213405311314119 1.41783329562921
Ni 0.20852964611881275 8.413317213152409 8.186246843100154 -0.32520572624493027 0.35812304579824134 -0.15293281557771082
Ni 3.704790056638493 4.339366681240173 6.664028271050804 -0.8582116095294122 -1.3194952845782437 -0.3204792673035384
Ni 8.207108778577908 8.128183848210561 11.0396325780868 0.19962662008982396 0.2644636711698671 -0.37838205315759355
Ni 0.1250753629514359 0.6734999033678548 1.071487695441294 1.5115376645629064 -0.008165052309295614 0.7637487651631363
Ni 2.395996793864414 6.2667011458702095 8.332944796198051 -1.2533868229849445 0.05297500953513457 -0.6734567643450982
Ni 2.351422804064243 4.060783917315079 1.2461915704325053 0.22448944476977467 -0.41367455781130047 1.8019224264739095
Ni 8.942345993981986 2.4348892352791545 2.5735853629125045 1.325924328033039 0.5240345330238072 -0.22154656009136683
Ni 6.550956113528786 4.42031940108061 -0.25487164406787105 -0.6267123091007077 -0.049591437774882334 -0.13734113178704088
Ni 7.853058605506863 3.2344456900531657 4.326833634045206 0.11178848012891716 1.070854439373246 0.9036458306028116
Ni 3.7370010719091824 7.622899827985226 4.888500480739576 0.8713077805917381 0.19001069426661468 -0.8586402124263988
Ni 1.2832823629513395 2.889263591682407 5.222461521049109 0.16540292302026355 -0.14744505299026217 -0.46830072979661286
P 1.7866787634828307 1.6105974867942305 2.3759142023592674 -0.4890857848627642 1.3704090407089755 -0.5185208022944295
P 1.0808865463723236 4.406947204140558 9.307939615606521 0.7086595374984762 0.5072611702202103 1.1407840744848483
P 6.1585928674638835 7.696516996045131 11.88554598225299 -0.31591658763352043 2.4926372065685074 0.15349280184623887
P 9.510612968348443 7.962409722622503 3.2214295243523994 -1.4946288046227096 0.7461917301159795 -0.7683623526757477
P 7.3570818586234505 8.788775983840265 7.448094096287763 0.4226199399300463 0.2736530509786191 -0.9169037240539821
P 2.1586519789934404 1.0018401355296305 6.602851638131563 -0.10165524834965718 0.9853482899796255 -0.26532139118447207
P 8.88791339637486 3.7010335065547046 6.9749435307219345 0.7045776541196189 -0.3804438207826286 -0.3135612000274664
P 4.0362074826873116 0.42030375539456877 9.727846223293227 0.66474663816561 -0.6827070792987726 0.04021796697978235
Ni 7.44900519985286 6.957803570115756 8.491691743519917 -1.5014936500633431 -0.6737275015079817 0.8449452314378093
Ni 5.166443136006114 6.570663984490747 13.370686844296237 -0.38798563768562855 -0.003782606970883808 0.5495419332662923
Ni 1.7351430079801171 7.548712636156387 12.29206263816094 0.009870722146492678 0.7408194100604725 0.03656237250506607
Ni 3.4792381925280673 4.654599170112075 12.842404701157443 -0.33711764719116777 -1.6172385437368473 0.4834103317445417
Ni 3.946433411406338 7.251861077669587 9.84952854312172 0.21213452274884756 0.12699681243823935 -0.33648027071748504
Ni 1.5168706277385249 6.638113682263837 3.9215196348431864 0.794921848331831 -1.137946347925737 0.9233690200633518
Ni 7.989228873718204 2.342059462810622 14.194373993800014 -1.3673291162320709 0.49852353323689624 -0.9963240722648389
Ni 0.880773628264625 6.632179828275763 1.2896180369732504 0.32126679620184023 2.2504449452023305 0.4976413877422591
Ni 6.736793206852895 7.194699841693143 1.3999615561259506 -0.3439637235787238 -0.706041383149339 0.4146919433322213
Ni 2.3235850859060228 5.633423427889541 10.863940038919312 0.0020465981163835722 -0.30444355399691436 -0.002819471726666112
Ni 3.964113492895211 1.6134849842466945 2.321096605091812 -0.8455697523956857 -1.722986474098639 0.6998933612700721
Ni 6.951664133784788 3.7804256695195377 2.2835946478871905 -1.167036580423474 0.5431954222229742 -0.7731844566547394
Ni 4.6997525283331285 5.4481002904226665 11.266695472417497 1.2520799312480628 0.6714893562060822 -2.2309205020161578
Ni 7.859655929783367 6.566066415731485 13.143637032478273 0.7936944036826331 0.5104722209583402 1.4493804743078718
Ni 1.948201072433765 8.824425831028453 2.3160224590831135 1.2075047157408494 -1.470197925273855 -0.7759777031291604
Ni 1.8079565359723464 0.9372405566012064 11.592436956872055 -0.6838941576283384 -0.9897744440717793 2.2906644548440096
Ni 7.592651189623978 1.5092734257034013 8.341260601968107 -0.6064255338272138 -1.7592104894276797 1.759538047970428
Ni 1.5108152932751053 8.64877440832954 5.491389390579751 -1.329067758758027 -0.37316477062271214 0.7158694249833543
Ni 3.8024416695130814 2.003072868682529 8.131826393540562 -0.8497470237018269 -0.9475957538212002 -0.2505403762205556
Ni 6.22346344129885 7.496111590331405 5.912389322544574 0.8251251113880885 0.8984941111985429 0.6495015390810814
Ni 2.7470192997037484 0.07537863495242761 13.594932326064091 -2.0966600660369696 0.8496107552342788 0.7175673815110674
Ni 0.32570036798597934 0.6983641532756735 3.7844233116236285 -0.6496123536273328 -0.34596481316915256 1.7958967891051203
Ni 4.950282647105159 3.1196466408508385 11.793718890938663 -0.5894922484069848 0.4818321886241444 -0.2099755674243158
Ni 9.349698061774241 4.519213852664511 1.5117292002357883 -0.8303069126993442 -1.4129317445625342 -0.18276198312400135
P 2.9347813913295004 2.5056469398424452 12.485206314844536 0.7329454066290345 0.2133560538607745 0.7046275335209478
P 6.609575115209387 2.4962742539368743 10.637273357831283 1.6550234757951046 3.1815542713327334 -0.38884310058991745
P 1.056226009877009 7.20418466342211 9.954169955654699 -1.3291508053901366 -1.3400363419543888 -0.3782146743417938
P 2.391473982320749 6.846574177958222 6.214948594442263 -1.5441425950821213 -2.088626911319848 0.864675105766569
P 2.9772995577007326 6.418252711190792 0.1091539449595006 -0.23406166183924207 1.4245191922898175 1.1824621709499248
P 5.621667855736792 5.419262694505826 8.725743503043809 -0.09827913278857267 0.11907395804673687 0.3578227409490031
P 0.04731290728663438 8.455489627401501 13.39023118384908 -0.01071070154928478 -1.0305919923087734 -1.252257594476508
P 7.4215506124245785 1.1187791100284439 4.735018310326182 3.5309880168870933 -0.260882381576512 0.3963849174929173
