# total energy = -340851.44049245893 ev
CRYSTAL
PRIMVEC
9.41060797602412 0.00000000000000 0.00000000000000
0.00000000000000 9.41060797602412 0.00000000000000
0.00000000000000 0.00000000000000 13.77337601173892
PRIMCOORD
 96 1
Ni 8.798579761496358 6.023118534670128 9.044287914964023 2.06706461176804 -0.9070754251096507 0.7633702987777949
Ni 3.574384209349616 8.848296003918511 12.161657236230933 -0.8272262168914915 2.142119998141982 2.5867154139018544
Ni 4.3758292348351695 7.712078007029275 7.421301510464141 -0.5496162381476535 1.5097204088485094 0.8113314000381059
Ni 6.770320815252922 4.8105052214865465 9.871337322880429 -0.09624667573957618 -0.8518902952970747 0.058199234048551374
Ni 3.644370901549795 8.244266714479124 5.030175163491433 -2.3375112399942197 -1.869073727509426 0.07177980094646348
Ni 6.252558569970998 2.5407136085751243 8.956137808132194 0.2578574787072591 -0.8380513325314535 1.4959030433494431
Ni 1.7282487610421842 5.683028569708143 5.182425627177034 -0.6324618099899753 -0.8898181806910997 -2.1473933307257793
Ni 1.568174317809019 4.405472650248719 8.46448341281275 0.30524959483797753 -0.15567926797459639 -0.9197057122791515
Ni 4.263993568557513 1.8893489605547387 10.551080600590051 1.3130700977781902 0.9601553356537658 0.8876476554023421
Ni 5.220657163513252 3.7144234680064487 1.5321232193621095 1.5954253045164974 0.44178494289427134 -1.419163327294543
Ni 0.2922897223424349 8.307402484005951 3.839714421699436 0.1015914849912573 0.5794266366408667 -0.1652957080184379
Ni 8.57791982352274 8.265497046280068 12.757369430260004 -0.3462391498764618 -0.5229312726572994 0.19010916751769194
Ni 2.390906138743922 4.1121345861675325 1.5027715327986617 2.1547135185362762 0.8487306666221704 -0.6051613224028094
Ni 6.422740006268973 5.530172062862976 12.57815004597372 3.0768049574387852 0.28911592250090856 -0.6923782838399495
Ni 4.993334515027636 6.014921895043079 5.9952066711410525 -1.9017113110387893 0.09163771621265508 -0.07437430114651707
Ni 5.870233796000757 7.723841267114016 13.028760074205483 2.209509897550866 0.4758399755964515 -1.0308653005748183
Ni 6.08699774223431 9.240163134469494 9.177021718577828 -0.5383769177884082 -0.10144621766264465 2.1113377226538024
Ni 7.213607508286327 0.2210834153366696 0.9335012653184783 0.40832872011835486 -2.4441210041356745 2.4169822389373534
Ni 2.9052805651214393 0.6404652817562675 6.502066726976437 1.2409079737916433 0.27670263643822024 0.15272044245658858
Ni 2.6043387297214755 6.310320882291113 13.66920841686723 0.12151573471901007 -0.05077028857433192 -0.34310857466728006
Ni 8.327776450472724 6.094686209025697 3.7590711569232873 0.07913855530437984 0.5464211282491235 0.18694362530551675
Ni 0.05592253844286208 6.053194838054796 13.763982650717976 0.9577256431663506 -1.5176442916812765 -1.8952506430151104
Ni 6.970023329059564 2.0055982020161904 3.060361739713833 -1.0205754886130358 -3.153332814593195 0.22348028677896997
Ni 0.18288011082465563 3.452733278857251 10.695880685868381 -0.7855794878849826 0.4329706870367511 -0.5124175176101691
P 7.311609580704328 3.4422875039020004 0.7947898434600108 -0.14244657133440627 1.1167455454784059 0.07036415154585947
P 3.1142054748345203 3.3072735099533688 6.283111050123896 -1.336689022748711 0.46009479694705274 -0.8168487303119093
P 2.5542460629766115 6.610349888708501 6.686244560653642 1.1535650282996006 1.5988901231366464 1.9100907933517361
P 2.3880641351074483 1.2465291446599094 11.494089403239421 -0.057748519664377954 0.16514889802792848 0.06684791086248487
P 6.374745905123227 5.4953998660524785 4.677383700820347 1.7195221696991227 -1.3843973845682676 -1.5090305818703365
P 1.3884693461464368 0.10548915219673653 8.273074467896254 0.5167832507780326 0.7208303685330553 -1.2447741416152691
P 1.6403536816889939 2.6780990757568395 0.05872972282948485 0.2582536857044133 0.28116144354052225 -1.6988101339627517
P 3.8980714844494364 5.112162263099662 12.078782716281912 -2.609670222925815 -1.2523630097061207 2.542691700022737
Ni 7.315364413323377 3.517393566891059 5.068436813773467 -2.0677276992733358 0.6595956900922899 -0.18084291172441758
Ni 7.640463279633368 3.9470725206584367 2.807867596768483 0.7841463549828818 3.527794706760776 -0.26648198715147653
Ni 5.13536882259484 0.49073215572880036 5.182673126169218 0.4697811709968812 -0.2444900562614176 0.9156829642730036
Ni 6.911790486336059 6.325867206819108 7.294297826102815 0.17005533419061036 0.34834308359334204 0.4764500983766246
Ni 8.841172173611191 8.187718370599756 8.242910645856556 0.3191098977598375 0.8795443095689175 -0.7360106758179195
Ni 2.1085220224536463 3.294832686087746 4.075280762852439 0.05718621940300474 -0.1477561564727778 1.4230631765695814
Ni 9.232070011531192 0.7884809718113621 0.20846284885695188 0.7366040864275443 0.8902382989476538 0.8953949034479288
Ni 7.347548692915232 7.2215030084552065 10.202779880088919 -1.5647960096664149 1.7173251620478036 1.5122100080395826
Ni 7.293108325243046 0.37286240755807487 5.312005936027322 3.967440748935174 0.9146951464384376 -3.640668963754704
Ni 1.2109946885959215 2.1393888169160085 6.630310729481098 0.09583067124808012 0.7735670368051387 0.16562043834770832
Ni -0.14446789081353664 2.259505818293323 4.161818832522254 -0.09650995670329185 -3.8078184371524286 -0.5822497079119585
Ni 1.5118612391313433 8.32915980985869 0.6178299461708041 -1.6691020653753577 -0.5833511685062535 -0.4409832729285824
Ni 1.6875667023651135 1.1705196632963424 1.5540772269234646 -0.2421632079004539 1.0567866484262702 0.8710887226023967
Ni 7.514577575510494 8.214604477849441 3.0163831450306144 0.7730867547346105 0.3275570000859262 -0.856845325309505
Ni 8.835299954176888 3.154831069863184 13.124030247101404 0.7545208188069651 0.03555347162457748 0.22319823676217687
Ni 5.560831823947846 0.004098319813524012 2.655892863899268 -0.8990399563996839 0.5518865222390689 3.0638797647366847
Ni 4.927074423622302 5.935326972005683 0.38760506615707996 -2.2291664954395287 -2.3095805750222222 0.029374596507375214
Ni 9.142170472659561 5.934329447550498 6.816526900865787 1.4740337540801776 0.020948320116892953 -1.640822501704374
Ni 8.564942594997252 3.99162233925137 8.296778848558219 -0.511875271953454 -2.141870858245653 -1.0993810860580293
Ni 6.543054630415711 8.840419324965767 7.007039955894229 -0.17787585867629363 -1.7495842791918255 1.3498245316894044
Ni 2.1368479527377042 2.1914388901389734 9.482267025047193 -2.7453604493729946 -0.044720482835826206 1.7662113462255453
Ni 5.44426262181209 7.266542178667665 3.8448102659681465 0.2978808131777322 -0.054031218713790824 -0.1806066273438954
Ni 1.8720428523180668 5.717546680100809 10.324674545330238 -0.3724880562706617 -2.2568878726141968 0.7457662125427865
Ni 7.079939231291391 5.8182213652100625 1.0598847906081363 0.515012532030855 -0.8360196468134053 0.9765281205848343
P 8.165405818871017 -0.18180071407927972 10.033229895592292 0.7901763632270455 1.396925341831949 0.9305853353061329
P 8.592892100958599 2.369939303968878 6.698571516161644 1.5301491090165067 0.6571351443669392 -0.31916491936748903
P 5.460025390325644 8.788538642688023 11.364756593381319 1.2047572349026994 1.4052976250560443 -2.036593439762376
P 3.6120078204046537 0.6962212524363295 3.773753587630659 -0.5860030043068036 0.34079920980781303 -0.5246788514760254
P 8.224786755778792 7.806155855883005 6.107514749943713 1.1329782052871844 0.3529805823653534 -1.355998007489968
P 5.409085768854679 1.3414821800639445 1.1403718392903597 -0.9389072249082667 2.4280886332631604 -1.821929979944088
P 7.521023842036934 2.8122849361955056 11.488331993223547 -0.2177153592707347 -0.5246744806006512 -1.1787353569176409
P 3.9833786465839833 4.030365812666476 9.581173456900508 -0.33082744330708186 -0.7840471104008562 1.9138536028282782
Ni 3.7609495142936193 2.5021018836729683 8.149279800886047 2.5293764709710693 -0.6235171992021777 -2.336170666805925
Ni 0.27298950625619745 3.067481805777926 1.7254462819595953 -1.5915614506857172 -0.3042322093170567 0.5281027895559098
Ni 6.5757376722351575 1.0454150396430972 12.858507117286193 -0.7714199085551487 1.1923370068614754 -2.7995281936646497
Ni -0.09690479551729542 4.2395918618377255 4.779706183402271 1.7938072535659428 2.6716158113906765 1.4668171817270803
Ni 1.4445001065820784 4.504688691107464 12.479229498208301 0.9981045612040295 -0.3212989349913563 0.3444851432998325
Ni 0.01959570917956613 0.9862599573289482 11.795822670777888 0.3160135182227009 0.2003313594663324 -2.617593334427634
Ni 4.904855977974242 8.004832613410258 1.1062847347471985 0.31363833312230505 0.7341664235203292 1.0246951672083644
Ni 3.5474981020999303 0.2116596324175813 0.7111276556157142 0.013091543076635518 1.476560377156773 -0.6841911200434669
Ni 3.9285712651971547 2.7044770101708644 2.9165403576745543 -0.4443329061271057 -1.9988285623087771 -0.07287226267969385
Ni 0.9110052067324182 8.954334735626405 6.086400168622005 -0.9134165368363302 -0.9114653266472302 0.34765582771833026
Ni 3.9205534271233944 5.124010218657014 3.9891002962892017 0.33987978331733726 -0.06896932808086187 -0.8359494556971023
Ni 4.241304592506063 2.417820477817811 13.232000035584809 -1.840980825927952 -1.3417291562757796 1.297869992998984
Ni 6.665317250432484 2.2148901254439144 6.6874698218240685 -3.3275312244179016 -3.0975984971453685 1.0572216790811597
Ni 9.303562401022218 1.4825754268243703 8.900121163608656 -1.282355956523785 0.2946324814437635 -0.15619734526159548
Ni 5.072712994079472 6.196339597374 10.858957113075174 0.41327655104193334 1.2956089648789493 0.020122224671171796
Ni 5.566760507030556 3.6180682520003127 12.001555502234373 0.21227104832671181 -0.7411071165042205 -2.007599880743504
Ni 5.926029291234704 4.166866682689818 7.411371436831005 -0.4032736741929506 1.4238283368703801 -0.24081620695425623
Ni 4.744630965011993 2.706547343945779 5.0907634814143075 0.41127726122371744 1.4601559676568208 0.03294457324682068
Ni 3.282824750193242 0.06430456704884564 9.494814188783982 0.042844605969352016 -0.4642463572215811 -1.1723137696620132
Ni 0.4509883346760886 7.626949646448016 10.503852522941026 -1.2006360136454741 0.5271165143832406 1.3586801823078214
Ni 1.8278600474397768 7.471721666369764 8.708781857191859 0.44382896990749365 -0.8467534882911416 -2.382309627255833
Ni 3.1332431349556664 7.470611214617764 10.607028547674696 0.11327766307993394 -1.1044878111569751 -0.37939069692776595
Ni 4.030695183948848 5.492680200320887 8.086211787737309 -1.1648076910929552 -0.2960337326666644 0.5682801331057439
Ni 2.3356846906021103 8.788444536607345 2.6545706734657433 1.2518392759921666 -1.818454619800978 2.3211718794042473
P 8.422654201012216 5.648237551681512 11.2197918224618 1.1367551558311133 -0.71604503132927 0.9183126885863669
P 8.93504298908743 0.8418494712246251 2.4260152353232454 -0.13296717108906134 -0.3936893729386252 0.9221585446950181
P 1.0136354161981591 4.702283228706921 2.931856122304888 -1.5339787671752418 1.4953700536641086 1.1685771854377163
P 8.597879723234529 7.278587756994441 1.2457179502444657 -0.8272722396380785 2.550557475924059 1.8388617227024202
P 1.4323886539988286 8.209729782870324 12.297504068993566 0.010587288597543055 -0.35569592441398745 -0.29309727574615974
P 4.0745580281528335 6.625021026686192 2.308886102007455 -1.6224509411757218 -1.7657457194430366 0.8611830334529104
P 4.770190176524118 0.47033560380266504 7.527494576144348 -0.14453404999105432 1.5587600878849799 0.42217076820776966
P 5.625717966575281 6.7801360794676295 8.995874100698453 0.0835287139522755 0.4897249611086598 -2.389956345167813
