# total energy = -340896.26599027414 ev
CRYSTAL
PRIMVEC
9.02048572280426 0.00000000000000 0.00000000000000
0.00000000000000 9.02048572280426 0.00000000000000
0.00000000000000 0.00000000000000 13.20239266000141
PRIMCOORD
 96 1
Ni 6.32705903584015 1.9192978117146098 11.500881419337684 -0.004857328092301313 0.7182813768589565 -0.20653594561514751
Ni 4.605336927440302 0.3674413759025624 6.094475728681428 -0.5280045734151487 -0.4875063561907862 -0.9736579981258908
Ni 2.5700897895873567 1.5367841058723755 4.69232868964762 1.2845853600749362 0.45337727571756115 0.8760000438610849
Ni 3.404268246407695 4.32857037815009 4.805010795782274 -0.30688841599298117 0.004816961772669124 0.06391813881019959
Ni 4.998115946270355 4.6036320555996175 2.771987207710962 -0.27839725053182374 -0.8455990629717243 -0.9794512077689002
Ni 7.130441553697032 5.883106800331805 2.414030872763313 -0.006765857968923832 0.35895993987723984 1.0599429346670648
Ni 4.901885402374 4.48815179472962 11.265773278167284 0.23509730219260802 0.2607890505317573 0.49104367992008335
Ni 5.7012718449640944 7.77746296845123 12.358416620375385 -0.23268303632416054 0.15215505687142183 0.20014418315619079
Ni 1.9754683775978688 6.418680111426509 0.48057089813932213 -0.8174444549143793 -0.160797048817136 -1.2166688987386207
Ni 2.7414248993330803 1.494712559496991 0.5126711993681907 0.19981816727533977 -0.7288858918476802 -0.07937792500869555
Ni 0.6065690456031666 0.1308502668453453 4.704224004442907 -1.3250074726457244 -0.4534868047122319 0.5897164486026489
Ni 8.655129187937892 2.48767863013506 1.584471806787493 -0.23931339715648461 0.36311972768188433 -0.9126827439940992
Ni 6.757047559129565 0.8242883960471886 4.980206673505842 0.8325358020298629 -0.38426396585966727 -0.5664538785302826
Ni 0.41361543927870265 7.289977867846915 2.2415420428672013 0.6527755818466628 -0.28403233733041405 0.6378690970484756
Ni 7.468177567385019 3.78678195224993 3.8497124702887877 0.6564394038514952 0.2469634575025747 0.31122972368081236
Ni 7.562685198468832 3.987433641266665 12.500632699491955 0.7669724143067564 -1.2212392917181227 -0.12248684038302776
Ni 7.993341237717033 8.73297598150984 6.870776041632046 -0.6321810455247628 0.7386316583805344 0.5603354243373705
Ni 6.941417271043476 0.6609409265920749 0.4648878813022201 -0.5102608762784825 -0.1455820316395944 0.2212925350990318
Ni 2.083172979596602 6.6272427666034535 9.17936014002479 -1.0580032944421907 -0.36133821030142926 -0.004513314489321259
Ni -0.07994044835619536 5.046429668908982 1.2270648194329534 0.89572091932878 -1.1749172687231313 -0.14024210748391974
Ni 6.41472011810344 2.0242601859907623 7.069762548946188 -0.2692803758322201 -0.15546920884631935 0.14967677053425835
Ni 3.2535810289546943 4.337464577276618 0.4080055990791204 0.801832202298419 0.01573977933275999 -0.1857560327553188
Ni 6.005550876339409 5.620475352493186 4.631201366746077 0.5968941972980107 0.6896362023184381 1.4910290030865934
Ni 5.261929077765744 2.918253485009895 9.210860578939345 -0.15444770956034046 -0.2394288396884264 0.16559344176451482
P 0.17605101978968798 5.651541906034528 12.299282824864273 1.0170469066344872 -0.12374848070427076 -0.2735692330155611
P 4.026465283883794 6.143374880856883 12.564571707857734 0.14145926772047251 0.07653917000831979 0.003236247549110556
P 2.2818311412229084 8.295987561139102 1.5143808270177646 -0.11523350125472412 1.281869760915986 -0.10006065016902767
P 6.527521294652365 7.605144625739187 5.749443945973628 -0.9404966808825739 0.38925833375046515 -0.13177212233969565
P 4.811346785099184 0.8869789691603205 12.717086475760063 -0.31780711978801396 0.2304034962613645 -0.44346078793479754
P 4.033113382013867 6.072031857640135 8.151646255537532 -0.6734539361316209 0.8499162022898394 0.26299171461003096
P 4.603298297620225 1.0513646965459247 3.8661622284299004 0.422413223235879 0.5942745002869765 0.014114842134827305
P 0.25100494352403246 5.405336763073605 3.5044299180721454 -0.528037226425297 -0.19355624552602793 -0.4858148274209762
Ni 1.3185695307508218 0.9649033389112632 2.611129392372402 0.2634280308165012 0.43578270256424945 -0.9084627923754807
Ni 1.8937608160480761 6.519718574323311 4.5784712141963455 0.0704130025059239 0.09754328306381266 0.6325137462738333
Ni 6.006958072144418 5.510389342209052 9.074611551265168 -0.03802301621099258 0.2975748519015391 -0.7003373907860261
Ni 8.436319260744988 2.2989971259468267 10.202386980023059 0.8619052563309156 0.25004003954536935 0.4462123825380057
Ni 2.2961015499634443 5.275739441723873 6.975642798757344 0.09088438298639831 -0.16798868146956875 -0.11337819321354022
Ni 0.7932470998664483 9.0154976008231 9.135356405563298 -0.29806978926008665 0.3964823623027301 -0.6687971540858998
Ni 1.472964167920865 0.9127559097525801 11.578352960694964 -0.4356153237484498 1.6206974488197248 -0.4145718728145893
Ni 3.9726310238562865 6.904451319704212 1.7324970788426866 1.2896614890462628 0.12239325222795695 -0.43280613643442883
Ni 5.57663579087561 7.674683551770027 7.897011468475452 0.5454970737729573 0.6626306202638717 0.08479369670762815
Ni 5.226009502794307 2.7694515491161678 5.026930084475091 -0.17587656885807776 0.516884038021955 -0.7547203364122809
Ni 0.7379046145915213 7.395418327877332 6.791205433198962 1.1727940517325415 -0.9579066488289051 0.1417307762143043
Ni 4.889238681100782 4.744378697558264 6.715502809132466 0.4665901748634093 -0.47121738922277556 0.6994930405078599
Ni 8.296718220499393 7.172756653192513 9.130589980798128 -0.2769497194520198 0.2417052944274289 -0.3706741429903745
Ni 4.686665628581053 0.2234058647740053 10.448584906595238 -0.6085168691386036 0.27512449331782296 -0.17862764924065364
Ni 8.293164149043154 7.120952002499154 4.423646299847464 -0.5538973820215106 0.07100332779175514 0.7987839023903985
Ni 7.489465914178739 6.013046900146859 6.943164539168028 -0.8260159986334743 -0.3582536578388346 -0.46659814528320925
Ni 2.3495208676381925 5.055549380183749 2.725370238475681 -0.25065119076680703 -0.04767725147130499 -1.2877077077540018
Ni 2.4034814144687133 5.138564912193326 11.322715095597518 -0.34500604880030905 0.5181140537743142 0.46484233893436716
Ni 1.1034760437608895 3.218356031399832 3.935685819634661 -0.5993503721479871 0.6272861793263067 -1.0129891916253457
Ni 3.5445277821261465 2.672769980923335 2.697499643099175 -0.06477097372879813 -0.05980231686961314 -0.27967740279582803
Ni 1.099173271972498 3.3518411821851966 8.264156972439524 0.005218053865829723 -0.2781769069909016 -0.18342481351898088
Ni 3.787395345293139 2.707129011828961 7.092114411031 -0.3614554526055839 -0.38993247699935424 -0.14879925302531147
Ni 4.116516794918413 6.872185041534241 6.036595780714521 -0.10656065607107455 0.8397585450305474 -1.0962070592054218
Ni 0.6556044071161576 7.633640340790611 11.257496080278337 0.8308175337871756 -1.9874213489130999 0.501228333762569
P 0.26729774520997146 5.511985968218582 7.9901146099000355 1.0379636021824963 0.20635751105575428 -0.05723738435591432
P 8.531701878963966 1.468174289892278 8.039518007238952 0.3751555758004958 1.2234216440814218 0.11190597954338792
P 1.8824310857205713 3.1253367804943935 10.473669975916701 -1.2886816416314966 0.3864951691830311 -0.37216204038981066
P 4.079956765445979 6.299167693346005 3.8267796889101127 -0.9886884100964521 -0.4892225675509445 0.10651746153796493
P 6.8224190206609565 4.0281070123229705 10.38380067869786 0.7620217551697006 -1.0601900176808645 -0.04532392074778001
P 6.363375512192486 7.7270023701613715 10.00765182772751 -0.09584326965357041 0.19700255220341556 0.6285547616260851
P 2.368707441210329 8.405451157894095 5.67581422957374 -0.036279294047008484 0.5308145320601181 2.4441891383694485
P 6.672336175765234 3.744557057613743 1.505746417886007 1.2431252931579364 1.167802769165537 0.4282951359379527
Ni 5.08073457689903 2.88209035691836 0.45316936803115193 0.0984573102376498 -0.7086191711788441 -0.11713071827743697
Ni 1.6311474091813158 1.2523952459717005 6.962361035274688 -0.46607261179704246 -1.12051683959538 0.561340211452801
Ni 6.734324955073047 0.8085287050796856 9.107604880601063 0.05282408577956709 -1.2124561462088537 0.8019587005739542
Ni 2.8683792183054564 1.7093911041341645 9.200576322931074 0.1342439809189559 -1.3742890924896718 0.12648156336471766
Ni 6.374109890448642 1.8930662386315014 2.6926412093775234 -0.22269172943940357 1.0059448831840545 -0.058466371667008986
Ni 4.26709576654026 6.756804006009467 10.302302392421632 0.017561920143163302 0.6083664596036684 0.540509904971011
Ni 8.061770643978539 7.1738391115040585 0.194076656822692 -1.1416808752675047 -0.2559684892146624 -0.1872048493867034
Ni 7.730547421131681 3.787837349103686 8.305955198091246 -0.4016338245966825 -0.07881408208542556 -0.5589364871073147
Ni 3.1920252329714986 8.294183463953193 12.424758686192796 0.2327789384720765 -0.20053421950575787 0.6175846357678266
Ni 0.2737915930306488 4.968213035413922 10.095143324855325 -0.2198835705666471 -0.8205814578814642 0.7758296075870702
Ni 8.629718479074372 2.3585864559973824 5.96600326192711 -0.1271212538312456 0.576887929379413 -0.40492355109154776
Ni 3.608897969719359 2.5513903222554157 11.563395190926597 0.4402078282151386 -0.5698595617777219 0.2853495134799408
Ni 1.0993446612051592 3.2824916863588767 12.586290331830293 -0.793418267203111 0.1417711425339365 -0.5019585270603742
Ni 3.0788000935838857 8.376098496679363 7.844148714782556 0.09811818173067618 0.22164297645991504 0.21588216271673788
Ni 5.611346620732489 8.06095880024488 3.7519881339225 -0.2711804210684104 -0.8694002791563801 -0.3023295929777051
Ni 3.0398586558260523 8.46858553891496 3.7152323599053947 1.2671604797302694 -0.9102304257988647 -2.015754134419522
Ni 3.2025250785934856 4.300417441563988 9.084553028808116 0.7345351197136575 -0.31836376362243235 0.3757803538686883
Ni 7.281994737799269 6.110441086728125 11.171191679098849 -0.10355246537237005 -0.183774997769548 0.5657496533744063
Ni 0.4379969106976621 8.918933298947351 0.42012552397405317 0.7152078801399554 1.1810380369088886 -0.1885053133656818
Ni 4.7973560114224645 0.4393725348019173 1.736840442817761 -0.9928165733322128 -1.0098727574835513 -0.5796369528794598
Ni 6.06659250462462 5.5438012220920765 0.2532456322289307 -1.4128278719948184 0.43908091369954705 0.3480157821609103
Ni 7.824477741116003 8.878115600116173 11.378060287018226 -0.6934866864127799 0.29644022407646364 -0.41664161085942436
Ni 0.38471109621467076 4.916507610065787 5.616813035205791 -1.0213290789496088 -0.544128732670521 0.5104061436070951
Ni 7.7759475268150675 8.92802594876433 2.741859686754884 0.5996733027050447 -0.5844963378542902 -0.06204303327467379
P 8.427695676196345 1.7633245895068967 3.649458584701545 -0.14638344449496724 -0.3495468740934561 1.1121507270188717
P 1.7608078739325548 3.2300916835941664 1.45507564227399 -0.42690262646580024 -0.42032523035859864 1.594704367190073
P 4.722819736186658 0.8887072942644209 8.147659200756674 0.23112211959494386 1.0469172118313583 0.8598013226140353
P 8.455433670429688 1.6768271499285172 12.494309338855345 0.31055815153508454 0.28917222966014067 -0.24612322098946646
P 6.319003741905068 7.714175239169563 1.5655928317855545 -0.15420988251792153 -0.063992957912193 -0.8029282635760752
P 1.8805458041612968 3.1862701629484507 6.026786904314737 -0.06887573992579106 0.7069800929135244 0.1025898443487846
P 6.76462476731038 3.9574766074946557 6.127018935769438 1.5619158599051424 0.2638797736419391 -0.5147916742693005
P 2.48176119136528 8.460728695670328 10.339295405218683 0.9394510132268789 -0.06435651189919885 -0.7089490437144371
