# total energy = -340867.7415333252 ev
CRYSTAL
PRIMVEC
9.26337997671211 0.00000000000000 0.00000000000000

0.00000000000000 9.26337997671211 0.00000000000000

0.00000000000000 0.00000000000000 13.55789295271473

PRIMCOORD
 96 1
Ni 1.1267975256483258 5.252605016202273 1.8874618151757625 -2.3557691577631426 0.5323438242204509 -0.5255905646570175
Ni 2.7007383969316785 4.952934677870118 13.510806260387577 0.9088083486403574 0.3793256480177854 -1.1828388375630532
Ni 7.3068243428645205 6.8514551159176245 3.1608060101413895 -0.28569326997260475 0.24051513077406966 0.02124836785581502
Ni 7.960124207188331 8.66740178593135 11.160369057065395 0.3378403842898053 -0.5648734214170401 0.5928544800109984
Ni 1.8528149218394432 1.735938858199975 6.754596289808356 -0.4652300612910891 0.16972931830975932 -0.8247559009741279
Ni 1.3330652048953768 2.481372298568657 2.0564203057159633 0.3188607578635089 0.019238022294005574 -2.089468947605169
Ni 4.319439919677812 7.755394248997327 8.487294817734805 0.2463430503097564 -0.276008438584673 2.8545066067830582
Ni 6.327888886473007 8.401209302397724 6.9717799358773735 0.15049309578796663 0.0005283616996442514 -0.06546671424424208
Ni 4.204064523574969 7.296903263039058 0.595533427543614 -1.614413415583226 -1.7005384295077683 -1.3984551482129142
Ni 0.7650958904504075 9.453557044145724 1.662685902977007 0.6199526217793709 -1.2663706368391223 -1.3850553298672403
Ni 2.729584561802353 5.365775727899459 10.608563414130652 -1.6018705459212088 -0.9651093372249314 -0.39180861097614456
Ni 1.7695834538359065 3.29884704407518 9.617752304764121 -1.316600993749584 2.0194863477684444 -1.0461955031739854
Ni 5.511627643727582 8.773643489496465 11.944015792014843 0.17241097890698048 0.26238647692586425 -0.23924397737112993
Ni 1.4335543495700975 1.0714395676306145 4.001286359519564 0.05461563046235111 -0.0011006892633464913 0.7093521926901267
Ni 1.8086285999277159 5.510766149401001 6.378052867405622 0.14653616802274763 -0.4942912403231036 1.661202350912307
Ni 4.239552531802187 9.00843311531924 4.528892348919256 -0.055464865836523825 0.5521258919433846 -0.12040527526365072
Ni 1.6532724563676364 7.165641170483675 0.44745644787414995 -0.38407498977731275 0.5542730201933745 -0.2020465423852262
Ni -0.13430140748604072 5.787917211303929 4.937702902373378 -0.8886092479846631 1.7364397713900677 -0.8462114997447426
Ni 7.320126556337317 4.802163907338613 1.7864826377066747 -0.17816227956846092 0.9654137558392275 0.09067715207159867
Ni 8.923478658662543 3.849721717334425 3.1189799974168966 -0.44116684969429826 0.7004597752965033 1.3053292774905068
Ni 3.2168290788327405 5.456955175819192 2.471861586470801 1.8404396087125015 1.5673342027072363 0.40033130373517506
Ni 4.7129297691885785 1.2667208783687958 8.669512910200465 1.1149372886250735 -1.2713428932427329 2.13028675295248
Ni 5.0257263167762725 4.031256172366736 3.1188716158725844 -0.22922284568970203 1.1069164752031257 -0.38418143344819
Ni 6.386062911966853 1.3192720322902274 10.579752450103427 0.5863997255245901 3.2662284117433615 1.681463415154188
P 3.22624067276614 1.711446481861483 5.09100257560549 0.5415224053959254 0.11437963789486108 1.0271942794811342
P 7.202426051890691 1.1244261004052645 8.485966449063495 -0.749587900281722 0.13910156612157332 -0.7526097178271812
P 5.687279852551517 2.1346903074687833 12.82671584776138 0.292220015347529 0.2117447435095966 -0.2757130188314413
P 1.3712395932807495 8.699156652076718 7.921713602616637 1.1255438604963262 0.33953731237625395 -1.060419102972535
P 3.0807129752329665 3.6109210480341276 1.525737021528205 0.7731754577936749 -1.2091067701206468 0.6727669373669253
P 4.075155329502936 9.292374234656405 10.262186188228032 -0.07768253958414363 -0.7311065536480829 1.239942781664897
P 1.5512733807764352 3.415324782380852 12.049712808844443 0.9885644829240781 0.5152097356433255 -0.8379736852159827
P 4.157164031365519 6.899476477089616 6.614408004424013 -0.5844492866664386 0.043510778798441195 -2.6331654778342783
Ni 2.2987447647133727 7.605670240389517 3.267195001446211 0.17429019820756433 1.94733605085644 -1.487652630415193
Ni 3.722683725993245 2.0652983289696745 3.049658420604691 0.6137776033169108 -1.2203628026504403 -0.9311738608197512
Ni 1.4087377549366555 1.5978681814506468 13.19132803690996 -1.3129654538795257 -1.103757360748854 0.14822255458623504
Ni 8.473889780745608 7.033999279354207 13.295290022692587 3.248663149166089 0.4877051024651536 -1.8641395234326026
Ni 4.739460089095327 0.3592347971423433 0.5414584476359184 1.148057982438442 0.9575009287500542 0.8764751837252907
Ni 6.390592704716294 8.674951440513752 9.542967186513017 -1.6068978239324714 -2.6296551506881745 -1.7162522406985992
Ni 5.90470064114484 5.935668120002473 7.447919513136738 -0.44210864478227724 0.608111920390701 0.8564370341274928
Ni 4.37703035224075 4.144093402389116 11.807609744625587 0.27940666563294464 -0.9140847665479482 -0.677167380427466
Ni 7.476723992798062 3.626075937478066 13.053389826492568 -0.2891840567346826 1.0391200843844428 -2.716313925628999
Ni 8.378430651332538 1.5597586367242637 13.097656739809041 -1.1784731043951897 -0.5280577952505873 0.7656634656873459
Ni 6.502892658707043 7.364701940202985 0.09436790326606893 -2.2642214301611325 0.5599780409979517 1.6222696784028514
Ni 0.15497449231002433 3.7277230046347505 5.5611218822966295 0.4259286925883051 -1.931192608327358 0.4330575903236025
Ni 7.844971132202023 4.947830555569624 7.2051522645822255 2.4409199806998734 0.3916669431919577 -0.48845843569141034
Ni 1.9459582062885876 3.6897338838464915 3.8717815301228082 0.813148912862819 0.985263186464987 1.0518179915670853
Ni 3.447987459752079 8.974195663372544 6.816244082748093 -0.3046343298514818 1.702713839892532 -0.14894529168487253
Ni 6.797245817002021 3.7798387797029633 8.89319111188632 -1.498558221584103 -0.5499674508394851 1.6748924468048898
Ni 5.248742186802443 8.161871357065795 2.4246257599105747 0.273349146584955 0.23330138663444983 1.276507725273124
Ni 3.6757183901248056 3.099286051843661 7.862018530150483 -1.3875120189378491 -1.185897421883719 -2.6066926283547303
Ni 6.73357860725374 2.552311261503669 1.3850605560254658 -1.2741451385782188 -1.034058096480503 -0.040565323016872074
Ni 4.405246607281236 6.417697354174096 4.403793182981875 -0.6730320181028538 0.5927122980061793 0.06288147001556912
Ni 3.031459584540167 9.24215745245861 12.41294197538057 0.217913848434786 -0.5383080122236859 1.3401175888142856
Ni 0.39505072901645283 5.103696185021767 12.731064966385295 -0.1030403016226419 0.10234121867308826 -0.7289285721601576
Ni 3.7823862091632834 7.088829224720143 11.520914622457322 -2.1765388419414835 1.7152014308365815 -0.2168545539323362
Ni 6.759719865206548 3.0033266999183814 4.013908640910951 0.7680741320113675 -0.839931837383618 0.8699679787343919
P 8.921959464366207 7.207678388268877 1.7315869223437632 0.6636618897418635 0.38979929385559964 1.6929688446906264
P 9.102873272948186 3.713485189796527 0.7960328001545156 0.39086141657152684 -0.8034070029847067 1.4063841732520037
P 8.068820706415208 3.4355004237065843 10.690940798511491 -0.5616952807993746 -0.9063460031427939 1.0697694338391832
P 5.392250467527071 5.937946911446978 1.9395924116517451 0.2967533844415083 0.4223875122042661 1.0715486372267933
P 2.788481130924945 -0.3655468641760227 1.2721288395285582 0.9676182196897141 -0.034642786884850015 -0.3383610326799657
P 8.696924177531491 1.8878304976940197 4.634304979987285 -0.22699472769013165 -0.6829361645904433 1.5176242370766186
P 7.728058015043132 7.394428126159952 5.42123187774364 -0.22172705153328912 1.4004631797818785 -0.21110402460180416
P 7.5126195897389305 6.771549201282288 8.920253149796785 0.1294696994587641 -0.6652096938449577 -0.185780458235351
Ni 3.734939177542347 4.072969171856989 5.493658539483479 0.9389712453769828 -0.4744304968434346 0.0784934655212132
Ni 2.8176607774704254 1.9664302757697023 11.13496145879716 1.2933193975138242 -0.5566931995990929 0.06432000223430857
Ni 5.205889791589938 5.832965027542238 9.949188625297468 0.837320625013016 -0.46520255048726333 -0.5698366789595865
Ni 3.4968054715916606 2.250501082424845 13.355350998663042 1.5031162732684307 1.8905069576825375 0.9221883694916891
Ni 1.6172193819692207 8.148921152027516 5.563346019799985 -0.06675535114867859 -0.5050996437925173 -0.09090932268706278
Ni 0.2015081546771881 1.4815849741219436 10.683687572084473 -0.12600128129418944 0.3192284256155728 1.6358625865959375
Ni 7.369379947030117 9.23063380791811 1.3718278179015868 -0.07038214926798846 -0.3009805351489784 0.2274798948566663
Ni 6.448322087977067 5.563724892036084 5.058015679939313 0.6114540973900566 -0.7124354596011407 0.06798999488672806
Ni 9.074230902434335 5.084585832379441 9.733658492532697 0.7608621876439606 0.7862055515047556 -1.2150154222955978
Ni 5.475639412988156 1.6524665423201896 6.720213402797924 -0.8266700872777054 -0.4203625113544373 -2.5939677245888944
Ni 5.720350118636396 4.9435045571770075 0.004720618374468816 -1.2141487034199283 0.20751116504422326 0.6195615569885394
Ni 6.6740336015412485 0.4974657303631753 4.873330749418077 0.9199941900538479 -0.2752155103697325 -0.8542495395578708
Ni 8.72772491555172 8.791883084432355 8.832356643697915 -0.6730574720241504 -1.405824958314424 1.0874380547635403
Ni 9.326556106323968 1.7019978344086608 8.45010605296608 0.055525029650497916 -1.2040136718684553 -0.19984927762359128
Ni 8.545301176053263 1.6594789208709608 2.578860108170128 -1.3153828050717669 -0.7937913342718136 0.1291691374992098
Ni 1.7760492929751908 6.5483480636590015 8.64937988042207 -0.24019554265112183 0.8967802138312297 1.0288243588853894
Ni -0.15920415155214063 8.625392358285714 3.635358770431471 -1.1929373594496357 -1.2441804738953282 0.9943800611645907
Ni 3.650531260297135 5.3138174302887915 7.981056666648274 -0.33527622310705485 0.7494937979060189 0.731708706008456
Ni 9.197369010856264 7.02631067407397 7.180598749936686 -0.7677535154471551 -0.3682439362823271 -0.043803884558827784
Ni 8.910352449407005 0.06961615229161705 6.441937766580513 -0.7160694568093023 0.9200985768421961 -1.1700673968299977
Ni 7.4940094596088125 5.608013111126224 11.427134017474106 -0.38607993602248347 0.23146536186697556 -0.2742798859293405
Ni 7.5050328816371055 2.6373490885790685 6.90548192625007 2.5041367225676745 -1.535062487157724 -0.5389726423908783
Ni 1.915203785167637 8.64653139111644 10.460808800080168 -1.1633740439702223 -0.7588765246724994 -0.7017784941079268
Ni 2.4285802967709764 1.2173378003580162 9.054245160395645 -0.5831958738753117 -1.5032895656215013 -1.5353939023552137
P 0.3614598609836844 3.504679344469012 7.708855028602249 0.6812616051014977 3.0201458141838438 -0.44947948332505167
P 5.5490794884842085 6.413010083967108 12.053888740483398 1.1991771697117604 -0.8227455554123186 -0.3226863022571862
P 0.0888385918301968 9.034574373272049 12.631278912241623 1.3257651767473555 0.06417936289138625 0.6893271557184516
P 5.907646395938956 1.059776972392278 2.7793140902197364 -0.3601261922711992 -0.16122745148633524 0.7529455039000452
P 4.360856491012683 3.723767541436363 9.608383322378057 0.7435717759946291 0.9734901050894588 2.325799865094562
P 0.8905646652440304 6.789186676527555 11.084526060834772 0.48660389898117484 -1.2361591462527484 -0.26414948236355795
P 5.885970087076599 3.8177445300725212 6.328295548848672 -1.0114676127744966 0.7652721437861981 -0.7604274140993872
P 1.9502842046812032 5.962467077925036 4.4141514943365285 0.8669623591388489 -1.0047094681150568 -1.274388364937276
