# total energy = -340864.3774051763 ev
CRYSTAL
PRIMVEC
9.37602047880824 0.00000000000000 0.00000000000000

0.00000000000000 9.37602047880824 0.00000000000000

0.00000000000000 0.00000000000000 13.72275371340979

PRIMCOORD
 96 1
Ni 5.908946273748313 0.13330450929223656 1.6211645777752839 2.0571800056644762 -2.557201206492822 1.0494222376413993
Ni 9.062617654501059 4.687503953031207 4.301424743426266 0.20375195511210714 -0.9250803463275037 1.235942402256252
Ni 7.416047811534867 0.13553318936895586 3.7744295710739735 0.29198115986384554 -0.2912954466507306 -0.591070391527382
Ni 3.1671072181525712 5.0494370970005775 9.151663596548255 -0.460637042603768 -0.28060479970610386 0.018380302279400604
Ni 1.5310385181646116 0.8844287640759005 11.017010689435127 -0.182591261874092 -1.5685076541900471 0.03565014510344183
Ni 7.424645622348295 4.94881364481988 2.5342220828955884 -0.7059619360616551 4.169863700823212 -3.005104346469689
Ni 5.926488808134271 7.740683145890483 6.748836127565737 -2.0579153411686044 0.4697469753248361 -0.16482596747087097
Ni 6.541649514207281 5.616892610686765 6.8451981784217875 -0.38430921727530587 -1.0875766372239335 -0.0199810711076172
Ni 2.0776417622225964 3.2727843453915426 7.534889809180745 -1.064183969331606 2.6177704834354465 0.2040743714485324
Ni 4.974691461444809 3.8443934361664414 13.048431483318627 -1.1606653867898076 1.186581078214305 1.226910888181603
Ni 8.485973640708918 7.755347241977941 11.749819825742293 -0.464979892953496 -0.700923088086167 -1.3657491733394607
Ni 3.148580201612406 0.2917630064255442 4.802071422923714 -2.309077667243875 0.24029864388788938 -0.24650348714702064
Ni 4.1627374607556344 5.875305112135908 3.9020653383620685 -0.9845857007819881 0.06468844131732086 0.49412077618351036
Ni 2.228755084883452 3.707972337654594 0.5987376685366981 0.3641620529034696 -0.0995806252088156 -1.4393125485489082
Ni 2.019651075329416 0.20178508793902905 1.020514201053265 0.893549622709074 0.4769926011436559 -1.177553677904714
Ni 5.444064424510209 3.201639101714024 3.2465286751398086 -0.7196353197836897 -0.4171684298971719 0.09464847801452088
Ni 4.464982858118377 3.2143248574725485 10.83716080149393 -0.4109093363613374 0.2680752997805254 -1.6855548116147423
Ni 0.11596543455148332 9.202273480091023 2.259080885641302 0.06591382908398971 -1.767176281241976 2.013588494226771
Ni 6.034875605302446 0.8137363821893179 7.432120185903871 -1.869343436231045 0.6732963275078341 0.5899812722282614
Ni 8.273484887748506 2.3189805303115967 9.73094227210547 -0.051744736672459275 0.6158931069980167 -0.9664555668401809
Ni 1.917658724153342 6.4614095306289725 1.5777048474782314 1.8966176985659657 -0.7799438868657599 -0.9784963000547986
Ni 3.6923143833924095 6.411229068825852 13.474851958796906 -0.018552823301522886 1.7545637346842882 1.6966378089017813
Ni 6.609653791011847 2.564163466812271 12.238528018316364 -0.3728716648623256 -0.3292403013256201 -1.2763470313255436
Ni 1.4125912509824694 6.939652209102773 5.702065318658688 0.9521165245096892 -1.018209816594337 -0.9248872564800911
P 4.059957523856193 7.930153768483431 5.09514894742564 1.254250970757453 -2.694223521487863 0.5395449699545806
P 1.4420507074446154 7.730219506994316 10.748525529145347 0.8608246216722271 1.8224174611034678 0.2895334696543014
P 7.664831139913792 6.4570778091504515 10.286452735653919 -0.38843223830474394 0.20031284752357115 -1.13185411898507
P 1.0341000547813521 1.748149649239549 13.003283131726594 0.04987348779167539 -0.14061440322167393 0.5479298515841661
P 4.568887917479772 8.899540529661433 8.475323419004479 0.3998685051661436 0.5799837946959172 0.611714807250611
P 6.290175267940184 0.4186646313072143 11.987964183641397 -0.9876322009177959 -0.9559744648031988 -0.2484379851655721
P 2.531488035313042 2.621563464412926 9.822706322500336 0.9592431082521414 1.1800306786902968 0.7979212972797871
P 8.023379540476785 0.663025290808611 8.221026990561981 1.4599734193323695 1.5829014610178738 -0.11023964758455852
Ni 0.6289734594975919 5.7933868208851855 11.035975566133404 -0.18170397417313225 -0.06219652813340255 0.7218169008160407
Ni 2.8227916167332885 3.469249479289635 2.8639110923094777 -0.4440989357394287 -0.2776521448356831 0.5702503694582373
Ni 7.970151872005874 6.799030653399633 5.332112864341744 2.0948510378526892 0.15261245612381458 0.13923989147165053
Ni 6.488712502372374 6.1894486795338075 12.832654559963155 -0.2083071785829574 -1.5261021926406428 -0.6445053714180706
Ni 2.854970119145155 8.700712638593238 12.390658639203235 -0.48047593170656605 -0.8179033968286687 0.3443270204554134
Ni 7.93197271646359 4.475512129158158 11.168839402461375 -0.10099370350625833 -0.16119968357219333 0.569436101087058
Ni 5.141087697547197 7.305870194448082 2.2560618070350604 -1.2057998172346007 -0.2865921276377903 -1.6362351394440078
Ni 7.895856285434887 4.8527281865690615 8.630102765687198 -0.7122421126434121 -0.13791088824758183 0.6783295190563672
Ni 7.259683917384896 8.14184555969996 8.581730000639615 -1.6236562743377327 -1.6957777748943312 0.46817191752823245
Ni 6.421205154655171 2.215544271976016 1.18495553687801 0.3456621943270692 1.918043986760542 -0.10274205365593274
Ni 4.349995342506742 5.023774928847525 1.523925869000963 0.15450530227115328 -0.5558966718397265 0.6952324654592931
Ni 5.630075295532652 6.026418434796763 9.058224988889181 0.42643648546265916 -0.7567602496604452 -0.11098166795690564
Ni 0.3286585847591504 4.707493628771912 1.730041740816461 -0.4460627443340188 -0.6936340106239215 -0.4168318724933595
Ni 0.30513977489611827 6.722091029043055 3.1903484978083214 -1.9022926374635563 -0.009610012285938288 2.0154224621117165
Ni 9.190356558014832 7.003671677187921 7.529318577789972 -0.9042582673758298 -0.1885053133656818 0.43873612876561857
Ni 0.8517917742607878 2.357244070038528 4.588051565812993 0.2428376082596592 -0.22726932150775697 -0.01984300286785615
Ni 2.5322568689953764 4.606973312816894 5.674317923542813 -2.032419768000661 0.40472351926559974 -1.2131747695424333
Ni 4.19318139937199 4.930417892566942 6.929619867150356 1.8978590271722346 -0.47164727767134257 0.8753917208531246
Ni 9.022291390260547 7.1335951934819875 1.0499549054743786 -1.1305109746936144 -0.8546807135580183 -1.16182212610207
Ni 3.075334729339241 2.206674556567617 12.305138080870158 -0.5552366696582245 0.05432869534955159 0.6970497211736898
Ni 6.088975243681371 7.44606982922799 4.371109203107348 -0.703520159389382 0.3907979103234431 -0.3399029232457888
Ni 6.970789973237332 8.309151269792428 13.52957885294837 0.21386590361765748 1.275728166794622 0.43612594483628114
Ni 0.8334663421617221 3.2860607904425922 11.216279253467588 0.34630831255150035 -0.5757566439884471 1.1734278286617983
Ni 3.440211943750722 2.465002673832113 4.913966726969081 -0.005090527149029943 2.166420265450243 1.0215885032585825
P 7.866837501937005 4.557411668367847 -0.1829683523649104 -0.7429737373993139 0.7607590864071929 0.13797310894408496
P 8.198561107802927 0.6692781588909169 0.9378627049981698 -2.0294812541976275 -0.3883381359290409 -0.4426485764461473
P 1.6025400506217489 5.895547940430552 7.66332066300862 2.072947295801062 -1.1142855139736874 0.5500468979271689
P 1.9331947901488151 1.4841302875216718 6.429068823062175 -0.20174443776377515 1.1613613844155675 -0.7013817728901405
P 4.243868166282989 2.7792212493941437 1.260438127646359 -0.06688364919642675 1.5449386086208552 -0.3224271350585286
P 7.281595677331437 7.372430564093141 2.437271217951117 0.44130337527216257 0.844938803679906 0.4132999480807011
P 9.812943072336735 8.674797317886245 4.9182900100291365 -1.9312265468890868 -0.6200567514574031 -1.997641998199844
P 8.635727440394913 4.97173801498218 6.530891468266903 -0.4807001319022302 -0.5095479093718579 -0.39459234436886886
Ni 1.116271498586014 1.5306634773439607 8.78807933536597 -0.7430099899538881 -1.45925479599879 -0.9300880839547401
Ni 8.324040390372277 0.9445871869124445 11.511853612232999 0.8060740082939085 -0.6643411751970753 0.6044306148843719
Ni 7.537936078246483 2.491818092508668 5.318046958363225 -0.16175529896534724 -0.07468257641555526 -1.3022038444876476
Ni 3.642368322102196 7.227927335896262 7.532693945175832 -0.38832219508944094 -1.370068369540105 -1.2075695075405137
Ni 0.6361873696828163 4.203795054596416 9.182471324760643 0.8054536011010903 0.5190949296303448 -0.8520057378290166
Ni 5.305646233628394 1.1589792720376613 4.88077186393325 2.268390731047474 -0.4545275872719204 0.7680818453208514
Ni 4.221956406336448 1.1181654547303024 2.726299239192063 -1.8710329081183261 0.28272570270384856 0.1440378270809261
Ni 5.572506529562704 3.182624532107012 8.035797142048544 1.2767537798456592 1.7886318800125907 2.05363599706696
Ni 7.5369328440512415 -0.16227266227932957 6.162641699275717 2.7067501931999645 0.03870358721778496 -1.3874371998358557
Ni 0.2884973384797245 2.2240576986047964 1.8907073531793006 0.5802154510907491 0.43466710090256755 1.1568069322756658
Ni 5.918144149874783 7.8486011420328445 10.750871409478519 2.0960293744315064 0.9801019539790218 1.1408797195224483
Ni 3.8010199652581385 1.9700144227162393 7.49956752708977 0.5641686820405316 -2.3348457773469145 -0.06587474831593818
Ni 3.912725873689077 7.212278757654594 10.093771763636196 -3.573083917615879 1.2291652314334185 -1.5165927104883108
Ni 2.777721086111539 4.990415047850606 11.963222740703042 -0.9464269303240798 -1.444418759427222 -0.7730386751054945
Ni 1.025699140398767 9.064361594317086 6.864972205690617 -0.8231505041602212 -0.1123849760623355 1.0718327441261155
Ni 2.225923526687536 7.902091339078212 3.332886512104989 1.2654571238859171 1.6311641526790035 1.0364499937514473
Ni 0.24726910106554612 8.826229425244653 13.306419251038381 0.8914392612342906 1.6085325313224168 0.25325571826918963
Ni 8.952580677722018 2.464036943718936 7.196472662268252 0.19533622024458616 0.5483085750798234 -0.13494897740578052
Ni 8.428489258923618 2.5236778102229818 13.655992924763193 1.4672444990724862 0.43114520379223814 -1.3328668207891432
Ni 2.2152254872784627 8.538451227538527 8.842668402015844 0.36697046888654217 0.7080887525966708 0.8245460989561669
Ni 4.175057551714024 0.3008521207140243 10.567014210368665 0.45709200556498697 0.6109666162306768 0.024753809905912208
Ni 6.33870555013244 4.924135958821036 4.536989758081343 -0.3535454537298879 -0.2248352581449676 1.6691354897164543
Ni 4.354439576231457 0.884986637296619 0.1858571042859757 0.43329181782159565 2.1757104325029175 -2.5438355838191935
Ni -0.12628186992554422 8.762660006144287 9.457543139463109 1.2215925612924834 0.1837505722895158 1.047066850035345
P 1.1209501328236369 6.206072363909168 13.268214780240704 0.35498887104463384 -0.4081374300431551 -0.1855068928589902
P 1.901278816311404 5.27076743730784 3.7403149204254955 -0.2448055306193074 0.8003489328846732 -0.8622001618635151
P 5.588661412912251 3.1473613189452894 5.998421637535157 -1.2274729313326602 0.1931548963225512 -2.0790323256528773
P 4.5889244733230585 6.118369067999903 11.608283170436763 1.8086425188065627 -1.4485176120869439 1.1684892537096006
P 1.8423411513460797 0.9466967915286071 2.9716893857461466 0.7121570091287736 1.371748071235373 1.6866269616329985
P 6.386992055791272 3.3198144643011935 10.027517989862021 1.0982220327529215 0.2541784871937751 0.3894516807081938
P 7.631133722178289 3.1480832725250427 3.1587306814233282 1.3316128937773841 -3.7473933990971524 0.9808180062094399
P 3.8073487791066265 8.454385827589578 0.838086845072144 0.3625468858975498 -3.080204727148953 0.5981380970074408
