# total energy = -340892.5180115415 ev
CRYSTAL
PRIMVEC
9.06095705831584 0.00000000000000 0.00000000000000

0.00000000000000 9.06095705831584 0.00000000000000

0.00000000000000 0.00000000000000 13.26162655042713

PRIMCOORD
 96 1
Ni 6.2725017612553415 2.112163412898101 11.239016095018691 1.5723956763905436 0.10119759198694829 1.0124834556335207
Ni 4.711978463758172 0.18137498592341622 5.859304912016635 -1.0053902962321652 0.12193739563746098 -0.06063869672797944
Ni 2.525587692154326 1.386643535099315 4.696618329666622 1.1616812296488315 1.517003572773484 1.1114220763829632
Ni 3.478211393024496 4.221472624381125 4.787937371322395 -1.1606018805417238 0.6180548905360259 -0.09751140138461271
Ni 5.288635881086172 4.670606134674867 2.6117184299044722 -0.754748618547055 -0.24874394644176517 0.006520574727337156
Ni 7.362770457987202 6.063112108871182 2.7187527951612283 -0.1180066931244871 0.8901231135260284 -0.9892710220727996
Ni 5.246529614496135 4.675136613111497 11.631798608421944 -1.4489703833536465 -0.9532200419865133 0.1823842880696085
Ni 5.6551606475664045 7.801012698119286 12.562658796978232 -0.5311228073291563 1.1574702768912775 -0.7185878523557818
Ni 1.8916559664304504 6.7173675608617796 0.2372475642909982 0.8535080334061559 0.09976882996022172 -0.33733130586387067
Ni 2.8738274476643206 1.864935204611207 0.432889026811362 0.32453235432698946 -1.3599947873541867 0.6119315512471075
Ni 0.5376336882662454 9.195149644552787 4.835785566283019 -0.262909953529502 -0.6879436451073636 0.36461636683206883
Ni 8.441069630689485 2.345165918893977 1.4265262428726553 1.5999748715603928 0.9594526531597862 -0.17428377044966115
Ni 6.782769547572968 0.6751654221670194 4.632126969121195 0.3062970622658854 0.14697017023637268 0.01947456378484388
Ni 0.9978378756677364 7.341866830480591 2.3033849406556883 -0.8581771567470511 0.5385712931874016 1.271930904535719
Ni 7.520548900021275 3.8970450635340574 3.794495871929565 1.1885256035351854 -0.32925829904774906 1.011001728881672
Ni 7.654560452176788 3.90291656358793 12.524730537602451 0.28796381117433634 -0.43932156895544344 0.27456527838024325
Ni 7.827081071043653 8.7802212464556 6.679655858355272 0.5391374501035165 0.37889164580416035 1.5631597596145725
Ni 6.952970561480281 0.8177649492470076 0.35065087613396867 -0.1344033893149556 -0.5716446787026026 -0.05678821263363769
Ni 2.0448495642866535 6.477732434434677 9.061324748108863 -1.174562456486874 0.23595630775879362 0.24327161047328422
Ni 0.2191609882762843 5.0180122821525215 1.3066017603679996 -0.27766062947611536 -0.8479120273756171 0.3811881551478209
Ni 6.170837825137367 1.789076873668276 6.831819225414986 0.9596951081878956 0.24720925496479362 1.456535340185098
Ni 3.3151775960039327 4.199273280041639 0.7139798431250025 -0.4114950336614784 1.6387442790191067 -0.7897865839877947
Ni 5.987543728548195 5.537168867162816 4.8416072310740885 0.11445857076191256 0.6709411970120961 0.5324646660690313
Ni 5.254711658552687 2.8052269431768706 9.1969645542145 -0.3706566594888778 0.25435769308411676 -0.623367818108507
P 0.15344096197884358 5.638325389695888 12.484150136149871 -0.527403192385724 -0.49659289187308675 -0.6030054524020712
P 3.9268374897333356 6.011845214882277 12.756026865419093 -0.0007949850974695986 0.7606120193063675 0.15145134593617787
P 2.526412239229793 8.669152037103181 1.4510207275881384 0.37052630455860064 -0.26380444031931344 -0.9467979405102533
P 6.339271952454394 7.634173299211953 5.715217575818058 -0.5292304754024499 -0.5115708533391576 0.18431570076436646
P 5.030289878715789 1.11447957349721 12.808582227475375 -1.526572704519158 -0.018761082657587042 -0.7364127963523447
P 4.054026141363284 6.031552796081617 8.071888191654013 -0.6639475393030825 0.18898816653937128 0.16307196089424172
P 4.737820312760708 1.22988898119192 3.8032750330440663 0.2127248480346788 -1.9695197860423306 1.2050711665986922
P 0.19412465833978013 5.542986001475448 3.5511983067342916 0.2514436047611154 0.05430247009730648 0.4536796374493283
Ni 1.2984260589812573 0.8834704780134511 2.6832111918258663 0.4814614355482869 1.5992996998702391 -0.4242955278602564
Ni 1.718555446323695 6.624229985161541 4.666899297218016 1.8222035453204488 0.5236660939407949 -0.10426388961709784
Ni 5.902271063413946 5.571437406057484 9.276216213506466 -0.6654418644604216 0.6712643846794698 -1.5915961605783944
Ni 8.788611692520238 2.381545660740115 10.277561585579841 0.010165884789408297 -0.3250411756426079 -0.4141301572914803
Ni 2.3104805759831386 4.996429082880417 6.888208278324343 1.3339752233619737 2.249970062448441 0.43118351322934123
Ni 0.4684868080793378 9.167966773933008 9.412983202647137 0.6093136540082861 -0.9326141928107036 0.8429940212487094
Ni 1.6890710926581074 1.156649266785361 11.535479730763505 -0.40972508624524917 0.8792979978860663 -0.5899100526706937
Ni 3.95875924079783 6.8276575279230975 1.819508097327119 0.5049011546284659 0.10756312919365991 -1.198658063983497
Ni 5.565502479305499 7.683618940869331 7.996243699293291 0.9786953034394822 0.404981915133309 -0.18420874287285693
Ni 5.374017277702899 3.012088588593392 4.926574541961708 0.6743882750204322 -0.37914155703143737 -0.7454484241920517
Ni 0.8345811791080905 7.358629600696122 6.799620209070169 -0.3636475751608963 -0.21650462679208518 1.2379504338252165
Ni 5.054174561033701 4.397554199299183 6.981755409275252 0.2651406426322337 1.4127548526650378 0.7128671478219206
Ni 8.087692312632353 7.111591672503566 9.04161807300521 -0.523418496706363 0.6822795048430508 0.27542736927022243
Ni 4.666075656238237 0.4723322781763493 10.580377858188498 -0.15532728395181633 -1.5993035565249814 0.13558198300408908
Ni 8.334503716903077 7.319087584901216 4.824659617338343 -1.1268178421127433 -1.0706451515759174 -1.0792547476217993
Ni 7.390678205156842 6.107991028264437 7.083485490378402 -0.41299938612114684 -1.1970051017611063 -0.9984552596752287
Ni 2.331012704257945 5.242868987919336 2.6488638226064003 -0.38170906064829746 -0.7007012018833481 0.7464364991369339
Ni 2.0492078845426915 5.3079175973124695 11.487008141970001 0.9181818194354574 -0.3170260186476153 -0.6794991138844362
Ni 0.9390141436465338 3.3354469565294145 3.948211380901668 0.4666593375384479 0.2119738288012672 0.1760791717871871
Ni 3.7849972708393267 2.6843084737032186 2.753471663612498 -1.2625342938121675 1.2691687684095498 -0.925652931001522
Ni 1.2932431916497527 3.4639222640353653 8.31293139077922 -0.6362827263979622 -1.0805649817927907 0.8315793516538645
Ni 3.7423111030094 2.625122303407085 6.783905791564875 -0.41633384981101845 -1.7592657681456476 0.7388753989602244
Ni 4.065035203964294 6.910683075752777 5.988791422309642 -0.010010847268782758 -0.8417812318875308 -0.7400959016308867
Ni 0.3297671827324794 7.195006841478796 10.978252629354522 0.022490982013664493 -0.22474938329938066 0.8875214142371232
P 0.3787099412833923 5.502456341381357 8.090002856635033 -0.8559487816371645 0.4881115938749529 -0.6719778658067266
P 8.420310978492846 1.3942366169591065 8.121220571350475 -0.7397691144190872 0.5907194359458664 0.11512602914258238
P 2.016660927453943 3.217083676894022 10.464139372939885 -1.4093975061570307 -0.10439038789263314 0.7071585274729176
P 4.003909988897283 6.176772751889352 3.91521681254338 -0.3161747263909135 -0.41926130787045857 -0.6395266872565567
P 6.802449945901689 4.030703238371513 10.261647827023337 1.5412359629582875 -1.6111763967031671 0.7447503696837626
P 6.077818041876482 7.535390747379674 10.282707302988166 0.5181983859580043 1.6483776883438128 -0.3567323360983018
P 2.3930440150122814 8.545388427171325 5.830925088993899 0.6601243089022502 -0.17850526473017647 -0.31553375037280496
P 7.110105675576352 4.078762553627283 1.4936036005097102 -1.002316285292532 0.5463663637517882 0.01146532032712219
Ni 5.2386647039301435 3.082410674886761 0.47301819261165506 1.520934275286458 -0.37108731926839317 -0.2190541326868163
Ni 1.2524235809357174 0.7453914623175323 7.280101911858329 1.0487426950758711 1.0040427810653354 -0.7070705957448017
Ni 6.656106431441669 0.5762469559816421 9.143984233280863 0.10802001422542042 0.03158703077766173 -0.4827706412780137
Ni 2.884247548068569 1.5164145594381417 9.30681053438903 -1.0527957820993226 -0.04669149051926798 -0.5263809217687967
Ni 6.355146748896345 2.224410546644043 2.6676027875159893 -0.11277192708810901 -0.7938417278937747 -0.5819920833751976
Ni 3.924409153291302 6.88320119355618 10.39462189961686 0.6522531336842896 0.6413465140741149 1.0760555239582112
Ni 8.526768160796777 7.360505218768887 13.651650804886648 -1.3953873079208678 0.19525420205374117 -0.30757644319894123
Ni 7.767097536542674 3.5875771424847422 8.241994971609843 -0.26757367755375855 -0.168553038613471 -0.24165670057768057
Ni 3.3274461316103263 8.679789600472388 12.570616129304327 -0.2427494194212271 -0.45138184255408714 0.49824122610978705
Ni -0.10446467788749966 4.771907632517912 10.109575975628042 0.428937654617958 0.44923137186998763 0.6444966296673222
Ni 8.564416436605171 2.0921658810788166 6.013749828017037 0.24761548926427682 1.516729493176491 -0.17267425987069618
Ni 3.8674972831703576 2.640861185495938 11.481292490374349 -0.433688281929066 0.2705708125088695 0.22990290247586212
Ni 1.1144342687128437 3.394442846731209 12.758215086503986 -0.3501616248593195 -0.3347239501480106 -0.13783144115989812
Ni 3.2897887948450584 8.182678323534736 7.842580743871052 -1.338309074850637 1.2466641595491303 0.7329991426851055
Ni 5.678909415531218 7.850648619871003 3.573782741740891 -0.15028740753506373 -0.5420577090741051 0.009526451433196496
Ni 3.156828313686844 8.425919710797395 3.573490978929572 0.3247850937677439 -0.4454078843588393 0.6603294829345209
Ni 3.4651454932132553 4.4913351029374216 9.547164194696181 0.8429366856482128 -0.21435287055640503 -0.30112657380853947
Ni 7.110459052894409 6.016874045946936 11.370770562817073 1.8700746579701149 0.8257311204032037 0.41539385449525235
Ni 0.7015608956345126 9.471599438755943 0.3504080424897653 -0.1950587982134834 -0.22222995931163658 -0.1271572492755036
Ni 4.733534480159657 0.24121354511442403 1.8122412099147647 -0.06847027695725627 0.4924801552562938 -1.4358582714517207
Ni 6.1404654976982 5.8678213053818125 0.40858572828590456 0.019961787833907556 -1.1501727147885998 1.013259414567597
Ni 7.702746620828783 8.931693262505885 11.204363371552596 0.06484604994110767 -0.03636105512753738 0.604870530635268
Ni 0.21412309625475184 5.174676226491184 5.728081416291024 -1.0937951073298195 -1.7700757142769576 0.37103358321232227
Ni 8.132444378629383 9.07110514495786 2.343051091559758 -0.5381102943905829 -0.9132483866895822 0.4991087163164049
P 8.51391066299362 1.6670076626717198 3.746939439780261 -0.7482866649717951 0.7431519148483912 -0.5488047979899515
P 1.6833536288710804 3.1880523710720974 1.8072015057018576 0.1667609797100547 -0.3727587934335451 -0.3697536880586342
P 4.578619300497533 0.9271261682288168 8.167384334428359 1.004429989201425 -0.34475330935955467 -0.5308063045300019
P 8.482922190487072 1.7277976223344198 12.28851501629932 0.3486937820645414 -0.30684162191544573 0.8125051086312329
P 6.502586639138028 7.845193923833301 1.4293378577904277 0.18900102205517774 -0.5056534594134582 0.21955986867864125
P 1.8021880782638828 3.1228859692396127 6.188537498293592 -1.0849654248533314 -1.5154400849411063 -2.041605548264987
P 6.970050465186375 3.8537608725504953 6.2217187223634705 0.7557654898473435 0.768726935104018 -1.2647248737055832
P 2.104878403572 8.254468284841574 10.718868241326463 1.373161663753448 0.10973236893083682 -0.792952640420602
