# total energy = -340855.6895745397 ev
CRYSTAL
PRIMVEC
9.37452468558352 0.00000000000000 0.00000000000000
0.00000000000000 9.37452468558352 0.00000000000000
0.00000000000000 0.00000000000000 13.72056446882416
PRIMCOORD
 96 1
Ni 1.467422448616106 6.962712482309127 2.825105775604536 1.185203738250804 0.06142699695722969 -1.076984463530384
Ni 7.367907556169169 4.097135946846154 12.913355983372316 -0.9116643300319138 -0.1084398753716584 0.8274290769309169
Ni 3.8288745528295673 5.535291129872388 9.017333586222716 -1.2164027895614276 1.5284259556778128 2.2107903069251864
Ni 7.836755651603597 8.418894876010993 5.188444971606351 -0.06338566334549729 1.0514446673880664 0.5952749165270329
Ni 5.631258137509647 8.410617170848964 12.40588765922213 -2.775905926260019 -1.083191363672044 -1.463551880712247
Ni 0.40674280786032635 0.7534961583334936 5.676883010955947 -1.0748404206041875 0.21417212200416663 0.03130498076086867
Ni 3.9078924201124092 9.04470063568989 9.934635498971533 3.1279614257079422 0.42313853143767766 0.7077928186228069
Ni 6.061811300229588 7.674979481749521 6.933508963486075 1.0513425945925636 0.9797900791655578 0.6158632822013458
Ni 3.4713958088389836 8.65688593031275 7.423964400515024 0.5221877096230555 0.15415614646185063 -0.2406254310996888
Ni 4.230694797857978 6.711840831299974 11.290076439691832 1.0917487663237522 -0.4419728905353614 -0.22609252759083642
Ni 1.734099547986733 2.9220486712456086 5.222828852685958 0.3158571951504947 0.5567297092639831 0.927138514408113
Ni 4.9199379650470165 3.3058042075002567 13.554874383619817 0.8647650943772138 -0.7942027107776194 -0.11200599545636195
Ni 1.964534735515449 0.26500655909896936 9.593638106561203 -3.0464137467414374 1.0092646915859071 -0.5370720829340557
Ni 2.2389270685761673 5.3540159489911066 4.34030830085692 0.7096049321308812 -1.4631245633668413 -0.3225657175189218
Ni 4.364947363685191 1.77572243691019 5.459714650545356 -0.24709098421937448 -0.7138467381263706 -3.1436824359876248
Ni 6.747623391439802 1.3483753615802991 0.832149356612029 -2.2872893677241897 1.2111546537886109 -1.5410305318157007
Ni 9.074014773902423 8.554469249797261 9.079171699847647 0.5194762242291634 0.16876798283775452 0.3360310989952084
Ni 2.0757822181403736 5.693083126800232 11.368598394626916 -1.7988846680888502 0.8641925097031956 0.5101544326076053
Ni 7.054442204857781 2.78023086412082 7.748084836409834 0.3723769846140942 0.3199079681811007 1.081539172780602
Ni 7.063310505065346 4.345973326031795 6.08564696630544 -1.2828305821673585 -1.5626856481916314 -0.892373857233418
Ni 8.078524639291876 0.2454672376162753 7.296047138366745 -1.3107033973182267 0.20528716080971096 -0.023986592722584497
Ni 8.929722092301105 4.547000630102654 7.733225277573669 -0.4827282180758525 -1.6456633747364433 0.14151351799717565
Ni 4.28017353833951 8.268705618478853 0.7859966974345596 -0.1785615718894086 0.21200313937730586 -0.0858236806340393
Ni 2.787589865878684 2.7418421861610103 9.59800101027854 0.8672863181371709 -0.6225288671469795 0.35279340605521176
P 9.173590973484622 6.5646326725691075 12.506720045091656 0.9858779372308504 0.870429748862159 0.33946455015678956
P 6.503117042588089 8.304619421962132 1.3878214859073539 -1.2355636787605946 0.9391530223704859 -2.054883496320816
P 2.6221482569324746 3.7225205720105086 11.434388807794669 -0.7055364184884623 -1.101873770572896 1.397943241573502
P 5.110662666656867 0.9544390916835618 12.883390315704785 1.9851374379749296 1.0116612168425414 1.965279779819054
P 0.3384137734492241 9.035494852599161 3.5057825022759506 -1.3269964780512953 -2.536047712343658 0.667722175854166
P 5.500099164778096 5.018079862375772 12.19780133817844 -0.08269156276296082 1.3265087397815991 1.2084444539462995
P 3.361723246335487 6.612536492929213 1.9550570912132836 1.1190104302531825 -0.752531042070446 -0.2229418977769967
P 2.2162407192079767 7.517421847934983 10.217251164951993 -0.4471698613552686 -0.055410101339188444 -1.7704891476652926
Ni 6.143350914611622 3.4130300191008205 4.081607046958383 -0.3111204517964577 -0.16618376705034607 -0.9810694600986137
Ni 0.56414576202008 8.476070101133551 11.469746701973182 -1.089272022648485 -0.4931735817788926 0.36119577118629403
Ni 1.095206952060731 2.4415199182439222 8.156395064771964 0.1715090359180014 -0.07262415122462976 -4.0626281301723
Ni 7.12042010851618 3.54267969338267 10.569760473487998 -1.2498896084649636 -2.838656527124679 -1.635591078102106
Ni 1.5744420206769585 5.53558174013289 0.5704763784367491 -2.504909853288273 0.5273543414256595 0.4716429067959684
Ni 0.7206618861590772 4.0011033175371695 9.861641701153152 0.41735740597952636 -0.2640139852269582 0.5895189878798621
Ni 1.031188324029585 7.913270520836312 0.29664557939551617 -0.28051763930893625 0.08888072229280823 -0.9559842349952117
Ni 5.206517179999739 7.530574305853814 9.007454712270567 0.9125870989564994 -1.1483513453091447 0.15450170272672747
Ni 8.45032765676783 5.099844465346582 11.104189930193108 2.0430821328105133 2.4233071527141172 1.0770934783044226
Ni -0.23470715835808972 4.518239588837527 4.324337860863676 1.8615995306195683 -1.2194222931140417 -0.037929685166237896
Ni 1.4452048254745309 3.6717293980944516 2.0822328284710565 -2.2417088508809138 -0.29268847034351525 1.4296403155664668
Ni 5.459310608538014 2.2830623300742836 9.120250866348231 -1.048026642845453 -1.5171727513614968 1.098408951952747
Ni 4.4035797792828415 0.032822085292524325 3.1062121431352945 0.38082974336713765 -0.034941806182507563 -0.36740267132795434
Ni 2.0611767089190347 9.273504655949983 2.1774948718634857 1.305641666524603 -1.2432312226081816 -0.4086112843557801
Ni 7.410655388036504 7.6085890990116996 13.433557724194738 2.336216946662828 -3.9635056755468256 0.3692098997400222
Ni 2.32545393000939 6.647878450416022 6.283305066259387 -1.3415851744987477 1.1610276552252328 0.5047049794572598
Ni 7.5834466242160445 0.05800955780593525 12.575199071895277 1.92433470486526 5.3689377692982045 -1.174501007121319
Ni 3.505359711219543 4.204033650088087 1.4938539205349546 1.6047789778172556 1.2136604509296 1.9184365942132704
Ni 7.994369532565327 6.255957703293732 6.238616707813865 1.0934114987381556 1.9848232491686206 0.4499618222781089
Ni 7.342052617509057 5.49049965165701 3.7190416859565683 -1.112653120576587 1.631302735139397 -0.7722125796597733
Ni 4.385393201690159 6.00951082786383 6.670170132301402 1.1328635340861908 2.1068352067977587 0.898180436612866
Ni 3.7938232056032595 2.3215916259020783 7.4585948315898305 -0.06693969924534278 -0.48304009288931643 1.6586343330748143
Ni 2.7572820280657253 4.253952993222639 7.645043812560494 -2.393671075015239 0.8256938394073651 -1.6345150714291075
Ni 4.99015315379402 5.441658378843674 3.2037240724154783 -0.9467796856778081 -0.024291782667829134 -0.14611167889081933
P 5.245374584186164 4.51582096150819 7.9483228055150725 1.1782491613098418 -2.4547270617862953 -0.22866234520054168
P 7.754653565749623 5.704866904137347 9.175174330678129 1.686993600943798 0.7802588470030175 -1.1109924450447126
P 5.950216960196968 6.594968633955664 5.080779494805222 0.7709519677797948 -0.4959125779766104 -0.5291260886141017
P 3.4126269145459314 3.413723733916212 3.8180488518996554 0.2369860345748886 0.8625094655738177 0.0803559726512487
P 6.20551338678537 9.279204366865628 9.850693193951866 -0.25511514007543157 0.8703582721942752 -0.014128983202214377
P 0.7979004686856871 5.115631164658992 6.119728050242654 0.7074724591689107 -0.6965977212379358 -0.4829416196382392
P 5.394288906381911 0.6932395269971635 7.402972027729821 0.3754430251339276 -0.551394927314631 -0.6692578957724022
P 0.5070717817624694 7.740948010883387 6.985537574640396 -1.0480227861907112 0.8107122783968683 0.3847077382653052
Ni 8.153877067482584 2.273040963349244 3.2744811086804493 -0.716207010828431 -0.07067936879343312 1.6297479890577673
Ni 0.28198663538434277 7.143828296273359 4.724826923408499 0.5433915973941803 -0.1995299466109596 0.9705086538636318
Ni 5.3849612544722625 9.037585371569866 5.213388706481922 0.6517877640120968 0.5229821804998929 0.7849300272264417
Ni 0.46084787619855444 1.2528395820715266 0.45610905404747165 -1.256052799852882 0.2115385410360615 -0.04104560508740028
Ni 3.230770513143647 1.9970737101670974 2.2425306358063875 0.5935103684274424 -1.1227632124273954 1.3497371141819205
Ni 2.4980295521246876 9.12330602389331 4.9156388080964994 0.004097309997825201 -0.5350164859566077 -0.8808619999390764
Ni 4.025730193483548 7.3347592374229205 4.529323089192077 -1.235758311269904 -1.130504804046027 -0.9885274590385557
Ni 6.6849171968431795 8.006743904947976 3.289971573017638 -0.7381367210219868 -0.9416295089354364 2.3950083057694234
Ni 0.3676538529179527 3.6546302653475182 13.205659283004465 0.5867118574483702 0.7457538712476125 -0.7618736596276104
Ni 7.397193570808106 7.860895052274295 10.823192307146924 0.8089693275638327 -1.5918645837484326 -0.6270673784472813
Ni 4.480132146613686 4.101129494296918 5.683263312352637 -0.39608692663652434 -0.804363453360705 -0.9308645571094485
Ni 1.0805920683148595 1.5031956342314015 3.4588723815162705 0.4648076290416898 2.855007971899509 -0.27085337674629484
Ni 8.319534290493037 3.2610596019075406 1.2322821872246232 3.6572271252237014 -0.1760837997728774 -0.223000518929074
Ni 2.8864348525473624 8.465008162185427 11.973854259078536 0.2003197895021066 0.7240537605663594 2.658165342312725
Ni 1.16081924926237 2.0260597400210005 11.701994922546447 0.5724617752872593 -0.9065887152812192 -0.5239910813803814
Ni 4.685509230067537 3.516281032299685 10.93943359899021 -0.31647014614414526 -0.4829040815320845 0.17587554041681325
Ni 5.976053149808014 6.022522667914676 0.7101905422564868 -0.8549193119313857 -0.9157084181943003 0.11100069412029916
Ni 5.94458287095305 5.3677590019554735 10.056789303437345 -0.8352668278077809 1.566951622556837 -0.052443305401380653
Ni 8.209739859170622 0.2768306468915722 1.9801517559338244 1.4443614238267253 -0.8059943040959086 1.1341493427771498
Ni 3.4960133102608304 5.616221400159822 13.481222494179269 3.1687866872544204 1.056312537003329 -1.8646555438370724
Ni 2.5089508732048293 2.560520132657067 0.23786074841075885 -0.459411397726783 0.06370448013749674 -2.763611168053066
Ni 3.5243618724465358 1.379470659453972 11.74823288989716 -1.0221857705229493 1.027615940399585 -0.7675665962473296
Ni 8.774676831061228 7.365751415526737 1.9948744467118176 -1.8091353992825812 -0.22838132362501315 0.05736259707986895
Ni 0.6183323887217392 6.23988039372082 8.792466866266192 0.917413316700549 1.2613780687205374 0.5970602905622299
P 2.318544905429077 1.031188324029585 6.586515625184879 0.18660475390885928 0.5416260208533252 0.8590713864265463
P 2.3265413748551382 0.3575340536853239 13.834993613717323 0.9617849008373888 -0.2707926987116885 -1.3597070809104388
P 9.57101456650738 1.564842507555873 9.676976692200988 -1.3959143840689314 -1.502832680589741 1.5983905577924087
P 6.4471230075566 3.5350207068397728 1.5181667499095008 -4.179268796187196 1.083773204317443 0.9265283916279399
P 8.422710307495644 2.3487402489476485 11.636301066981378 -0.09245609834889239 -0.851232864218734 1.4874582550161997
P 9.125359044765887 5.286266260196101 1.7592504598544678 0.2717992855993319 -1.2734427131945554 1.1491954384769951
P 8.063947253644134 2.1665182410886037 6.12931912629166 1.398053027678489 -0.20058692712056422 -1.7031023335802025
P 6.029309823676069 1.2959061477729592 3.980911529147026 0.381908064032981 -0.5716271952011059 -0.5619166527815612
