# total energy = -340861.1176324124 ev
CRYSTAL
PRIMVEC
9.41569387685548 0.00000000000000 0.00000000000000

0.00000000000000 9.41569387685548 0.00000000000000

0.00000000000000 0.00000000000000 13.78081974170249

PRIMCOORD
 96 1
Ni 0.5517596678106512 2.905297121842777 2.8314761978228273 -1.1567526819989626 -0.8245895505995927 0.4433710564344686
Ni 7.140739917950792 -0.08919863544432463 6.041428455973594 -1.148619511368867 1.2897486494434305 -2.4999190849419013
Ni 3.067727258863281 9.362824868189325 8.148667361908599 1.9346455998729648 0.36692598880185195 -0.4739332454920418
Ni 4.122746354742388 5.190815602491555 12.461044852039036 -0.03803484328553449 1.4962601695785456 2.320350669054533
Ni 7.5573372985358125 6.0156303960105495 2.581588387176739 1.8598936036720548 -0.5460915128238467 0.157663902504793
Ni 3.3912693357456973 6.763792024757419 1.6131418896881615 -0.15224504548206685 0.010720985961929923 -1.1676521025202857
Ni 6.380799256022503 8.08188561071553 2.8000833324909586 -2.3484194022662908 -1.5684320637571054 1.969876398050801
Ni 5.200833900896855 3.0810410501650605 12.944076544708897 0.7222110509306658 -0.36428418030363063 -0.9376134457975077
Ni 9.231005152330125 0.8593440265189125 1.4244269013253328 -1.6576526858878355 -1.36004903763089 1.259256137281528
Ni 5.467505186080016 0.603059193376057 9.718014034141339 -0.10574998724432111 -1.5711036970519974 0.2784903244662623
Ni 2.127786774929256 0.6085683159295724 0.9944808913707693 -0.47831131995507953 1.3879017981771 -1.5229366504284674
Ni 6.26431770567292 3.9538570516447833 2.628512439745018 -0.45786950716095987 -0.5393246264136583 0.08081645722743501
Ni 7.166953210018793 4.669694602924179 9.378330633051963 -1.3647569846295204 0.5376063581709709 0.11285625927179918
Ni 4.03845706214442 -0.10575989960323512 1.818199698109334 1.0873604074480692 -0.23011681825888114 -0.3479142235860395
Ni 8.70791627271885 4.2183438958222785 0.9803422852754711 -1.631944482488454 -0.6461282517334742 2.7982143599492324
Ni 7.7434384902470335 2.4229876129019443 13.135891179533214 -0.5015548638640523 0.0912880461827202 -0.025818503725000694
Ni 1.1355232794931183 4.084678703941049 8.038449131201125 -0.926136812616476 -0.2067082095269537 -0.6998599369289753
Ni 3.1926452710278532 3.218039397718729 6.220248491522392 1.463975084292595 -3.227651065690796 3.3183323315274533
Ni 1.6366641764138368 8.898160369785645 2.9304775122800812 -1.0295157285254593 -1.8028966174617211 0.8500807528921618
Ni 2.555033305416903 8.592969480489629 5.546738251005386 0.1621985571503529 -0.1673821582338214 0.39083184888517203
Ni 0.19337481531845135 4.642125450921626 12.88371629681697 1.6507557016576861 0.03128878281095256 -2.911822152675075
Ni 5.800180486132677 4.773013013075821 6.360427460505863 -0.8845849573166185 -2.1382764560261758 2.6102122114722146
Ni 1.1531212115603213 0.39157234909855143 9.258285242527187 -0.9833400013003452 -1.0580320907975973 -0.06074231218537926
Ni 4.73033167221941 2.1536705177076088 1.3447362336720523 0.05097057751059608 -1.3824682858663546 -0.016334475493965415
P 0.7517612485592244 9.035196380115273 6.81354078552268 1.1245552713308116 -0.21754952311683176 0.5895089605775331
P 7.5940490894026 2.419720367087434 1.594620278040545 -0.10859054201690976 -0.36868745157764893 0.9225794342825208
P 0.274500434735799 1.7926351473572402 11.797442746307645 -0.7814621232824993 -1.235054343224344 0.16857155055623227
P 2.269775440297594 4.45034659573447 13.65236930039415 0.28138255841239285 1.0213067103521059 -0.6215438775258909
P 2.275114138789892 2.156269249248833 8.376947096417167 0.9073968130048116 -0.33123213494466824 -2.3383465914113213
P 4.986269066254037 3.398453510260024 4.8131445839997555 0.5976357034497256 1.4070876270769315 -1.3229817004649473
P 5.6914668833247966 6.067746262244884 1.56955287593112 -0.7090860835129337 -0.34945071483522394 0.5597533265816553
P 4.519683766276409 6.343644927538189 7.797077815768939 -0.15509794154982964 -0.6814086722023233 0.22673916003589983
Ni 7.840278902933596 7.98785107483797 1.2140802975900096 2.3749555008836065 0.3621892454478149 -0.791176779467102
Ni 2.4786626114644763 3.5917577078735508 4.0785848667907585 0.24353412010605152 -0.8525127593724221 -1.435822790228095
Ni 7.622296171372429 6.136744467803185 11.310662665860388 -0.5003089072720932 1.591355762432814 -0.09735739230525169
Ni 1.8759263763922744 6.671188674366331 12.275692208000015 -0.09363417781739357 -0.2812971977874381 0.6278153123568994
Ni 5.788862821956766 8.146496102874517 11.495712124552933 -0.739676811815597 -0.47910424817001995 -1.6697571824608533
Ni 4.7262170139458055 2.548385825460003 8.847644229960203 -0.2644911819736929 0.18446662451993392 -0.8255930521634427
Ni 8.060060032046842 3.902202554415957 4.252375038610128 -0.09830201560670812 -0.23345359594159795 0.23934142218094268
Ni 4.1437433523399605 1.4842711691866117 4.615761507749786 -0.1344977488009748 -1.2529903588774742 0.08072801127868678
Ni 8.260990941792222 9.319559754305537 3.608397122292578 0.7729728548645656 0.1494739104948329 -0.3102740446357624
Ni 8.28765618717174 6.684380061646241 8.802361332854371 0.9888907559152452 -0.18779286067968948 -0.8108837709777261
Ni 0.05298211008140844 1.690135902582722 7.459778468397817 -0.3032659887490455 -0.18053232246253426 -0.9161210802516868
Ni 6.358003860872851 0.48382261096501655 1.6390359897299034 0.872249318569401 1.1031161276204293 -2.46433861673413
Ni 6.394790977291558 2.2356529652780415 5.971670403910305 0.30025265584401833 -0.007090331187878111 1.1047688327325038
Ni 6.445861701493008 1.5691065720359967 3.616955046560037 0.4113477094503367 0.9028832414051741 0.5133557131537223
Ni 5.3188690407547785 0.650825008987037 13.002878495245488 -0.35959911612313555 -0.1117915654527107 0.5837003243155561
Ni 4.1165414124030155 6.4816695857367606 5.715787620900819 -0.2236453516019245 0.824074301526071 -0.0899076208954258
Ni 6.69441719143952 6.857158046361693 6.914071208683901 -0.24174000432010623 0.6108681429795996 -0.22014530886846603
Ni 1.6576517583174193 5.032236484312938 2.240789226349555 -1.1144184400071258 2.0601354887483745 0.2743410781845791
Ni 0.6488674862065279 2.363913548809043 0.09696375827783049 0.3133611682015184 0.7773756119179516 -1.064190139979193
Ni 6.083357482880208 5.742895403897865 4.498927810444979 0.9315520700947763 1.4904623319498462 -2.068598274803747
Ni 3.934187666899793 7.8985243859553815 3.550008520722144 -0.10082606758014247 -0.34525416025537314 1.576781464163065
Ni 0.6688306406040048 3.3608660598521722 5.70401894498279 0.6026845787275427 0.48689289097650346 -0.9562495728414564
Ni 8.810594415679176 7.88892979377963 5.56193894738275 0.7125488452505535 0.5129060272108135 -0.39101491143025563
Ni 3.2870187718890507 4.335654027242976 8.767040239989898 0.5818131345951721 1.317642547640221 0.46216942008789436
P 0.27847762387715086 6.927126068400958 2.6877145572761827 0.43402381089161385 0.2553773925978828 0.10013675482260175
P 3.752606008303745 1.7527031891458924 11.132228673765178 1.2903392318395777 -0.20585177506392938 -0.8871455189549431
P 8.179611098637146 5.881880462883412 5.407787088518203 -1.045352952668032 -1.6007156063811594 -0.2513235342434833
P 3.8552747355700814 8.805622929252486 10.603417876916215 -0.6335501579581475 -0.8063025793649469 -0.6314302834016674
P 7.866341543897757 2.9541645736505804 8.555628721264313 0.1904927761093558 0.14633227954205766 -0.48631927786122053
P 4.6738657553617236 4.747750706100804 10.577082180826345 0.5440012059537211 -0.31951098985299814 -2.4766863396662053
P 7.8032658098591305 4.200614144039215 11.848900455532084 -1.6045828026460496 -2.0686597241693017 -0.2581652397556651
P 1.0101815610989988 6.029499713257736 9.12717452842543 -0.19707531442287995 0.04112068129970983 0.4864935986555557
Ni 0.1529541825890257 6.323250534355973 0.5631197026095173 0.43889707982351506 1.616185419881984 0.6292124498147421
Ni 2.972073223619452 6.680623199744254 10.035936824850557 0.48967328193511805 0.16133029561278667 0.36324262641299376
Ni 0.6140341262907343 6.18350280415724 6.50135026931454 -0.44114782353090476 -2.0751011089192715 0.33999753984212416
Ni 4.468142257375462 4.286278127959716 1.069494783819245 -0.7057783592959395 2.740443471687351 -0.5859119872548941
Ni 2.4466774989806406 3.1328367828037362 1.496844886940781 1.4054973997716762 -2.5040963562480423 0.6216652335951035
Ni 1.347282237326933 1.1832231852461688 5.148444979536813 -0.817583808705721 -0.15388566640928336 1.1777447108695975
Ni 3.9193202860896728 5.286516716205335 3.4548375105799987 0.8411847359541126 -0.13953325434235325 -0.4996715307984105
Ni 9.40313345416027 4.2841972595879385 10.22443148597402 0.1448227848760667 0.23774322445588733 0.2048367035358537
Ni 1.9724937339531285 6.5156696567344445 4.446726261395336 -0.7274890115001535 0.4617881254890756 -1.588258354454413
Ni 2.3077865969349936 7.022798935032767 7.660344049216389 1.663203954723368 0.5690409225311683 0.10267726185626831
Ni 1.6973294927910385 2.470216733955498 10.298199682107626 -0.32240810889513505 -0.5001903794163579 1.255070895555587
Ni 7.221790211816219 0.8002596051626221 11.486093051572807 1.0646231137515536 -2.848155724864366 1.6938751585549796
Ni 6.43745348675999 5.467505186080016 13.235926337190566 0.4593003260702154 -0.8899343945539899 0.881700950900604
Ni 0.2800547526204663 8.615444742043621 13.268573372961894 -0.6443364499403742 0.17376517894202978 -0.05020593143042966
Ni 2.837965494120696 2.341475950031009 12.887891215532111 -0.037192807000213365 -0.16081118988452306 0.9742177272841028
Ni 1.9717593098219128 9.328655314699821 11.64662592625434 0.16041189756357532 0.6245047599264276 -0.3368888190098134
Ni 8.346344207811054 1.307086639683867 9.601703849422371 0.6955546246854022 -1.2206996171645685 0.6812428360484203
Ni 5.102195090658213 7.36013500361045 13.711419825252078 -0.940043138284923 1.106120975885024 0.35586356034010325
Ni 7.197808439223835 8.967648191431424 8.128905703362506 0.12099277233600453 -0.28457072633238734 2.6689866012979455
Ni 6.433819028879872 2.5860297700317947 10.560655561091492 -0.2665220963607926 2.725177032446584 0.09075788471086306
Ni 5.8214034603860085 6.720837628775299 9.413705395372178 -0.3022385759257956 0.21780997586707004 0.6121472668023392
Ni 8.217396278618788 4.005050179868102 6.754820751523802 -1.1840351718639994 0.9559772930166761 0.4254916050508865
Ni -0.0144333173171834 7.5428559611792805 10.979234003691996 3.119428448536266 0.06993297754571182 -0.08709766225045644
Ni 2.3174941774386246 4.305081268857632 11.347623031048512 -0.2709775610289849 1.4005169158379493 -0.038111719270056944
P 7.641607759745802 8.131911192884095 10.231556341616212 -1.95702962399512 2.282890981546178 -1.2555254665945021
P 5.328360060296641 0.7907883585781385 7.477706891324067 0.0702502516758145 -0.18595555036063457 -0.07423263336233021
P 2.5105912297843727 4.957711266382541 5.76697039186075 -2.5119988989245705 3.2134822303895816 0.10356300689533131
P 7.038353661504153 8.201549665633713 13.106194080688937 0.8659460020591925 0.797031438475666 0.717566610180119
P 2.3785361215754244 1.3789754632970808 3.405874960262897 0.7042578088863548 1.0108664888553882 -2.5327960381755794
P 5.652146945222796 8.138681076862865 4.798164214861758 0.2574116494190921 -0.4149120297628274 1.0303402813092837
P 8.58585121583323 1.5795297452828634 5.05910416711324 -1.1204525620163477 0.954383466166995 0.018516056526316497
P 2.4687102229171067 8.31901986385224 13.527142453466709 0.6144694871776127 -0.6481756211808063 1.0427646231155654
