# total energy = -340856.31605937326 ev
CRYSTAL
PRIMVEC
9.42760823246494 0.00000000000000 0.00000000000000

0.00000000000000 9.42760823246494 0.00000000000000

0.00000000000000 0.00000000000000 13.79825760545908

PRIMCOORD
 96 1
Ni 5.292593370803605 8.347477891098151 8.444699160114821 1.2050477695599244 -1.4949468500837608 -0.02865468762221517
Ni 8.278411231851408 4.528353722267155 10.680610165699179 -0.8654670055402449 0.6961256666975236 0.3878789369044352
Ni 8.918319580613622 2.43500983941376 6.9972756119097514 0.046225863736759104 -0.8546269775019475 -0.2883978133879614
Ni 4.259355771367981 6.588851817403424 13.532835044466058 -0.3704309166313169 1.5697582387676965 -1.6813664845650076
Ni 2.7830582868709377 3.904858839755088 0.9852793554295917 -1.3989382584969199 1.4829829928536653 2.1214154186047787
Ni 4.813124062044269 3.8774999201353704 11.153587623304091 -1.0878334904297458 -0.7898434053676591 -0.7907872573381671
Ni 8.800983566283158 6.6792531544928355 13.720449165724563 -0.25025035578396254 -1.5627751225816442 -1.3256571904145815
Ni 3.968334927211862 0.45734554009235046 9.212020693842065 -0.5309595422784146 0.8671415650291906 0.16808124118337503
Ni 8.674644185916572 4.512251367094695 3.275747930910332 -2.3190987989253027 -0.2999333248313867 -3.0249918294222353
Ni 1.8738220209150338 2.5366960237756735 7.89630177795244 0.801434195529052 -2.1248151883149475 -0.4546144905587719
Ni 0.2774215190177866 6.24392390833154 10.82496759126811 -0.28438740667698764 1.5103724406102117 2.443176380834218
Ni 7.062287456777295 7.541021412080277 3.092865526315207 0.9168160494361822 -0.1579948034816505 0.5084500483219889
Ni 7.35215813270681 6.589700302160755 11.915168686267569 0.8052880220575035 0.3011090903070427 -2.1276112630028456
Ni 2.880124943109605 6.457676073920051 11.060242044106742 0.7613612387675662 -0.3007411654446627 0.9883536524648525
Ni 6.781655837094272 2.0413034844037594 10.321538015722586 -0.5863346766146096 -0.851000950713586 -0.3471999711278343
Ni 3.609934965715246 5.241260042985079 9.123656662931092 -0.4225739171834593 -0.3734378217784407 -0.4811847848481326
Ni 8.770522963494976 6.8627144142446275 6.336546389963477 0.5112126986687905 0.6905425161827914 1.4215984190985969
Ni 0.6315064641429539 5.177614258576839 1.1976484908636515 -0.45439157591468843 -1.4676746446313693 0.7539963137620628
Ni 8.969445501047023 2.6641290067183756 9.346539467269324 0.9386220895676802 -1.0112596105287486 0.602235407005266
Ni 2.7213734450129743 1.0513951732425064 11.453974796420301 0.4406323173470669 0.38403616611957725 2.7588705680442875
Ni 1.036622110856532 3.1909343373283665 3.003825535880892 1.9669222005184834 -1.1403421018514233 -1.7629550440717765
Ni 6.882889496252276 3.7476440418300676 8.962051427767303 -2.1517307817588684 1.1425676487478322 -1.2858156329376114
Ni 1.77193785677641 8.431657006633802 10.332522122286658 1.7281963004343526 -0.9366809066809094 1.008729130797411
Ni 8.6745970478745 0.47357799626093405 13.43137606546694 -0.45452604461002366 3.572640916541189 -1.6895238235648191
P 1.287038245570156 1.1210651994277967 1.7450654017508955 -0.7247191620645004 3.296667959180142 -2.4490528942196534
P 7.119164218343717 6.067457934023523 9.022197683931973 -0.9133185778058851 -1.6655369737319186 2.092109984772442
P 6.795995229493166 0.7741376946111371 12.054833991128461 2.0685234557017536 0.9514184700014002 0.736071868073158
P 7.692193113011418 9.38609865493862 4.286566677535586 -1.8273025571099109 1.1880941724247216 -0.4575404059563153
P 3.008717521887326 7.6414348693061935 8.823241206989634 5.303385180208376 1.1469570360647796 -1.2729914845897494
P 3.8076601969986146 9.282215837816059 3.5051027884253174 0.33802473238646946 0.8033488960532615 0.909927292736149
P 2.041416615704737 1.1443891026459845 9.626188730155524 -1.972869419240854 1.7105665031677315 -2.573819788886109
P 0.868013105401398 4.208097864416774 8.557196925806815 -1.7805398470330756 -0.034745116790669196 3.048552904571627
Ni 1.4559055674958554 6.413177762202247 8.99272509450566 -1.0503254661819588 -3.211076963382199 -1.0194272339412058
Ni 0.6604143398252212 4.484600191614119 4.871820352034745 1.8507073091870965 0.43571559677173993 2.595681879066523
Ni 4.284093815848387 7.166660509537423 4.129197266832564 0.126480277813137 0.9994962993452334 -0.2599048481545911
Ni 1.9883297527210604 1.287792454243339 4.3510873440047195 -1.6517018676210393 -1.520889795201768 -1.2358529278662393
Ni 1.5473250862940635 2.272336456216577 13.33845849969162 0.4098335867986555 -0.2394982594737811 -0.07862613444433555
Ni 5.398597399819491 3.314530283646249 4.556998567674649 0.8533313986189756 0.01877830904876766 -0.06389217066827062
Ni 4.767296457539979 1.0248753107717052 12.588205650999353 -0.15449424652755975 1.0229473312793222 -0.05251143963515472
Ni 2.1279526333440844 4.858225740700619 7.199696734944526 1.7632347800957247 0.9452272535890238 -3.273624189986801
Ni 9.003234049605625 2.2275930266799886 4.526339042348914 -1.3423336226289977 -0.4000171149288659 0.5245284419410903
Ni 3.6514541531739764 4.9765799367398795 5.099201068347673 -0.707131273779408 0.04890161079670933 -0.6120883885399458
Ni 7.592967534445764 7.835521043741454 8.128374614973408 0.7014859025681724 0.18862615521426226 -0.7790144330729551
Ni 4.651487715772713 3.2180198563040547 13.701090514605637 0.5942179360174283 -0.2199239368862793 -1.5328932474205472
Ni 0.28879969961359536 0.47678903968701114 10.837938094925176 -1.9597369956239539 2.7784798576347827 0.14652845471326378
Ni 3.2485087419174823 9.458342418221147 0.2311234768535996 -1.0616756010874555 -1.4004816917246399 -0.36479377295019755
Ni 0.052950162661662054 8.671551930356522 4.914608495586106 1.0826977118650771 -0.08854827865405394 0.055416786207407795
Ni 1.447514996006693 3.8914999186313324 10.993417270141034 0.16796091355542686 -0.024371229755512865 -0.22959359876555943
Ni 4.061696533343516 6.6153999626994695 7.026279649197851 -0.6758450620716168 0.1528806221835367 0.11592255690194875
Ni 6.621245079916639 1.4413870505370803 5.81512422375833 0.2732468166791358 -0.8723920147948524 0.7465771384798562
Ni 5.325985959808786 6.139183178843236 10.399029185848788 1.3461074878491335 0.6482231865892901 0.16418267745991724
Ni 2.9520293124892003 7.281941305233462 1.5814596280814899 1.5426325861954981 -0.39165588744836416 -0.5445696768626815
Ni 5.665181882964478 5.547940144718162 3.620207287844 0.7129594504254109 -1.8982133251878597 -0.08825491578335123
Ni 3.4077976136937567 1.8447284213469954 1.6371353123358674 -0.9613323866810025 -2.1261416204358548 0.9475420177651295
Ni 8.901500727201638 2.706647520669074 0.7191389126409414 1.5292988452010694 -1.2657029213481366 0.9727331723187764
Ni 5.200693043976242 8.586250929419512 2.111795598042819 0.062086227807783397 0.08341095742748861 -1.496057052428804
P 1.3842934539771183 0.38729369576626127 6.262781010682802 0.19589749206469487 3.1378041228299764 -0.5989073710732976
P 8.685363376684187 4.2904763067452 13.06685381506576 -0.23126147338628558 1.76153425246485 0.3759438760297461
P 9.082275118555216 6.8885083508674905 2.192046229152027 -1.105797273997018 0.1522123924719185 -0.3294966403108003
P 7.218380369300955 3.450231279168721 6.145812673080516 0.8662501635631727 0.9495413075833453 0.05504294780775681
P 3.522823863962596 8.47842737197957 11.987387937768219 0.564857223467124 -0.5849956460882119 1.177142044288592
P 0.23807162425529907 8.441885961763848 12.370221431993443 0.32770329585580343 -2.578067251308554 -0.9579069059392213
P 1.2779877414919585 6.432136682724388 5.712037096785979 1.1629984057983582 -0.5660527864371219 -0.9089191631866088
P 5.699573798461628 6.163760953980591 5.7305133237572825 0.09457854400853388 0.1987367612857029 -0.49370142925790456
Ni 1.8087243848109162 8.895005105003849 2.692689003650137 0.107641290729763 -0.7412001904386589 1.5091383110927945
Ni 8.695432062471182 0.7430171592339189 2.5375133974252355 -0.5161535876138338 0.42262508213636896 -0.5707612476563847
Ni 3.9814393029084187 9.131506089697243 6.691630661580612 -0.5935108826480746 -0.3182015270129552 0.28870223200225764
Ni 7.740717013522336 5.824885569511003 4.79646736349702 -1.5417201016835578 -0.557633194914859 0.31233555515048145
Ni 4.087999560820778 1.473865161526028 5.292294515616855 1.1721592463620198 -0.37239601077748763 -0.12662374536953677
Ni 6.458911090622388 1.3041304996261682 0.5813355604419715 -0.03389433875459969 0.2114110143192617 0.7167160892543656
Ni 0.7179783740450809 8.375562736565808 0.6338699655725415 2.3052750056683333 0.49311187530302175 1.3126402093296232
Ni 5.012027744379486 3.260585508296827 2.13151344104235 0.6406479453451935 1.6684716308802103 1.027509753839024
Ni 5.882261994323408 5.1624640918542735 12.783892633343443 0.0495461863592437 -0.6392888602141377 0.30539280528406115
Ni 5.8442970152370535 8.397415932871288 12.00778174029109 -1.811256816500958 -1.7210985130473067 -0.42464802610366864
Ni 7.100818092368537 3.952204289214158 1.0325390136520871 -1.3525645563283868 1.614248864980904 -0.9614447438891506
Ni 5.8707037464068765 1.1536281588924777 3.550292143839925 0.2319890955809295 -0.8661082386686697 -1.1072098380738287
Ni 6.70493395981472 3.000364660831823 12.483974012365445 -2.16267082571014 0.46584121251252675 1.4778083906312611
Ni 5.687657301425335 5.956674107541337 1.4136312286031 -0.3013147785599456 -0.9160069232713256 1.2616272086168658
Ni 6.664385816022713 8.310276548293395 5.770624969279685 -0.6270668642266491 -1.031742560973449 0.7737351869518868
Ni 7.796660441855694 8.507040163518454 0.9615774051139707 -2.494113791114034 -1.327875538222139 1.7615612490480435
Ni 1.4859136450801285 6.59638447652684 3.169791039936519 -0.07545776401868295 -1.7778119065789513 1.882503627762087
Ni 2.425214554270794 8.142248283516611 4.938079469495564 -0.5335203610270554 0.5349804905123495 0.9343363177081329
Ni 2.0797869819529278 6.205440410782373 13.474716666871409 -1.3708672112923164 -0.4424670565629605 -1.0128390392007265
Ni 8.636339812927286 2.5761034269494916 11.838284654123283 3.9181403600381493 -2.1973362383028094 -0.580800891280574
Ni 8.404354652664573 4.8672102515199125 7.7360758018997355 0.6854005669705356 0.26091169215255067 -1.2973110351717208
Ni 7.455541286583386 9.129328312153428 10.190220858112992 0.0513870962227244 -0.535091305058601 -0.013752830809718251
Ni 5.2967038080724524 4.121005617880954 6.798718865564199 -0.3349738613752876 0.7035263300369691 0.7629748631115892
Ni 1.4375217310870168 8.112004515721969 7.2776149757319155 -0.3246184862828926 -1.976894481239847 0.7001628128813748
P 2.6501101530055844 3.0287229069435084 5.125997159745028 -0.13178909162056013 3.0444432532786276 0.9844275779375691
P 3.58876055721563 5.352072152292508 2.487687544192235 0.6324983196548656 0.1423097886462259 0.7180790310401634
P 7.0312517698758095 2.8780037312162774 2.8168317512560774 1.0655772501347067 -0.19705911647296384 0.8790095201113701
P 9.522261603273416 8.019642236082282 9.141538950572262 -2.2214590994929417 0.4447077729680212 -0.26111480930229225
P 4.709590066433057 3.4770528251087955 8.791573870324358 0.27620075710113723 -0.7200896337122888 1.0088314607032303
P 7.491451047035317 0.49787388590668663 8.11672869029862 -0.881574709735385 2.126710605565447 -0.5472562225559091
P 2.8332320188544444 4.105478346821797 12.736744220900242 0.1253821596529518 0.529838541300094 -2.2174412365828005
P 6.345440395741988 7.164944684805931 13.734344517767122 1.2837309824944407 1.2927005329829027 -0.3607774527019528
