# total energy = -340860.3982781189 ev
CRYSTAL
PRIMVEC
9.37310464121004 0.00000000000000 0.00000000000000
0.00000000000000 9.37310464121004 0.00000000000000
0.00000000000000 0.00000000000000 13.71848609035038
PRIMCOORD
 96 1
Ni 1.7838986690981322 1.517383808640609 6.051566992756954 -4.71941386161962 1.4594792533047705 -0.10598344341136587
Ni 4.341359673202222 6.614496917824055 2.4471039434001867 0.19420802017741393 0.6989528517336736 0.9799368891560671
Ni 7.458863686110456 1.9267729048002504 11.07430264112931 -1.0508826242370095 0.8216299537506367 -0.3750190502226316
Ni 8.152229736876611 4.339007023910008 9.98180354542081 -0.4294971266658538 -1.156947571618588 0.7135160942598292
Ni 8.144618775819724 8.131665145055416 13.10190859489713 -0.7537500020792115 -0.6623889365667108 1.2072242083859532
Ni 0.6914286300143581 3.1724304067424143 8.702157291034704 -0.36127393272239716 -1.1867841953640463 0.01350137692054449
Ni 3.065023999413767 7.192423810490931 5.655720158339911 -0.2533030265673573 0.42788761608688886 -0.033828775623986895
Ni 2.367252589415178 8.265044425645927 2.613714629570851 1.705464920275108 0.036038124570479876 0.22506588609853498
Ni 0.8816801609851195 5.652216491784413 13.23095843840368 1.6932763486287161 -0.09415379776628946 -1.2956645007072332
Ni 0.965617251330592 4.544399868293692 2.460492486224887 1.0907025844474247 -0.8967462752695008 1.746741924647024
Ni 8.270059036687103 0.5939464659948627 1.1401697691558126 0.9658032779681625 -0.4182441794598539 0.958530141345517
Ni 7.936114060659086 7.748942531909128 3.350589695275381 0.7088485135808308 0.1510484540708044 1.4562108669661435
Ni 2.3291509186069965 0.6894152871140883 10.399257260907232 -2.2985420578198736 -1.9778537598293229 1.9584321607696016
Ni 3.5075751401784134 0.4577918090879193 5.133773196481099 0.09905946259802295 -0.3201637929456486 -2.850601872412013
Ni 0.5718409357527925 0.309026577050514 8.128024631170572 -0.8196674307076269 1.3549770224246214 0.27402791781953456
Ni 0.0326783923999124 6.717469846606018 9.661641719927465 -0.35461066176960865 -0.37650797606333225 -0.2419518632205962
Ni 4.006374282546971 9.196121785973284 11.615291065287462 1.1396371053645986 -0.6076496360423018 1.513777866747335
Ni 8.797389909914234 0.8245538994661468 12.374870602627578 2.673298855520054 -0.27509826806557786 0.36373216445490264
Ni 1.2192066003380582 1.0286045152496521 1.811800527317516 -1.010598322795666 -0.05743510218901722 -0.32470770356258916
Ni 3.6963869622595964 5.227886666653494 4.341653988691368 0.26662082672218596 1.8044325944902728 4.596104525335297
Ni 0.954219555954762 3.4909941178759105 0.5340157715347319 -0.12453755226446939 -0.7974687831234007 -2.238660293862577
Ni 3.858850986888922 8.791850405007066 8.856531388954426 -0.01774575401919524 -0.8429019757555355 0.20975908053813552
Ni 7.759796587209466 1.9504493673983971 8.717891921978294 0.4844500858629657 -0.1906041048762395 -0.5661072938241412
Ni 8.041805189818508 5.362859375051481 5.677025225436343 0.6487638895841085 1.7815214942200546 1.095618019471171
P 5.426052847275037 4.2176909291325675 5.5709263662203 -1.5850557883567153 0.514610668606746 -0.30312226408232956
P 0.9859193962187891 8.835594684874664 13.950328293677371 2.0406061604661954 3.6739187269467695 -5.801668058189376
P 0.5593578348469288 8.994440691070544 3.6316263069218624 -0.2664915002331733 0.5158355421527826 0.3688440317601713
P 8.679129447285248 1.8355069838508624 6.634822495474126 0.32540472962961375 1.0663244127133764 0.8313476952590328
P 5.823753681811604 4.399613519222603 0.48813911033654145 1.3530440670679666 -1.2535860834799442 -0.3016441368749063
P 7.221424196586999 7.539866057358747 5.561789463710137 0.28475173199494186 0.3582012073343444 -0.6926078833522523
P 4.5264503726977106 0.17545889705453196 0.5883525970801462 -1.0411895653189616 1.9810488697278528 0.6622498398856852
P 5.104114818431591 1.4429613569267195 8.714325455620973 1.866963623144959 -0.521734681246037 -0.5424901686258334
Ni 1.6896895932572882 5.262782735637224 8.456047679617626 -0.8281273885495222 1.9458838917909458 0.35424607934133834
Ni 4.02718257509166 5.330784610597459 0.6358283099486628 -1.336561496031911 -0.1851731636686553 -1.2060271027540586
Ni 7.750039185164861 4.17729284766067 1.4875913951931785 -0.013708864945660263 1.4404559181247323 1.5562393783456554
Ni 8.865654231807465 7.671623790827531 6.946780979690397 0.12367751825701925 -1.260479468165668 0.15757545655604474
Ni 2.2669791148011744 5.428039945482007 11.091162981953358 -1.4279544432236115 -2.865301897626349 2.340472122394756
Ni 4.941416466183519 1.9871731918083493 10.823735181093198 0.27907679309735167 -0.19580981744689505 -0.28665486255492567
Ni 7.877644633229457 5.335236835353643 8.047085997034578 0.2808120306209035 0.9114475860354175 -0.9799659426217897
Ni 6.003557950228171 6.189304767056149 6.578987847789684 -1.1005108287870982 0.007589125201167574 1.075310932482703
Ni 4.040970412178704 6.375407761864622 9.881988415629074 1.941330210981992 -0.8918354682314448 -0.5607138907227117
Ni 6.217620916505477 0.08192281013472763 4.587201213823454 -0.289708818889901 -0.07359448555769905 1.2265013114480101
Ni 4.92526660669951 8.664469911456468 6.256878291129317 1.2090106108624146 -2.4587981465318753 2.878108305362398
Ni 1.027329773003671 6.89961739121005 4.114215601936012 0.11528338065605308 -0.4572606699323673 0.8667661839676427
Ni 5.012295884301961 2.5531306297096545 13.266050405276681 -0.13254833838408786 0.1034953868821895 -0.9818274213105607
Ni 9.224812859612607 2.010231029493005 4.292857605363596 0.6094465800417246 0.21013009072430908 -0.6874859887446547
Ni 0.4371990979524765 3.4896068983729314 11.435085627987602 -0.06061607102016012 -0.3826122891888572 0.8617324781984772
Ni 6.680586679415319 6.397743870483539 10.175042284875353 -0.15289579169218828 0.3332139412613874 0.4437592930118228
Ni 8.120998551850077 5.767083890493949 -0.1431057513894397 -1.327850084300842 -0.486462231196988 0.7208499089170811
Ni 0.3195010216084827 7.785844445309327 1.628521648970176 -3.4369738300224615 -3.0108394491812533 3.1894598993330554
Ni 5.0972255864404445 2.228596250850497 4.246708186817185 -0.2029446287194634 0.14098849873164107 0.26950766135167775
Ni 6.065532918834245 3.768653599881018 7.686303010176287 -0.19124328112213515 -0.4585598483597651 0.562741719786018
Ni 8.079531936436695 2.6625710007690215 13.643528766315423 0.11835507760284135 -1.399406713492906 -0.6662137096294398
Ni 8.692767314696296 5.40303250200938 3.582788681933191 -2.687518598663862 0.6276505046442611 -1.4723404255381547
Ni 6.522124970514183 0.7304929186803503 13.471800364951337 -0.9209763514614592 -0.44735729477572633 -0.9882970881953045
Ni 4.933121268479893 6.443803307224352 12.21695722035431 -0.5026131299252377 -0.44473939753690506 -1.0742925185205177
P 2.2159050670191864 7.159617943866421 10.249478796246368 -2.018313924726898 4.557313777720345 -1.8014496006025493
P 5.885381845541934 4.269524198399295 10.04795423219295 0.7734423383018164 -0.43886057015862484 -0.7299014775963881
P 7.416806565097834 6.882755175765052 1.4597017220099697 -0.7939394298139036 0.9492908821354361 0.9417490652324362
P 2.9150074578922553 3.666064968393798 8.31155095948331 0.2664531907960701 -1.356902007361476 0.16498049077086427
P 2.664501860347493 9.367443394591227 7.08997390095401 0.37375740990138856 -1.8642688499216151 0.17257732928151567
P 4.548927077887876 8.159447027534002 3.9879776898544206 -1.4499358325907092 -0.0735695458570346 -0.20091268589109915
P 5.4583994317668045 7.301236183532057 8.594644967622385 0.524642084700819 -0.09027888819191549 -1.720055416494773
P 1.7401356430210355 6.123468079293132 1.3820277402583536 1.9074901225040954 0.49979468663983595 0.3976684121910313
Ni 2.913657730808275 7.296662108414127 13.611482121175653 -0.5372613161267263 0.9442162958260061 -0.12925449812416448
Ni 2.94818824870676 1.5822644397191408 8.587168979273896 0.28417837598997514 1.4125555921700381 -2.6925170803197176
Ni 5.448351463474955 2.4063665555363443 1.8769079875309946 0.5175214144956378 -0.6877515837012155 -0.46712290743842777
Ni 0.6439510425248915 7.801553768870093 11.75143353715823 1.8939141835918738 -0.1607101455302845 0.6007819623881911
Ni 3.813091489500105 5.090017668887802 7.068477622520681 0.4194325433410003 0.33657077354876225 -0.5464452966188396
Ni 6.308371316693623 9.178097305539303 2.481660705991971 -1.1285052571174952 0.020706122199099824 -3.8885994131562382
Ni 8.305245671918076 9.4965485394158 5.475994624003242 1.3888903873426146 -0.5917211377375036 -0.3778878871299943
Ni 0.7317048611245073 4.314486981884373 4.9969586729997655 1.0688615773129335 -0.5847475346331478 0.6743088279327484
Ni 7.094924774882886 4.0627253883031305 12.259031212955481 -1.5097461198801223 0.8473147601112504 -1.1029420639364103
Ni 3.6980085093813218 4.132123855871094 2.6911139793532954 0.14158833709916907 -2.1596168693751645 -2.3559910439659615
Ni 6.01703647485847 9.03691022869216 10.006593532863242 -2.8660644868239866 1.21349178656222 4.051358470795752
Ni 1.6215283755163052 7.616828620459849 7.862873557454153 1.3107136817308715 -0.48012960411074085 0.7841085597664109
Ni 2.6411440833108415 2.947963294192763 10.562534871028847 -0.9358828362596463 0.018762625319483816 -0.9309082658631903
Ni 8.283884366193146 8.788419848668617 10.43894486103909 0.3881774419814605 0.7363924846373705 -0.0705767817772978
Ni 6.221941917795162 4.151291855084558 3.2761663062510165 -0.358182438281267 0.8661660884897986 0.7775154799299254
Ni 3.1544434187274324 2.8241726997613608 1.0198556592761328 -0.3109805837844838 -0.17315788437533405 -1.1238531030574646
Ni 7.105619487402477 8.753898703874883 8.34333609500056 2.4289944329068813 -0.6262124866461537 -4.477010512683903
Ni 4.252680729163795 4.226117350302691 11.446032477024964 1.8850631609591468 1.097177393538491 0.6784776145984572
Ni 3.1674720343297382 1.2877521153737854 2.746646813064792 2.0759092066428635 0.2068501344214567 1.1631146196612485
Ni 7.301976658807297 3.3187539449924808 5.324459639512254 0.848609567663274 -2.142222070937485 0.04811073946429779
Ni 3.6846049695890217 2.553655523575647 6.128555800551355 1.647820273178446 2.4178358451869006 1.0313964904879398
Ni 2.195237371045745 1.4529999521138197 12.989101404611615 -0.30264763843875614 -1.1838184278675032 -0.4343194877551616
Ni 6.368762230596971 1.280478586087894 6.668322909160602 -0.4130652063620757 0.8013138679011038 0.8567046859665826
Ni 5.390444422330319 7.662794326153163 0.31343287359342326 0.8866369547496407 -0.45723187357696093 2.886837971925912
P 8.374700378114541 5.902853312795673 11.539675417338914 1.3475570758114663 0.3102586180167947 -1.3615042820201777
P 0.2941055315992116 1.5108038891062072 10.20204057579685 -1.165782910522031 -0.14890955335093062 0.2796630046181248
P 2.6247598962080856 3.5798792702188345 12.689270780631187 -0.8495709031352787 0.10745539997120203 0.5449977655390356
P 6.157379972278125 8.270846377486091 12.198793080659556 -0.010374144145472457 0.563503794763023 -2.81052274500294
P 1.2738143086107432 5.968483792254194 6.402719114484765 -0.13806566865789127 0.4338098951085948 -0.7197733880234507
P 7.112199406936878 1.7583944510737628 3.4386621994364917 -0.40554215851215314 0.14046116547326135 -0.02716807577435966
P 2.390244815366585 2.9754358642146035 4.170022130306204 0.4337918973864658 -0.6437749210099494 0.33031836488114724
P 9.045749066471277 2.5402894762023465 1.9909777350263174 -0.1381713409978201 -0.3296197961522259 0.4840302247167277
