# total energy = -340857.27592855797 ev
CRYSTAL
PRIMVEC
9.35314492237830 0.00000000000000 0.00000000000000
0.00000000000000 9.35314492237830 0.00000000000000
0.00000000000000 0.00000000000000 13.68927302427241
PRIMCOORD
 96 1
Ni 6.975004786424193 8.76860122950126 10.205777386933795 0.03889436307235237 0.7974104190816397 0.8827954695163636
Ni 0.10255068459580466 4.546376582939972 7.869402055714453 -0.24222928525169893 -0.9749746600547854 1.9621142376068785
Ni 3.848370099168485 1.4167301830861183 11.229762476246755 -2.5198921856297183 1.1812496386990623 1.3351846702890424
Ni 4.225460834632587 0.10394897973065803 0.4958298429321759 2.037740923103258 0.23108920947447945 1.303499937591252
Ni 5.606162704277534 2.618768282390135 10.222998396982572 -0.23689630307455972 0.7723503907892183 -0.5145489621308752
Ni 7.603498698675744 2.2505817406944635 7.566622055008946 0.5941150918909768 0.04931478707472797 -0.09667450730561415
Ni 7.028635718218501 0.5446177163931936 0.09636264405253384 -1.5685706462174986 0.03617979235466672 4.157570742388471
Ni 4.686075152399303 8.179166049578455 10.853046801885714 2.4371566570026997 -2.1398057481865083 1.4732799066332884
Ni 2.6152140873985346 9.002186665607134 10.716141081438204 -2.9059042445287435 -1.0459319650999535 0.2766810391716654
Ni -0.1765228355157266 8.739194942518123 10.732033944937488 1.0325915392373055 2.015395979749155 -0.8874334825090071
Ni 0.46015694899016424 2.487160183109053 4.03411887663083 2.3275556714434043 -0.09904686419253264 0.36494932469145536
Ni 5.803710473797521 4.539913559942088 12.06391801105833 -1.3606095381200503 1.9814880141478006 1.5608344539155055
Ni 8.881203738721993 5.010199029343842 2.2092567414013353 1.1794323829846656 -0.6933223929207737 0.44709092848821713
Ni 3.040295808393959 1.1554313791904758 2.5775396204875687 -0.9149324592602243 -0.8560117736646161 1.0929350733223695
Ni 5.471150060320287 2.8008272442625155 6.185511452939965 -0.23826155885320255 2.110830701110397 -0.44341502229852664
Ni 7.834549432563923 4.194576750784521 6.058338614882612 0.23262004429670907 -1.611892191823269 -0.08311013835761816
Ni 9.137161896985521 7.342106363332955 2.3258212427232325 -0.6469240081618923 0.9461281681367384 0.7523191831699559
Ni 3.7505174991628936 5.694718278436675 2.985535016718109 1.1422897124960973 0.6504518188094927 -0.1885503076710043
Ni 6.8240824433071765 6.112392308818027 2.0501326256839647 0.0059940127999058065 0.9030084541291287 1.2546746885584328
Ni 2.5091026606098286 3.4320990404943443 7.2583676587019035 -0.09210745676022201 1.2760559824476863 -1.0965726700749567
Ni 7.761548138065392 -0.0821308990545881 7.641968182887463 -1.0316556576865974 -1.7184119673540792 0.7657783939986553
Ni 5.940172855185551 1.0998643464402158 12.000152946965601 1.413296584101121 -0.5026786930558504 -1.7231489678184324
Ni 3.5864165751428105 7.5927519353985105 8.726952611401002 0.0014483024107523443 0.9963744658868001 -0.47044348717122847
Ni 2.585761034691824 3.385660676985669 11.486477303917704 0.4670396036960021 0.7763543697422888 0.21438706622845013
P 5.618387264419697 7.425330645004696 4.239554153088755 -0.13935122023853422 -1.4718675996667943 0.19635129177266183
P 3.670557464996596 8.046585223247039 12.682494783968842 -0.7530568326669289 1.2730814732003946 -3.2586243741438587
P 7.935572748627812 2.9760209979142775 4.080936042500452 -4.228482538907685 0.5985769843170724 0.29563186924255536
P 7.81985564221707 4.3427679756448345 0.3039921682605369 0.8343844252028275 2.204383632067894 -1.5408654669927462
P 5.164002141032998 5.4024886249693935 0.9682871125366924 -1.3298946255346968 -0.12828313534983068 -0.2551531924022186
P 8.292647754402374 0.49812323401622977 12.36876412143132 2.847358682884367 -0.336394138761582 -3.4027650453512366
P 9.101601240780086 5.061837741313911 10.131786529724446 -0.3545309575716088 -0.24609879550943425 0.062103454198964014
P 4.830272584466423 2.1850349025335776 8.238067478419518 0.43469743991987075 1.8380723940319053 -1.875209408093519
Ni 7.0563864985871305 8.489381800332177 5.406496447479658 1.2853502632654188 -0.6303033688860757 -0.9075500507532241
Ni 1.296822867843174 3.804429025298645 0.5065335817437224 -0.42332082265181287 1.0900292125294841 0.20127623987810495
Ni 2.732942119922945 2.2890699311956113 9.10643307533972 0.5084636751687437 -1.594880744866937 1.3535642012374947
Ni 9.542358832317412 4.5527180150565645 12.374376943574635 -1.3791384501621733 -0.8703790981298816 -1.460266010872124
Ni 2.434894810443095 5.184962538338727 9.313373272782247 -0.2374434338272814 -1.0029161236600599 -1.6088580329826356
Ni 3.551847352277138 4.892676766003156 13.114295804127336 2.614563032241742 -1.048272440307672 0.987970558093821
Ni 3.1913865081158406 2.818308271734361 0.9157766874792089 1.3596098932109424 -0.15160406946395827 0.2760709163914923
Ni 5.639628256066867 0.7025203114108193 6.636586498412119 3.381307903918725 -1.3276726781827133 1.2822520839560692
Ni 5.078308629156566 5.932942874321059 9.03760328338396 0.7500015907803728 -0.1510458829676431 -0.5755738385536797
Ni 1.5111688852708305 7.183991451930304 7.884706606411179 -1.507059831297211 -0.02312373050165695 -1.8909975241657109
Ni 0.48569477531928557 5.805225683241308 6.102732380956646 1.0514585513451375 1.1132367609941989 -1.143285243640147
Ni 4.451863055597541 8.23152495369156 2.6206332994462533 2.1595639046500423 0.9018799969516402 0.6349431816509323
Ni 5.877834145661822 4.888177903395366 5.017638520649944 -1.198297852430601 1.0307616851174184 -0.4406994231395765
Ni 5.3972789233632845 1.7141882444489391 1.912802272466406 -0.6172480783640144 -1.386918094107592 0.9949302772411058
Ni 7.489324861142935 3.7433716966008337 11.113061419012022 3.363019390022182 -0.2860421686715912 -0.8178203501965593
Ni 2.4019062690342134 7.735200329403973 3.4357748263672367 -0.895778769149909 0.5678502446571768 -0.3499263689200619
Ni 7.8978795754274165 6.057152636132783 4.72044421796808 -0.06341240281837465 1.0762825523673527 -1.2346578791168736
Ni 0.039870585289986236 1.0680636544101056 8.690443546321493 1.5598913732759458 0.8193277879800211 0.9306863796603714
Ni 5.9600015219807965 7.6818874045299665 0.37275368225987815 1.539496868779994 0.13193770138328248 -0.6744389257527095
Ni 0.7694935041407026 3.11582245196547 10.100519902257545 -1.6047332121809847 0.6048718161868486 -0.21170334874869992
Ni 1.78420588578347 6.235330042948547 1.4894480772997938 -0.6251781318443684 -0.06489592934243661 0.7135849998245517
Ni 1.1142307767220538 0.3489115810675389 6.484170458084159 0.41917569013518774 0.01976664110396596 0.5148973466092294
Ni 4.583106382234749 0.5152413594731436 9.464462101875187 0.7737578126597061 -0.6429228574222992 -3.330057590384181
Ni 5.620033417889491 4.045347326860873 2.7485600009676148 -0.15936725834914486 -0.2418778154495512 -0.08865472232493118
P 1.2148238481290636 7.2806936151359825 9.898877325981447 0.1702610224435132 -0.5228518255696156 2.0946119252586892
P 5.831844733099453 8.194860626409785 8.57983419223947 -0.1201211683643286 -0.9898191812667855 -0.7674804642914266
P 1.7640217994890646 5.762070273527506 13.150531757381174 -2.299352212425995 1.0459039400754953 -0.43526591082883104
P 3.1247079394444714 6.006112525424457 6.904650431879932 -0.026808121331779643 -0.010945186157594053 0.4549351071229843
P 0.794259696030858 5.131079071637119 4.077664312479237 0.2042877730109191 0.10052961938564622 -0.5823569229137842
P 8.90140653130583 7.694336440145283 6.767442604858136 -0.08328677314479849 -0.4777017113955386 -0.6997380666391304
P 6.853161370225298 9.058941547736165 2.0250680684774096 -0.4836718129360444 -0.4594502213845184 1.1628233136730748
P 2.154468825605813 9.400378095547685 8.603899833590491 -0.09274843277833059 0.9671880741308311 -1.0786538808130066
Ni 5.324343100877756 7.694196142974562 6.553547409005729 -2.533386106351095 -1.4112839245464663 0.5112903459842614
Ni 6.784209987388246 6.038474406137451 7.173822712996441 1.104005472203918 0.2852716090541539 -0.1664393347045779
Ni 3.801323781253352 7.226772735855517 0.7443597336632579 -1.9199612583879127 -3.8865397024137325 2.264312704323358
Ni 8.400985229633188 0.9546100090203307 5.61399783360507 0.06382223666228364 1.7855020761343574 -0.9436195427822716
Ni 2.370797709712994 3.734907100633995 3.020606503454963 -1.7488977946477624 0.7426436077534049 -0.7694722979104748
Ni 3.5490881745862906 1.0174444352139422 6.765649607016321 -2.809120979559407 0.2074584574294169 2.1131354379841736
Ni 3.114746840323275 4.6074993836507865 5.221813928514795 0.1237263692170837 0.5846228361298254 -0.22444265069223926
Ni 8.221591914004508 6.696767437450159 0.19295444015057875 0.016505710964507057 -0.37325038835798297 0.3568596057047854
Ni 2.722073765764419 6.2578150028427775 11.26465625323403 0.49964761953901055 1.5150659894311391 0.7194455723703868
Ni 0.2492098643518435 7.950930612249412 4.550533120451202 -0.7892420243382342 -0.9582714883674914 1.7958538516823264
Ni 6.45124738868828 4.063688843646474 8.316438413298783 -0.5894390265715461 -0.18116712783305575 0.4962905301413195
Ni 7.606819065049476 2.9654332380971935 1.8247938572730766 1.3406127832831491 -1.6150374223204704 3.6845993465890667
Ni 1.0712530767578314 1.349780373218022 11.78865402678911 -2.091614276082946 0.5185251731698037 -1.8137297035214828
Ni 8.64370868812536 2.3780744563010603 13.407820868137609 0.6901092853001147 0.03002534271749668 -0.7717261269416581
Ni 6.202313442105521 2.8635213732854057 0.19562289233769356 -1.5966805170798373 1.200579706486242 -2.9734183282203177
Ni 0.5218474855851634 2.067905471270911 1.6903377254263565 1.2338250988029331 -0.6490688224190371 0.16598296389344963
Ni 8.723846432041238 0.488269696059253 3.0015232822934825 -1.1303191703977824 -0.6103395241696392 0.005634058357325781
Ni 6.4103554399954445 1.2754322258805677 4.096829841314207 0.007654174111148108 0.20617059185592881 -0.03632685945549228
Ni 2.2921003500831865 0.8259565681546345 13.431914568922776 -0.7239576013081274 -0.47767265792981606 1.3522344266824777
Ni 2.5829363849879727 2.173567947113309 5.035530151174767 -0.11991188056699993 -0.7887242041615513 0.1942671555501235
Ni 8.331463304968537 6.914873419053141 8.908335340910506 0.8459654451722075 -0.03705628142234908 0.30839328267328175
Ni 4.337605039762299 9.175126311382643 5.002539739136943 0.40799344826612316 0.3303193933224118 -2.6129702338333254
Ni 9.080659549763787 6.85038348624502 11.81541617976139 0.2903487664667451 -1.511120888740462 -1.2690821222330142
Ni 2.643133224372028 7.964520731519927 5.771233549404535 -0.5772409418434575 -1.3599526212623418 0.736045642820913
P 4.401833084518406 4.55233453612326 10.475661442363096 -1.3297979520558325 -0.26919038722157507 0.415517010336678
P 6.7396703122566635 7.016457923799913 11.7400298333606 0.17520216849887246 -0.3429373391967384 0.8849451688695147
P 1.2064714898988025 0.38936767321666776 4.167986695674992 1.917302480608827 0.6156272549311398 -0.4581145332922304
P 0.577015139056104 2.616504821369168 6.824198422301639 -1.0729221205355521 -0.47583740449329015 0.10939066932070193
P 7.696702785758111 2.0262839772903254 9.847980318387256 0.5865761032014544 -0.6067052698511616 -0.9818022244995802
P 0.8725389700919169 8.296220655683404 0.7770835810767127 0.18245987850255027 -0.3118645290513339 0.03269286224733079
P 4.363494544332695 1.9168241246937436 13.130039017311184 -0.19195316270496618 1.541744784273906 0.841405079495035
P 4.108378169093494 2.7532384439539266 3.6769793341577355 1.9521301298109734 -0.09655700789114338 0.16661956903618402
