# total energy = -340870.46472998086 ev
CRYSTAL
PRIMVEC
9.24538430467950 0.00000000000000 0.00000000000000

0.00000000000000 9.24538430467950 0.00000000000000

0.00000000000000 0.00000000000000 13.53155446766620

PRIMCOORD
 96 1
Ni 1.7115332456285033 1.647434997480286 12.751784812002134 0.06498437529118485 -0.04790530832171104 0.7636014409519946
Ni 4.815458322226876 2.294362260955723 9.626510294379118 1.1051616972955483 -0.1535467950126259 1.8485676371362745
Ni 0.9101840292437327 2.6958060851074235 3.161417497788289 -0.10143104815399306 -0.012648284891629828 1.144492633684687
Ni 7.504543013074418 6.711455471944984 3.1848813581626376 -1.320073268568901 1.1535675994027617 -0.5634127777111135
Ni 7.862884856428919 5.344377502713153 1.0787107401762774 -0.31068413558998753 -0.24141244577735843 1.4030471384589709
Ni 5.8390425350111785 0.005772817848513893 3.907601356167754 -2.013582323579184 -0.5398342190602252 -0.026432226049599637
Ni 0.5219352173172068 3.680236096116492 5.730396327988395 -0.4499700498082251 -1.4478961764528613 -0.12418145447663129
Ni 4.0272615893002985 0.9921129252180931 6.788821770852975 0.8246746541142312 -1.576151800998866 -1.2609183554752994
Ni 8.424884021319397 3.0736187074320873 1.579985297586255 -0.4825063318730335 -0.5158656240597697 -0.05830156395437056
Ni 9.094388512831461 6.917091305684007 4.947190253413239 -2.346239878116469 -0.6944482789951008 -0.2864322050211583
Ni 0.7762674137883048 6.670914462550791 0.881338430769416 0.00012187028984495142 0.10415847438748514 0.26552939343022014
Ni 5.379926004679097 9.019565619096639 10.251505657629947 0.6523516069353669 -0.3882180654114088 0.3430556099421576
Ni 1.2701401166666995 9.089701103079385 10.992601781124662 0.06462802039303063 -0.5861084195364163 -0.2577062978413755
Ni 3.159351154436042 4.4549623043709285 9.76285382316772 0.04458215748574902 0.12515435991286186 0.12028597607696705
Ni 9.069379748769594 1.8944069436483701 10.729507734116993 1.6587163512656593 -1.3922292219078605 0.42066641574810126
Ni 9.111714362684305 0.8223223702754717 1.2084262530846768 0.1512132617834428 -0.7442490045673117 -0.45153816562629334
Ni 6.289181797356542 5.919283223844062 5.702576042613694 1.178403941720151 -1.6915418824361124 -0.6787097852139214
Ni 2.146519323390723 6.718167620820739 9.96540817037742 0.2054144304161946 0.08511071372741472 -1.2573913161586474
Ni 0.5588455643649678 3.7726991827644536 13.324399526946527 0.6865305668099209 -0.8843998378890059 -0.71388530467379
Ni 8.653845959209285 5.61168929395928 6.9516736650087445 -1.2249715050670453 -0.19620036801709434 -0.2039383600913004
Ni 2.030221636464945 1.3776731794406667 5.013589677670514 -0.47389210784146124 0.6671315934580188 0.9750345667584435
Ni 3.5443751763792855 2.836428377669717 7.964104246382978 -2.0309861208779276 1.110897314227745 -1.1836921867022838
Ni 2.5881066054191812 4.933059608314474 0.5453269636953698 -0.10782435327484656 0.9238688425179057 0.4229595826576522
Ni 3.006645144820565 0.9933148251545231 2.811194026235166 -0.6539315498279771 -0.3589231731020335 -1.3369949840249038
P 6.353058156285726 7.701802528794937 11.907280916130643 0.62261782731636 -0.6648204288263388 -2.169039705350961
P 0.8113333067028523 0.48048908481704194 3.2892099707984004 0.7551497106402156 -0.4039971826225365 -0.06685408151007195
P 8.016413705231644 0.26575394402083213 9.487094524445318 -1.0334451454868523 -1.1207775494559342 1.785797495887589
P 5.831313393881523 4.391511233111558 11.012912040973504 -0.3630688198392909 -0.9464264161034477 -0.5664839604372695
P 3.661745327863725 9.185085731111284 4.64715534959019 1.1691713673782895 -0.34502173252959295 0.8540978444713548
P 7.53585712911048 7.561716468511975 6.338815642039032 -0.2625448568805995 0.7057745026411975 0.8798968078123298
P 6.806553493068964 8.519196184792634 1.9326033236281113 0.22333424811940894 -1.0534974361520375 -0.18026029974807017
P 3.8033383857592886 6.887727965698613 13.423978785756566 0.19030534268889807 -0.9566285534474299 0.021250167628027918
Ni 5.536866400224459 8.869133973976252 13.428362946909296 -0.6997380666391304 -1.5019767603473488 -1.6240882196688287
Ni 9.021627339756822 1.1329386162311674 7.91613549538165 -1.9243277628867244 -0.2944231936464349 -0.7103027295288541
Ni 6.195230203864232 5.66591347186052 12.868846167656754 1.843345983726019 0.36768780666854095 -1.6316179523869707
Ni 7.904220968857979 4.967295265734473 9.427028188314615 0.5724741165824334 0.6489981170821015 0.3477311610409559
Ni 4.808126732614654 3.880786968586004 6.178656928279277 0.28101386221906444 0.6826448586022695 -0.008130085306302128
Ni 1.1785645868948704 7.170719928423087 7.0458258833365965 -1.0439118493461312 -1.162065609571444 -1.4654462695214827
Ni 8.269635531069163 4.567755990712808 3.689811540456187 0.5525496097443645 -0.7280947634049526 -0.20427543171574497
Ni 6.534202967473958 1.3399057852843899 5.700600304025887 0.2715586303434356 0.24395295281102503 0.4846084658177009
Ni 3.1570582991726988 5.562448378102162 2.853291033777828 -1.6095982535827698 -0.8829718471932277 -0.18381742097170922
Ni 2.2700376553192076 7.904026815791325 2.480509749494742 -0.7570777809008639 -0.19617234299263633 -0.40461244760903226
Ni 8.372934207913246 -0.09865194678216312 12.172810197317204 -0.6866704348218947 1.6625791766551754 -1.8299749617357512
Ni 2.9678515130262593 8.772815562147589 13.76862729068148 0.4469330627541142 1.1039303959916085 0.21669668819823326
Ni 4.628414955966011 7.703512924858319 8.478858573849223 -0.6069325553706192 1.1481605694545776 -0.42250681139094975
Ni 0.7528654974876027 4.580459148502459 10.815162519894285 -1.248572689425753 2.6645375643876563 -1.0350469427563336
Ni 8.88803153913058 0.0411992807439904 5.535731991592152 0.43291617964973184 0.02461239923204148 2.003128732346027
Ni 6.530144243842476 1.1847682396436738 0.9981686518208744 1.1210763116432756 2.8054584431061556 0.9033861491835216
Ni 1.7385205218934168 9.37583649640683 7.33430498154008 1.722253966807989 -1.1875280155086063 0.033199369570104116
Ni 7.364503179712087 3.5351482830211545 7.078288276081155 0.8377430572624152 0.5616130054982135 -0.17227445332911623
Ni 5.522526809444438 4.3795014791313855 3.5362142758109263 -0.543898876047902 0.9114437293806754 0.5060188131726769
Ni 2.216534617379826 4.777052996565879 7.165350209322484 0.2469223198519941 -0.04736974753321519 2.0342347097222127
Ni 6.96903187370603 7.325912946368562 8.979552521136064 0.8360888094884439 0.2746876628907205 -0.0043281950617086755
Ni 5.035877525183986 6.322335744833753 10.322559208256443 0.020873758125215663 0.7649091040198246 1.304390310616005
Ni 7.341713307840551 2.502679256091397 9.391737632565796 -1.9551830577046845 -0.2749167481823911 -1.187519016647542
Ni 1.5804336987163845 6.564398392030727 12.212200156387661 0.7218459542817633 0.1310946366566968 0.8129959322247223
P 2.884800227418956 8.919077539026976 9.33072364456214 0.39635972068193676 -1.042729913222888 0.198093214164433
P 4.2783754675570025 1.3850879775100262 0.554345835910657 -0.9603106302847073 -0.08781165759834554 -0.08567455665068471
P 7.956836449921227 1.9864632333947712 12.864814255639237 0.6444428936112514 -0.09256202779913736 0.9163411666822927
P 3.0298972858984197 4.0321616428872815 4.889965023824575 1.0055149947354878 -1.77031534109159 -0.7882187252800426
P 7.856246670626175 2.9295293958223994 5.084954797742068 0.13812968912660728 -0.05962851029591021 -0.12368728844903217
P 2.008827817596493 3.1600075767090154 11.23845688489028 2.3631955321342013 -2.5676365428935326 0.18937537467546095
P 6.3049451772920255 3.6029169486675463 1.593178460734604 0.24361588118658045 0.5884316683529544 -0.3529304458537083
P 1.3708131044188903 2.1511605062221677 7.044216261960194 1.7468280566029268 2.096400127507364 0.027173475090998364
Ni 6.7177608239191775 2.408709171830835 3.367732867260601 0.608837485702816 -1.4928141200114742 -0.1365407473729326
Ni 6.183451584487219 1.5801470918084666 11.523011317532113 2.1199720012900327 0.06466273028570799 -0.19360998158209883
Ni 3.264572871178413 7.392581411303913 6.578243354759986 -1.03592780269939 1.320689561996661 0.28142369606297335
Ni 8.00980325558128 0.0779459844927145 3.5058228491106784 0.24404782651767648 0.5137452352826573 -1.493703464594963
Ni 3.433365849173798 8.083442740147925 11.449115735825167 1.0424404070069273 -1.0773529026133963 0.03903011731926827
Ni 7.91815376273644 3.658176609590941 11.494324739664771 -2.1218807882769717 1.3652300676111973 0.9134270783592914
Ni 6.347233564286103 9.530049503634908 7.945729045431792 0.2785209205938816 0.044552589799394235 -0.0405385835439947
Ni 4.4813393852835 2.10416621870776 4.29093717096952 -0.3995257771147442 0.9354501195976019 1.2610628514729636
Ni 9.561761171188403 7.956337199178403 8.905683751043084 -0.8636692902098738 1.8443631121366235 0.7929791227831634
Ni 8.858751407602323 6.928851434292767 10.929287541550364 -0.9524201717930371 -0.24970348214155705 0.5753614654325575
Ni 4.025856290913088 5.015019938594865 12.308464020449978 -0.5487510619338808 -0.3806713634124025 -1.6664276038669883
Ni 7.90616249952452 7.59125547079577 0.08792545211873291 -1.1580544315295218 -0.868910484004155 1.2577733820884145
Ni 5.786316109338413 4.748050226561413 8.761112754920413 -1.3213781034232532 -1.10167425296758 -0.9605078338971781
Ni 3.9309154413192555 3.0996074822113515 2.0530614334107624 1.0081976837739732 0.2804721307829815 -0.5133320590046385
Ni 5.389411768792766 3.0322363680823945 13.1066494663867 -0.04040694306213686 0.9564580893078365 0.6708704916751608
Ni 1.9894402470834667 1.6162965437426264 9.408625251211049 0.3153972247949407 1.0091639043419847 0.2784401879546172
Ni 3.9805261725414294 6.095500245292933 4.97882703335531 0.47539157520512315 -1.061202775216095 1.091484714029088
Ni 4.96183124371578 5.397335062989077 1.1743579371173658 -0.508250530716673 -0.11027152926375848 1.501709622728891
Ni 5.3287435581554385 7.932012593541889 6.044071871551511 1.0963937212949313 2.6223658161156127 -0.2257068621166435
Ni 3.9759219712464904 1.0641991852515058 11.71541700658628 -1.3690378713930615 1.375658976254005 0.9350801378526927
Ni 4.511849152900566 8.485108453518658 1.9726432332026531 1.0972979782767553 -1.0841591269019524 0.9754947942243136
Ni 1.6137817992602501 8.061762314371554 4.6694820277169935 2.3913246862702495 1.1520655609359385 0.8138114861474824
Ni 1.643866279207502 5.541350411525754 5.139447091782973 -0.4340870600293814 1.932432651382046 -2.383545813655779
Ni 0.1870156301084866 3.363590935171981 8.577490180786308 1.604583831087314 0.8863096533172091 -0.31849488988365793
P 5.021990958226159 6.493560258854377 3.2907659689468702 1.8381474702442149 1.4589994854548742 -1.7255786603058474
P 8.68351439687085 5.428760123634655 12.66469606714684 0.11179207967334295 1.74082684471417 -0.8594560234594747
P 0.5483659214577121 6.081789340633506 2.930027722026811 0.05452152808664804 0.25591038228321733 0.774879327858659
P 4.112855355542357 5.800646454734308 7.764216267955328 0.10814805516285245 -1.7657776011222364 0.016826841749351666
P 1.0329497869043294 8.80607120885019 13.19187156818688 -2.2224011516912374 -1.1888035397869205 -0.00395538510332222
P 0.5844700710096525 5.759088453086214 8.706025982680181 0.49630184299522906 -0.662165250591679 1.058073228448178
P 5.731148902256283 2.3919565357938275 7.588657517856256 -1.4107460497651254 -0.8964356860076175 0.6420517676712555
P 1.9474662031496852 3.127584014577788 1.415224231608386 -1.3364496530443952 -0.5172697034961479 -0.9634142089106956
