# total energy = -340888.27869617054 ev
CRYSTAL
PRIMVEC
9.08616497619827 0.00000000000000 0.00000000000000
0.00000000000000 9.08616497619827 0.00000000000000
0.00000000000000 0.00000000000000 13.29852088629863
PRIMCOORD
 96 1
Ni 6.5110820629719095 2.2478172135041197 11.317625967078818 0.2186849222728556 -0.63888956789319 0.046451606594319995
Ni 4.63889598675956 0.36519658568281405 5.798899383015782 -0.3663886282411432 -0.9995546633869946 -0.9219238029763929
Ni 2.464149710245364 1.5534979334637085 4.82878592681987 1.1864669212339436 -0.42293644272920067 -0.4295058684166022
Ni 3.7024213297335176 4.470365802814137 4.6195206490279865 0.20254276529535442 -1.0369639572733884 1.2763156638669761
Ni 3.603045945766993 2.8310308708744514 2.675223134824239 -0.7804393384449397 -1.07269380657483 -0.2275940518370274
Ni 4.950960315399067 4.664591660697324 2.5609228166249802 1.8475299399003795 0.0037571530495870776 -0.7872244796875733
Ni 5.479466174756923 4.922193517772842 11.488618501673864 -1.6651016859667132 -0.3587413961085305 -1.0619638217518355
Ni 5.680224985101658 7.7291187935423125 12.333646362101874 -0.2819723694775918 0.45595814907085985 -0.4842256285569855
Ni 1.792682134573226 6.561701086842945 0.20251425737612636 0.667855873218553 0.5409842735042684 0.5519410296260882
Ni 2.8240072655159323 1.8065021911712953 0.1394417360867392 -0.3811130789355114 1.2169041546778783 0.48738705700410256
Ni 7.762246950252739 8.763769460786722 7.120759175202121 2.165848452107173 1.8438375786504566 -0.9283816427865947
Ni 8.497926452275012 2.618160202906294 1.1826161344913404 0.6465540264169833 -0.8674572964973963 0.4953052834099147
Ni 6.935296923228753 0.680373834368671 4.450895060352597 -0.3976776681624119 -0.4699022699557779 0.26161180354336877
Ni 0.8966181953117551 7.475505762795888 2.4463290153040136 0.30939575579586714 0.16437628152796205 0.10913381611488947
Ni 7.826222636319147 3.9735070553110305 3.6990231041137425 0.21138633172891338 0.25106513837577404 -1.0150458170440584
Ni 7.863603118136673 4.00209212964208 12.476738919188682 -1.1150419325237377 -0.604280719570069 0.019158832316637973
Ni 8.48523308010703 7.3075116625712315 9.123157261339264 -1.720925220694236 -1.1049336404451422 0.6423101635389648
Ni 6.920613680978603 0.9232270288077749 0.48174936412576863 -0.6655120555767248 0.15569700858640928 -2.29110411348459
Ni 1.9952036608811594 6.827398716718514 9.335082968172511 -0.8295993451093584 -0.5130137564332714 -1.7890118890598286
Ni -0.04508464091647604 4.961981833251439 1.5077063889290012 1.1512983437526108 0.10247697292000416 -0.3182822596522196
Ni 6.453421261412838 1.8016138345310841 6.676189488652709 1.6633993585636253 0.22191114251963717 0.918244811462909
Ni 3.4810914423749577 4.632853687194987 0.4343404822640026 -0.2819695412641144 -0.6570284435857459 -0.08396400171748121
Ni 6.284663923348446 5.764162975143054 4.690813423574621 -0.8687490187256264 0.8242671342631674 -0.5818599286727076
Ni 5.6983064529715834 2.8700286900190357 8.920673896923317 -0.06774548297608979 0.6887098338494269 -0.31968119688227525
P 0.13802702023380076 5.618211910623142 12.447615035287438 1.8919280063997803 -0.568324613190434 0.7445066291040726
P 3.8897235300705333 6.486785658406993 12.693038705736793 -0.5207869726207871 -0.5730004213995488 -3.056339490495582
P 2.4233164858195098 8.814088641220719 1.0533627149485951 -0.5502826680870587 -0.5520595574818234 1.1400428254434496
P 6.523402902384784 7.875842182066719 5.5922272966460485 -0.4136218501964941 -0.38003578671093263 -0.24777695454280554
P 4.632208569497115 1.6275138315885425 12.237724629360153 0.21844863789233346 -1.33042504411687 1.0179254525846986
P 4.262665162593712 6.253098586976524 8.045086538562181 -0.034991942694152636 0.48124854820653246 1.0770166023199
P 4.792270447887377 1.1216688671390262 3.681057030536252 -1.3209757257785122 -0.3493851517046112 0.08084808179631882
P 0.4276694200981232 5.592325427225443 3.6564680514661045 -0.08321015427059218 0.5192610228945638 -0.07295608064275177
Ni 0.2727748436061661 0.2590083953801735 4.975255811347507 -0.44830783161445376 0.44217060836846434 -0.19962044944223684
Ni 2.339360323448596 6.6060688293599545 4.897751734571787 -0.766399572522422 0.40569976713593997 -0.07759332230444702
Ni 6.390708552247897 5.537790266343384 8.77965661986741 -0.6618081243625764 0.7172053701859583 1.3885777411982019
Ni 8.776335626648084 2.3679726562739214 10.005487462567872 -0.7750860445528264 1.259460282872534 -0.1632658220726027
Ni 2.550304724487897 5.350242739557881 7.042949803290505 -0.37481721862447065 0.11100300811314431 -0.000963135244217696
Ni 0.37525042698837857 0.21453252750253415 9.032714485947073 0.5880346900248519 1.450870685700153 0.22997437914374588
Ni 1.513182620429104 1.5297376126195592 11.270323393344729 0.32060936512349947 -0.37006402021020135 0.06183271703608061
Ni 4.318018078304059 6.8963172764136855 1.3313012259871628 -0.4043849049792584 1.5853956881946374 2.2428018268347762
Ni 5.96462194205075 7.756995147022178 7.874054024842195 -1.744540803230647 0.18223027899024744 0.8907273227689304
Ni 5.750760882123887 2.8858931336878255 4.666915901642615 -0.3547803545782535 1.0632378033682526 0.11678361935066339
Ni 0.8855439777037821 7.749162873000129 7.172583933136642 -0.18108510964221072 -0.7749960559421815 -0.35987345283044475
Ni 5.190053654860997 4.7126029552825965 6.802964202449265 -0.1370768223820607 -0.12110410110288822 -0.14777132598142936
Ni 0.882175736427711 7.345037523024897 11.326922022243503 0.45833256284030743 -0.23450774823772516 0.8295664349888939
Ni 4.818756618159154 0.46846720848141776 10.370917562684987 -0.7053564412671723 -0.12775220254702516 0.2974923194900619
Ni 8.452713696435438 7.210244268828738 4.750776659283562 0.2943625156118285 -0.3424560286849457 -0.4596183715312665
Ni 7.702732571082882 6.264292741959313 6.8942320016015515 0.7028634996419895 -0.6201729653202931 -0.23779027564373886
Ni 2.437327351877513 5.483037037507115 2.755360382147048 -0.6326741831110976 -0.765537995853075 -1.7441713357063702
Ni 2.8038814105752854 5.374439196310452 11.097629020090366 -0.6465470844384479 -0.6162363492700484 1.5212006415739674
Ni 1.3238996361746795 3.261178996718763 3.7308201376870125 -0.8099733433483147 1.6604222782131728 -0.24011403868090905
Ni 1.33639311271797 1.3965980404094938 2.26597500515802 0.6740087801938263 -0.7800662713762371 -0.1772981317959527
Ni 1.3690942196847364 3.267493881226099 8.100940101950735 -0.6380524167038754 0.8479189693541527 -1.245650116462319
Ni 4.251988919002172 2.6174605682198697 6.581344466434901 -2.182911578237047 0.9116843846365719 -0.0007852149054567122
Ni 4.499050824957532 6.995002111858545 6.149648058115696 0.20989740588821268 -0.1924236745834815 -3.3974891416642774
Ni 0.4981853275578841 0.2620995086311026 0.11240948731296145 0.2870605826337766 -0.007021939843787907 -0.14223188422043892
P 0.5909459835800336 5.770050809906729 8.110102590493467 -0.8113331998103188 -1.2470565098915427 -1.65879734101524
P 8.651500809027521 1.8506609518988542 7.694524129839821 -0.39720792761484497 -1.316936779822448 0.3558669027742129
P 2.0072610015160297 3.5356720340808105 10.053362464681763 -0.3012350743619457 -0.21362267725859982 1.5851730306608698
P 4.223485620153952 6.328886287229315 3.6720935290017387 0.1046295004866327 1.509144995961014 0.365694430387596
P 7.020570579489687 4.110208404106529 10.235259305603794 1.362766693672369 -0.47558980725885835 0.053992137945739274
P 6.358398150365757 7.632187587895893 10.054186579825384 0.6501720827855447 0.8174459975762759 0.9501989957720024
P 2.0751709969229792 8.602844396744379 5.670023947927001 2.664721655374004 -0.10844013248197454 -0.72223136264564
P 6.950498076870153 4.130288828223382 1.5028262098370728 0.24906816255040332 0.4041200813536459 0.8770891631602056
Ni 5.386614657087185 3.104379051476895 0.38856256697643343 -0.7148168153491237 -0.22411792036296888 -1.2590046833923543
Ni 1.6850110821819564 1.0891403973026765 7.11126413302922 -0.4122064579062062 0.34084754654724525 -0.16824219224127154
Ni 6.731030853287138 0.7002698093409212 9.147559974031855 1.5714004023568098 -0.3952775433613515 -0.4179438746106157
Ni 2.90179392201565 1.610777116102912 9.15726854107659 0.3136848700895243 -0.9788171737293273 -0.7413639697100329
Ni 6.045425205250376 2.1830873757627356 2.3958880802622504 1.6501808029908225 0.10702551152263502 0.04097001465445847
Ni 4.065531731987721 7.1537374101940285 10.017789221034754 2.4796891310482714 0.7062936083694611 1.6054806318699706
Ni 8.387256965513354 7.257719479693243 0.25153865933199937 -0.31978918321504923 0.3000184283460252 0.5326122473904892
Ni 8.043836282291375 3.968227993586193 8.028768695271928 0.031650537025745495 -0.016761021508422746 -0.19990892721693315
Ni 3.1858183462096337 8.901261305916233 12.192828072054184 0.13463247460662617 -1.238337641961306 -0.020750088063157812
Ni 0.258829397934426 5.1045074136573 10.193076785711266 0.03078664636355343 -1.3874001759503332 -0.01875465489968383
Ni 8.461627224063779 2.5177126514982358 5.498538943202029 0.07607200056391415 -0.259056898331999 0.9261910628931791
Ni 3.944749343849565 3.0083382899768343 10.751534278579888 0.6540084258124994 -0.526055677218894 2.1400312339337533
Ni 1.149826891726414 3.4237395704176836 12.642943044955864 -0.27283209773922046 1.2147508557803015 -0.8731263218577155
Ni 3.4223584733743526 8.26812825936129 7.77842395798923 -0.762490467276003 1.6578509179415706 0.6284989686874853
Ni 5.559796957389094 8.071630860288414 3.160473398231557 0.7507927192231004 -0.15882321292021678 0.8934444645897774
Ni 3.201128533828139 8.687745520250203 3.3126884647361567 -0.9541582375300665 -0.33139771398825507 0.13397735752113057
Ni 3.979440320898499 4.555157892342857 9.154741678657178 -0.6012064515201194 0.023873721293804048 -0.8373689617524482
Ni 7.48572769814949 6.180854490979647 11.456130010962452 -1.0573152672362307 0.48184015904394434 -1.4300095259804275
Ni 8.060672945589351 8.9538338552104 2.198338503310309 0.8569718235850402 0.2872243619051505 1.3333859265174068
Ni 4.500649989955074 0.4382438986443645 1.208017416690921 0.7602402377892455 -0.16077365177836828 0.06091431898686928
Ni 5.9123946670174155 5.563604060423012 0.3052633343175774 1.3829339126488633 0.6443107389087613 0.7383336675241413
Ni 8.13306242022237 8.588279274636092 11.340858381750484 -1.5899730231526745 2.007308317645014 -0.14238717885138058
Ni 0.4617298173127995 4.641712697834774 5.69275117183808 -0.4629836884590736 1.2942529650716872 0.7900192688238911
Ni 7.425668149094107 6.409907618383151 2.5253622936086333 -0.4032497629335507 -0.3293549725266134 -0.2243256654984008
P 8.625905082902104 1.6869918660993652 3.4662192078978245 -0.14610859356702577 0.5479697036831659 -0.6238511855028288
P 1.8123627674406937 3.5464391393199373 1.350451226832719 0.34167389910328255 -0.6799631980050482 1.600911010221417
P 4.827161320561004 1.0819895856375348 7.892977780185258 -0.3924696415989112 -1.5048929055528792 1.7431346669117398
P 8.54400239376667 1.7854495474252556 12.249334022072416 -0.25501281016961247 -0.1990910593013281 -0.09786698495181854
P 6.496171666602789 7.95097567845688 1.1099786075604097 -1.0245401296877386 -0.43855255199990273 0.162600677684778
P 2.231698357222085 3.4351427071899234 5.963841440497973 0.15247207389120837 -0.8407419919897391 -0.2716182799367774
P 7.089143864924026 4.261338582538933 5.99574478219892 1.0336431204302716 -0.7746355872789691 -0.49676078490951864
P 2.1249359213066907 8.749013529218502 10.230405476389667 1.5201354335342465 0.8056322927707995 -0.5502885816243297
