# total energy = -340888.2614134043 ev
CRYSTAL
PRIMVEC
9.13195826246449 0.00000000000000 0.00000000000000
0.00000000000000 9.13195826246449 0.00000000000000
0.00000000000000 0.00000000000000 13.36554398960740
PRIMCOORD
 96 1
Ni 6.336674903925825 2.058708649131559 11.388659540570414 0.6186560144551345 -0.17452493992618975 1.0033467834395753
Ni 4.827938435391978 0.4804770657522714 5.954764541843118 -1.4954626133779148 -1.206440021921761 0.9529552183609008
Ni 2.799986221366323 2.094578980810892 4.593911003863015 0.8273835684049623 -1.7842815734636945 0.5551633932181278
Ni 3.7986206386588655 4.573074614913746 4.963521531490811 -1.381223100605344 0.47961126971342555 -0.25676733096687393
Ni 3.8656400796452766 2.442460927176518 2.443167740738631 0.14828477528273817 0.4586364672339714 0.01738348558377006
Ni 5.326105017309228 4.688036836276047 2.3147386206676965 -1.3577260459246683 -1.1983927261372522 0.6649312433725904
Ni 5.304891478487667 4.5654129020117695 11.417555795797734 -0.5845516165722577 0.3128163514416419 0.4618485464133659
Ni 5.779479344418146 8.02893633573858 12.21180329137923 -0.20223706112947748 0.5086097138283048 1.667024871131355
Ni 2.0653293188025152 6.984158133829014 0.32676794588808405 -0.4965723230477964 -0.38827951477696354 -0.603555154257954
Ni 2.8604580483471125 1.898515838968918 13.66199203651804 -0.6688580892308222 -0.36015241752344423 -0.4063708250610356
Ni 7.838598931667212 8.99302455528598 6.926077966692119 -0.220447156379601 0.03949960075651907 -0.37161953762277933
Ni 8.790021125237212 2.553103732325906 1.4150097026927069 0.6621457102076532 0.13250720073350727 -0.09016524543218665
Ni 6.8356268342454225 0.7879245277467801 4.795837776043916 1.2702681721213158 0.4537788820313539 -1.0623669707275254
Ni 1.1307921158829963 7.78373412700086 2.440387972672646 -0.4029013784551964 0.2310367589699892 -0.0943815975063794
Ni 7.891984359110537 4.271071626378305 3.50584914663428 0.6855026397660388 -0.8942523052030534 0.8951604188396196
Ni 7.717755729245469 3.9012638484541045 12.500565853768574 0.611075116784083 -0.7422900810687281 0.5319522452089871
Ni 8.439974904786046 7.2943798847146075 9.0847468563095 -0.365476657949835 0.033181371847975115 -0.04059386226196234
Ni 7.251523605037645 0.9480251051319362 0.3776429980313454 -1.080609461877481 -0.30228125623827296 -1.3189952050133735
Ni 1.9330711686722264 6.491215031983194 9.154609075873248 0.3133318576254797 1.605897664802731 0.5955032304877551
Ni 9.471301732315862 4.857023722153351 0.7732056375734735 0.17410379322837113 0.8491608121810535 0.7600366064188716
Ni 6.526336543092847 2.074141658433512 6.849586858695066 -0.5048427905867048 -0.20341025550197228 0.9665938921902579
Ni 3.4059099096522405 4.280304036084976 0.526432732031058 0.07655408240665526 0.652550096099418 -0.4756402008808195
Ni 6.11703304609708 5.665749937408367 4.6413323494275796 -0.13224340554915934 0.6525704078143922 0.323379728779785
Ni 5.27183378992372 3.0647673484137394 9.416934619369602 0.3764089885916227 -1.2826274650176168 -0.7796662077243411
P 0.3966803912217488 6.204142795050531 12.269823187592225 -0.07394775513205974 -2.7430256305922307 -1.3634176969928067
P 3.8040815496426337 6.054479132654252 12.661527574808863 1.225051209265045 0.5947149302585047 -0.3083688571932496
P 2.7774485486105713 9.131035839061378 1.347955560265262 -1.792039620142559 -1.617310534625363 -0.1626220178410167
P 6.459006615528763 7.624938506437745 5.726547775295714 -1.2434973317853744 1.051241036017693 0.8420072318554079
P 4.828458957007487 1.1378602515041276 12.972530108117724 1.0040666923247352 -0.8605819095338016 -2.5297063435066627
P 4.247511174307867 6.139095857028156 8.272509403139336 -0.06999828356600848 0.8421190748429238 -1.5867581157598027
P 4.848896279384867 1.1084736101232486 3.907536590518905 -0.1604869737758849 0.3141119303246139 -1.231533217444963
P 0.27539702841636354 6.040379389244657 3.3262290086675113 -0.3918656894663251 -0.9392214137145759 0.5383792317812535
Ni 0.7430135574822795 9.359252605608782 4.7979764806465885 0.38250738817987673 -0.6623727386167947 -0.046804619058364555
Ni 1.9567686001151663 6.794094688502652 4.625961437441161 0.49141160478246343 0.029518835394723355 0.6897799269851539
Ni 6.220333756880332 5.620546744482527 9.04442378182802 0.5909346372804661 -0.0583702124087769 0.48721196487881896
Ni 8.682008324039874 2.344876822205706 10.186108497412416 0.1876015706044898 0.913466159127343 0.009089621006094024
Ni 2.479682788664542 5.5793068214010955 7.059025579664004 -0.6355718163738666 -0.7453293821156841 -1.6178684640113619
Ni 0.9010731422171476 -0.03661915224901327 9.150212038015917 -0.4724522900711412 0.2632531958015337 -0.5990773209922585
Ni 1.703192385738458 1.3045550158815562 11.335076862830684 -0.293451830872101 -0.07442289499626537 -0.1337364451549181
Ni 4.1707296700411085 6.845827231517779 1.375114003853433 0.5263719229077322 0.8464367283816714 -0.04369538400542152
Ni 5.624802236988274 8.041593229757815 7.972132816353408 1.0083900022904375 -1.0921372600114225 -0.39090923909032677
Ni 5.578402757542579 3.1780036296825087 4.424730520472574 -0.3856392489406391 -0.875774301003524 0.19148599326056054
Ni 0.6004572981272492 7.772136540128979 6.640910656233058 1.222265676100108 -0.8865305110787635 0.3929103286807556
Ni 5.3302235304424705 4.263610816556 6.914490424974221 -0.5094764327039741 1.369648508393867 0.8887606859608629
Ni 0.9590108508066401 8.007019636138173 11.318329764748524 0.6698086260695496 -1.2168247075901948 0.2133776511273293
Ni 4.780050446765088 0.5565398849113004 10.501374741989371 -0.4528645977472008 -0.5636099813235842 -0.012388089251707698
Ni 8.000636397379553 7.731791548947896 4.311136266443665 1.4537420937106769 -0.8287118002980824 -0.09951094831314476
Ni 7.422674765000489 6.001751206198939 6.781463363966284 0.15017170789280587 0.06649901216349838 0.5274543573386334
Ni 2.4032209029336227 5.464399391787795 2.541551805244858 -0.42319998080323246 -0.3139118984986658 -0.04950530581897926
Ni 2.9079533627728282 5.2144668287196545 10.915546485883878 -0.7396050780373972 -0.04241471752078502 0.964404597848423
Ni 1.1223541865368396 3.4995764045694795 3.8360717122968775 -0.6660658711976658 0.38805917123604133 -0.32965013516952907
Ni 1.2866381139582235 1.1296871489448093 2.622373287804625 1.6125766194848035 0.9586967488303683 -0.45681766885767777
Ni 1.0809224923339038 3.421936496235038 8.099519979997506 0.5222113637721393 0.42833113138221074 -0.44873900561460134
Ni 3.6616777939889893 2.614991012822555 6.907152896587167 0.8460117250291108 -0.4268815434198778 0.6001692685048567
Ni 4.184135384630023 6.924005925384064 6.028394607346502 0.8171585482428443 0.6823895480583537 -0.21012751962114778
Ni 0.7777286964535074 0.33106087942231377 0.09238528118643205 0.70160494464454 -0.24471965577372046 1.0358110746158677
P 0.34661808335533595 5.828727994811894 7.7081763051284575 -0.41125283574368526 -0.21919322936784183 1.488964664358397
P 8.741137753170138 1.5548802531508708 8.139802873863056 -0.2144575144550694 0.28190269258192097 -0.8327633446596369
P 1.8050776430058497 3.327831667325791 10.105728088432109 0.6971314822542187 0.05581684985930388 1.0053643280902362
P 4.354437272483352 6.2784404066959105 3.4312291768656102 -1.400380390260085 -0.5030445610357014 1.431025883060084
P 7.042602666096766 3.8929355026059502 10.338221350989041 0.8982585981489691 1.0091297086699396 -0.6051788059043062
P 6.6593343818346495 7.730969672712881 10.27938597091175 -0.14723679363419806 0.7407672166662985 -1.0994309654593581
P 2.634971737291593 8.645626602703198 5.8880829833088795 -0.6611645772413064 0.0913618368434491 -0.3706522886135036
P 7.212950213740928 4.065785206787826 1.3993721375278165 0.07026773517731123 1.3434343118923442 -1.2517048072968313
Ni 5.402594298914647 2.9141083025772754 0.46025617078344594 0.033262104487239486 1.3453358997904314 -1.5288787269445152
Ni 1.5166447443063276 1.257443243698848 7.041142465985889 1.0203741712355072 -1.1654419822428443 -0.40448312112001944
Ni 7.023407290030076 0.5356980167871301 9.076955469601558 -0.20601092634961293 0.44432339304540897 1.1574664202365357
Ni 2.850613797443263 1.5573550138140835 9.217106371175442 0.5874122259495045 1.017730562965073 -0.2612829594490403
Ni 6.428816361829203 2.3363658371942146 2.3666766327415774 1.1599261946309378 -1.6849197491339047 1.97268172871008
Ni 4.48228468681906 7.143574727547474 10.133915703705682 -0.4427874160168568 0.13594116611572074 0.9897980982208631
Ni 8.812330499038794 7.408657209214397 0.38978758919742085 -1.4009979692394259 0.3220985480745162 0.9613069327597058
Ni 7.919919019142889 3.839312644250288 8.010505304570454 -0.8779103735099203 0.17197183448703285 0.43697003800413126
Ni 3.24897720855516 8.722298523471954 12.48066457733559 0.6677825967784564 -0.054244877386493674 0.04315905188597729
Ni 0.14792585075713 5.036594547546018 10.070683285771059 -0.3737257853325048 -0.40348013377680186 0.6885473401296335
Ni 8.842228530077016 2.2637119780188657 5.928781381271018 -0.5333162154360492 1.3042414437429668 -0.6503011521642413
Ni 3.5974162043689626 2.8566134939588745 11.476016765590185 0.6012954116894998 -0.39178392838579623 0.007698654195838354
Ni 1.296244933949735 3.5901471656681614 12.232239700560793 -0.3442498873605749 0.7330335954674666 0.2171314617428067
Ni 3.348889962858515 8.651945917754647 8.038759583138646 -0.9253407990777419 -0.7043853356031546 -0.46314515373760234
Ni 5.596474902754748 8.038223537194252 3.5976965554846845 0.7673503664714656 0.09520589317988765 0.41342490369433965
Ni 3.2051346773961793 8.489506645882965 3.4281416618094034 0.4744824331272925 0.5503770275730779 0.6340502375230177
Ni 3.4736690392501655 4.289509049917147 8.838821396484969 -0.8480706644406685 -1.0289223179158344 -0.3254222131311105
Ni 7.207242739886656 6.120147043831971 11.586215757572663 1.6300871175647411 -0.04936415225542466 -0.6693581687956924
Ni 8.234916784149739 0.07073980074358015 2.3494090130439065 -0.08708300696243712 -0.045941499727120874 0.46536427287610826
Ni 4.876200834303707 0.1787717790530694 1.6470363221873154 1.2953335997303757 0.3358650057309893 -0.6302828000607855
Ni 5.940484898857635 5.638244479409857 0.17117672944571172 0.23547628279858154 0.3098616396886922 -0.025556251202549535
Ni 8.259134737208187 9.32473380373814 11.356408203912597 -1.3431360639256351 -0.15185320936028687 -0.16690598992835126
Ni 0.4001706256331137 5.206722928194178 5.61741813561457 -0.4655316516919079 -0.895636844255406 -0.5586474951119862
Ni 7.105512725908101 6.225265014290423 2.439733211272084 1.1019545032121603 0.6506212545078215 -0.6002751979551016
P 8.633462834424972 1.7296659324641162 3.730697133813938 -0.8491775243516021 0.796421572805809 -0.005409343941029393
P 1.878105912466039 3.2850210474396624 1.7292878693960092 -0.6361737116239238 0.6078141866446242 0.17146249895078214
P 4.925129866161615 1.1139984448141846 8.27202906213976 0.5143041931099207 0.5629754330633788 -0.5261232972320359
P 8.987198365975539 1.9264870268339376 12.442345967671729 -1.1490465716039566 0.3878583680791449 0.4487703730731691
P 6.892820288244318 7.9494426398962705 1.2064156878542007 -1.8306195372982859 0.4005318497817554 -0.7726041586712371
P 1.941837848512389 3.4804266882936243 6.017408861671797 -0.47582300631558705 0.6917938720913892 -0.6759610188241907
P 7.053223133444797 3.9367780337649307 5.747945779672244 1.7806964272155978 0.3398527867341437 0.30235299001647287
P 2.74148689734957 8.605939112510127 10.242123015611973 0.11581251368664569 0.14268542681808977 -0.06593594057117677
