# total energy = -340872.8994772599 ev
CRYSTAL
PRIMVEC
9.24037665441104 0.00000000000000 0.00000000000000
0.00000000000000 9.24037665441104 0.00000000000000
0.00000000000000 0.00000000000000 13.52422526531380
PRIMCOORD
 96 1
Ni 1.2402525772212256 4.085761844677405 4.549306256964309 -0.8288622098330177 -0.34505027177468317 -1.2179860748881475
Ni 7.374134637725568 6.09835281277548 11.009043727269669 0.3738954781411496 -0.4510895081246489 0.9581825281981111
Ni 3.1854904408470834 8.224868383018977 9.185193917906423 -0.1710236116411506 0.8597254750707776 0.8786840184511512
Ni 4.720039769932166 5.823922870434914 2.8650933214578833 0.22916551008920533 1.7541017074462046 -0.10831877641276184
Ni 8.550416088281796 6.177552079949493 8.481325793023355 0.6348773614100034 -0.6629764336390646 0.10291868844311308
Ni 1.6704290658478704 5.823035794288757 9.435378036289706 -0.6291486864563424 0.5660756692552573 0.9184564132530827
Ni 2.9194507603889113 1.4560523305267774 11.0571084697889 -0.40058224340371656 -0.9697380942461944 -0.6312289660241387
Ni 6.629563578298713 7.321972712256277 6.9825570499085465 0.4369540971645313 -1.1251329982111526 1.1710207618822028
Ni 2.588922492180485 5.053469516368645 2.6499912165797768 -0.9191310707226041 -0.9831497396664101 0.4155200956604715
Ni 5.503817746943823 7.350414591192411 10.117607971470125 -0.18059685715188253 0.5739740981667276 1.6628553131346975
Ni 3.988359035754144 8.103579200785154 1.1942502867418063 0.6936111278057862 0.25757054359445963 0.7359749374839777
Ni 7.294565755490657 1.32190054417369 12.0072936154806 -0.4072012913821309 -1.4670079575816477 0.8500653262731941
Ni 0.7756889514038944 4.99393377043443 12.099042238009767 -0.6348372522006873 1.0549917613093767 -0.4445889880019698
Ni 4.3701621532857065 6.39404486149423 8.422305660099095 1.3857508132723682 0.16329487553832522 -1.1506951629509732
Ni 6.464059194404915 2.058127543600763 9.87710684364473 0.5071202737669718 0.590612220944041 -0.7400897309832997
Ni 7.8188462386220445 8.138785035335731 9.80058636162458 0.33736421598433514 0.6431113192840214 0.26878646691493707
Ni 2.7404461863957987 2.743199818599492 1.06178579314172 -0.467795250915104 -0.3407015078876842 0.6609205795513005
Ni 3.2154015396502893 3.598553752154131 12.298456955665692 -0.857917218217445 0.6144849137965804 1.4262837403894082
Ni 5.191899597051632 6.879229311559084 13.311070085143136 1.6559184768055482 -2.008350642866599 -0.33903954680422904
Ni 6.659751888397593 2.5356794426580653 2.633815937477209 0.610341066831536 1.1479983328451002 0.06024943170936075
Ni 4.472379198377169 0.9130480724479281 2.6276489101861187 -0.9968650323699736 -0.0175331237877569 -0.02337287039798555
Ni 5.593606485612575 2.8610146192608688 12.018235145320848 -0.9196010683804872 1.0629179581349886 1.1617514207651347
Ni 8.749629365729533 8.771131721897298 3.49493032175595 1.540445091625876 0.24141013178451323 -1.5109105725018688
Ni 4.851391722198948 6.765110661506692 5.257529371302412 -1.386991627658005 0.7731885704197974 0.05527923218827899
P 4.161994950987707 8.159492719122566 7.002816575434042 -0.7251963588112349 -0.21338947820187118 1.1992473608280636
P 6.882454202965423 2.1138747351607696 4.936855964655189 0.8654250965587159 0.33062329771607574 0.3075088231857995
P 7.477525210635384 5.6993163930295285 5.6975939868457415 0.5974384998372549 -0.1338626863201372 0.506366940540715
P 6.727068031363721 8.104882093874823 12.626189085938421 -0.1583185053696564 0.6244587371798407 0.0780437795783043
P 1.6001929639006451 0.7432672422995359 9.215420113549046 1.0012145675879207 -0.058601354582976495 0.04513957265111581
P 2.1959107979271772 6.2711478537455 4.991291022749007 0.7015571221257402 -1.1777267131474685 0.7622377278352485
P 1.219313884021329 4.302688923918697 0.5069797261683835 0.5456027461128862 0.1335541539407829 0.864441392489208
P 0.6691409418363544 9.148046680248479 5.173706219716559 1.7059459736765847 -0.3825366987559154 0.7892343110287504
Ni 0.5273048583671884 5.236003914193339 6.452975362766224 0.6678085649203853 0.45908666739751264 1.0927692371684663
Ni 0.4292700076897917 1.9987119225613392 5.322296094385992 -1.3020691186819964 -0.5570806648454987 -1.2616369788088788
Ni 9.13138628137848 8.449862310964377 1.0969066162282894 -0.09303871032523976 0.27988489082094375 0.5269041412621184
Ni 6.694772915417719 5.01477081949258 1.794543031184609 0.3601051092252766 0.0397543970798025 -1.329623117040865
Ni 6.3206393103998 2.1309786721038444 7.392044335501402 0.049649801816643524 -1.084652778708919 -0.7918344676557588
Ni 0.10565354112016577 3.1882163519212092 2.324381600794256 1.0099270077602542 -0.49197544770573337 -0.3874996991881456
Ni 6.684710145384759 0.328498157486442 3.5082919062074285 -1.643253736853686 0.4650691102331926 0.0501964183487329
Ni 7.8683192145233 4.535324643248173 3.707842457398233 1.805462321306368 0.26739035789835885 0.7030776725353246
Ni 7.695367087152399 0.053894496067253245 5.700001104929843 2.5207427065554717 1.850246567500594 0.5374850021017582
Ni 0.17011625581615755 6.623677458453905 4.386757869520046 0.6595465820219093 -1.0042232725072575 -1.7524091502351302
Ni 3.7913264871657106 8.24519721136839 12.07613257249763 -1.271156745373856 -0.38031886516899016 -1.3346331686609465
Ni 3.432032926842863 4.3704116434518125 5.174625637180545 0.40000605918527243 1.0341293160380707 -0.5749747715171002
Ni 1.7651521655796174 0.3092689339432009 2.1605081433566733 0.5394076730457678 1.1894319173995385 0.8715697760038731
Ni 5.167495762655814 4.0171797701277 9.125808790109524 -0.21922922481209986 -0.6216030128986004 0.5413100322748032
Ni 1.8187278686568458 0.8001861136025905 13.138608621765577 -0.9150530439984886 1.9236320223712806 -0.8912178892521038
Ni 7.850762499130624 3.6697785743892597 11.185981229034708 0.41222651251086423 -0.13695572342316414 0.41669714668770813
Ni 5.76277929898579 0.07300729086631139 8.852403605525298 -0.7514393516681639 -1.2101493524525482 -0.39635046471055607
Ni 1.7130549227459828 2.9138972940989127 6.887143694050573 2.111898223142963 1.2556676485993212 -0.01235132247650131
Ni 0.15454622137581092 1.5861198704569373 7.755358383649172 -1.6366971666820909 -0.8264823967469315 0.6592226230235874
Ni 4.43261785820102 0.7680360715679923 13.085661264291877 0.35108156557042763 2.8051504249474335 0.9562832542928691
Ni 1.1724466942994074 3.53899952546687 10.295721773166473 0.3945072408542302 -1.2415031841734812 0.9151497174773529
Ni 5.620449779410325 9.012545798923112 5.802947215728928 -2.741389380540388 0.9075029995653726 -0.9338501221003336
Ni 4.391451980793456 3.5060760639173423 3.0112095473322524 -0.23380917950880375 -1.687379266417991 0.05638969164363837
Ni 4.338467661813666 4.718404223287691 0.9023144510794374 0.6534252996155199 -0.6616944816028475 -1.4155581264417878
P 2.258773079409479 2.4856705249185067 3.234886721623203 0.029290264323685044 -0.19793123466527202 0.7551803067678349
P 3.4202144852706358 3.374086525670511 10.269471711541467 0.6623202881123046 1.2382003450524934 -1.690133175014044
P 0.19412737420977222 6.965663793550183 10.923259767785751 -1.5481123783631467 -2.4926911997348937 -0.5653930413659359
P 7.653554383388264 0.10745356646674116 7.972625508746491 1.0819837165171882 0.3472143693055375 -0.6431928232542342
P 3.1833836349999625 6.5387214367064 11.026057108522824 0.1395191132749662 -0.5436553925785281 -1.9720338107134359
P 5.070896866490007 0.893894619992171 10.919216179019521 -0.5521084084418878 -1.2366378856613798 0.18055109151561163
P 8.53311810343175 6.325305700543643 2.3001459412511456 -0.6544190309873568 0.3521796837306128 0.1502277579417219
P 6.751721355925646 4.650385811705856 13.056299967891757 -0.587538981335356 1.0635054552073426 -1.0317196781553135
Ni 1.368130147915562 6.525701746186252 1.4956575083396972 -1.6173848395067245 -0.4949733539917927 -0.47819999118819584
Ni 4.0520252299939 1.506606430481161 8.48110956821273 -0.7309671998567412 1.7875766992751987 0.5953525638425037
Ni 8.726509943670335 8.642672007482046 12.415806965387988 0.052250215553968075 0.41760860275838396 -1.0981515845263021
Ni 5.696424155177998 4.359942296851865 6.744841895604674 -0.24471682756024307 1.0362304215414733 1.3977846045084508
Ni 8.781055886282422 1.3830348752462915 10.209802904185326 0.11319127401371472 -1.4298352051860923 -3.345332771375697
Ni 8.34844917863037 6.454375279809377 -0.004442773031999204 -0.8565000261549444 -0.8484961820138613 -0.17759329443886834
Ni 7.1410831014525815 7.218194043532518 4.217313389077072 -1.4420921681765746 -0.6070361708280192 0.24529815398500981
Ni 2.818296358597532 6.08494502644139 13.091381981396932 -0.16923643783374082 0.15223398973847332 0.384281449361164
Ni 2.3393584030618606 6.896813748081327 7.243250248510823 -0.16489872969033534 -0.19164720142877317 -1.7604847281544131
Ni 4.75632672853587 1.852473723716873 5.071787638786772 0.1801443429954962 1.1129806791193348 -0.6244795631154471
Ni 2.7975794344341747 7.49842694232919 3.2663169383267014 0.07036929375218204 0.04458447147859418 0.7846135244272874
Ni 2.76737264358225 0.6759141378273182 4.725946218605324 -1.0433564910632935 0.21425953951165033 -1.2861313644058172
Ni 6.780810061218354 7.757240648346797 1.8625965561972289 -0.08904553000544664 -0.8142051220414752 -1.0294979879136463
Ni 7.516778330102798 3.8904018042395365 8.716619968678344 1.0579726983145714 -0.3848558338073953 -0.3177371857820269
Ni 2.513003558671946 0.4310986782035867 7.059199504898794 -0.8884498395886635 -0.5164001564070009 0.23188548012352966
Ni 3.1266200020224852 4.645663979302879 8.04861836526721 -1.0051216159518108 -2.010935115764324 -0.8438571405799531
Ni 1.368130147915562 8.56292755809321 11.11850892370535 2.2251635449277227 2.0391108068675914 -0.9871848289677322
Ni 5.765449767800781 4.7738187612928895 4.570051826294885 0.4591077504434351 -1.339940182696157 -0.9838547361532345
Ni 4.967487812827147 5.2714407581569755 11.309416950734697 -0.09284999135320139 -0.7794682327809221 0.6388972812026739
Ni 0.746410818392477 8.066451367917907 8.541129509876724 -0.23901592052072385 0.8798019341056783 1.0708549535938783
Ni 8.019159120875951 3.66673849051337 6.195853569689879 -0.04391495621539533 -1.0908558221958375 -0.5452595038408544
Ni 8.016082075493973 2.999768113122142 0.1907149031600274 0.7851393150237704 -0.30661459350630416 0.22131233259337366
Ni 9.118588359894874 7.569097341972971 6.442589179554978 -0.07008801506633736 0.04497373649721287 0.9004790028390557
Ni 6.416443534184674 0.8245178730615346 0.9635929320257892 0.6295484929979221 -0.4268375775558197 -0.7703976379382216
P 2.0931023687382773 8.225829382177313 0.39445688914142024 -0.6538114793103449 -1.3833512026919401 -0.22696695977598974
P 4.9432780263383 2.5416117643854848 0.9086699820515861 0.32183835243459413 -0.11618815185850956 0.19946284081845003
P 0.4659219611661329 3.9132624957561046 8.38670988165927 -0.5934149805001587 1.0368811677515948 -1.5061087802378514
P 6.495910772277838 5.793595954688197 8.791652750078379 -0.8757483328615949 0.3978000526728891 0.8621443689249152
P 3.958623504104865 3.0315088064767948 6.676423375719417 0.1642803793800461 -1.2705124269216377 2.0104545765834794
P 5.005077664520519 7.928206094765369 3.173066754612635 0.2507123830220456 1.1474833408818947 1.0680542509202897
P 8.450971156147073 1.1644352878544337 1.795313678586582 -0.00442024055488271 0.5690195823749297 0.620324403296493
P 0.2440753054642824 2.082984156446183 11.88653575489682 0.6771630095520919 0.9732491927232464 3.6084977783387977
