# total energy = -340890.1895894796 ev
CRYSTAL
PRIMVEC
9.09629890211318 0.00000000000000 0.00000000000000

0.00000000000000 9.09629890211318 0.00000000000000

0.00000000000000 0.00000000000000 13.31335291122856

PRIMCOORD
 96 1
Ni 6.822660895959097 2.2423013853515896 11.419315516651585 -2.273472002225123 -1.1398484500444561 0.0888418986350728
Ni 4.86337266237376 0.6231010318054926 5.698421100132213 0.48480284121669415 -1.6161365689219198 1.6442204716423297
Ni 3.0758316508016885 1.6826061059449873 4.839137392864204 -1.1344229081535107 -0.3437639488630918 -0.1816497238964291
Ni 3.5477385482555337 4.004327278140377 4.448364024991689 -0.37478919360001256 1.9873025639470485 -0.07965251882632089
Ni 3.8170344810823256 2.4172777935210257 2.574629212687077 0.33717523990198056 0.24076041401565632 -0.2544337977376908
Ni 5.043397516505665 4.6636725134367785 2.270831927263808 -0.4149634518260531 -0.057366196624294756 1.0240943003995717
Ni 5.406949299896592 4.415316260980441 11.426798132234877 -1.0193282464694962 -0.13345568068970565 -0.07497105419025152
Ni 5.536989990850545 7.953158035889731 12.219993588519612 1.5367388464188825 -0.4325881068863518 1.0524849357271227
Ni 2.0022227650138933 6.461774328184392 13.38111796728922 -1.1623067790479724 1.0940861562076771 1.4595640997090928
Ni 3.1214677830425943 1.6485313697730852 0.18166855536689155 -0.6294253371564966 -0.7145260235815823 0.19730568526613115
Ni 8.08157048931705 9.180803649476509 7.053720535807086 -0.8463634519415745 1.1004169835217115 -0.041745716478218425
Ni 8.81044783441004 2.427311011352742 1.0778241107589803 0.49406086947985234 0.4250696870221196 0.5700457096465988
Ni 7.195636445146629 0.733515547969138 4.6712160742235795 -1.5651294817464334 -1.2313609535331569 0.8534170163542465
Ni 0.9923971280347944 7.6783315532518035 2.7266811280373924 0.7732978423041521 -0.6438829073427232 -0.2922866069194063
Ni 7.905229636292894 4.244433187375168 3.914165671770309 0.16809178270633632 -0.8766312496871805 -1.0296316852780332
Ni 7.475074751393515 4.081800456991442 12.660119836417294 1.45678756540522 0.12886831842933935 0.43378675518014326
Ni 8.114972099360623 7.489174014892299 8.995233691455018 0.3743377078848908 -0.3559214101612322 -0.15594229182799596
Ni 7.38815961414778 0.5932660806121607 0.07887855705142778 -1.0544554291899324 0.010190824490072772 -0.25737796796767937
Ni 1.9109868857282077 6.6453740278356666 9.076152548379206 1.1861074810119958 1.0043130040075865 0.17466995014448627
Ni 0.11031809539391176 5.017300234584366 0.9419199454493382 -0.2972498644619526 -0.08700793075012757 1.1795305991254266
Ni 6.561151395103248 2.1965288086252115 6.943712624210148 -0.1455799747570654 0.42756108598540554 0.013330655670635107
Ni 3.2863563955861257 4.413751697547027 0.37280544839564456 0.9499218308512155 -0.9443451080943865 0.3328035931968462
Ni 5.937390881617973 5.715122814783903 4.5122018515945745 -0.06580095765520926 0.18088559203689494 0.292497951599264
Ni 5.401537001972865 3.0584577196515728 9.25777289336123 -0.3322639186432923 -0.5938566960232675 -0.28096192593520647
P 0.16574093576278037 5.860618117792331 12.223361948050968 -0.2888832376648122 -1.0891588941093888 0.5087866057258013
P 4.160556214005945 5.9508170189884275 12.37633258960346 0.9929520704688124 1.7456342934051419 0.7502949536510756
P 2.4656337191723416 8.43410665458086 1.277406917438457 0.47583071962507084 0.08617746442903224 -0.49927866623536593
P 6.496494901587529 8.136948757820665 5.95969591647305 0.2516037844880635 -1.2578420305428208 -0.9210367723857493
P 5.0039286750080985 1.0493672488689167 12.401121823724035 0.39352405100535454 0.5098883234304122 0.16543737580262477
P 4.1952404022129555 6.396490190035502 8.159794112838213 -1.5481020939505017 -1.0516837799820662 -0.984599327628743
P 5.1894658863530765 0.9832007697139741 3.5605233965442706 -0.939233497899434 -0.09895121915493281 -0.5500286430947237
P 0.3641275791196182 5.815209393027213 3.4820678173978066 0.06723460477794227 -1.6542881402909768 -0.3719378401941465
Ni 0.8312989432976784 0.3528572646196218 4.652191164799252 -0.05949532715215561 -0.6338427494979019 0.31051804232576846
Ni 1.9454163775623374 6.426598939829682 4.933835323561269 0.7747204336832915 0.585765691485017 -0.464734095491277
Ni 6.141557313379408 5.609842249793621 8.98974862313904 -1.377604787126466 1.0318978556043905 0.5875716343455042
Ni 8.66740853214011 2.412038325278896 10.066559406185913 1.6492832308772176 1.1417785771876336 -0.9776270100759678
Ni 2.5844677697195197 5.251493549448699 7.12071386854399 -0.2462044678493631 1.439035897848754 -0.7262260856273299
Ni 0.5512602813147163 9.337623844779122 9.098731381835131 0.5225060121944227 0.1648290527946645 -0.7554692987631634
Ni 1.6668058345273165 1.3518464805625254 11.031178256238393 -0.5105588671348755 0.10795085155038184 1.6180538405492906
Ni 4.176802204076157 6.910958670657616 1.2818031587603687 -0.07886087616296096 1.0003398782924515 0.3538442159172293
Ni 5.605594278145922 7.9330188298340465 8.005785583566228 1.266687653858909 1.195455240775483 0.10443023999163305
Ni 5.469977555885675 2.749674752729153 4.719596559882281 0.4166986893496049 0.8540453939668647 -0.12407192548196053
Ni 0.7071308229984441 7.855136317526566 6.835847800665025 1.2682200313430352 -0.9621656812155752 -0.062498889865169785
Ni 5.080974327804684 4.955454497469373 6.694433097402115 -0.10739677881912471 -0.07151214910737361 0.43226209100550067
Ni 0.9235836258616927 7.586395258940694 11.221864882465086 0.17564259847040076 0.19328190881871873 0.18279309347225295
Ni 4.758847090203092 0.28798245992714844 10.336207365785222 -0.8860162904465063 0.7954661508710752 -0.4952078386001019
Ni 8.482198787560264 7.234923360663567 4.7200095318583095 -1.0067249558831888 1.2266085264498359 0.730227236366923
Ni 7.324549195020681 6.251949998425379 6.923076760227345 -0.30333643697566465 1.6679275854512823 -1.6478549830711233
Ni 2.3310175898055565 5.491626747580583 2.337025695315845 -0.3080610961448436 -0.5607863958318601 1.1719751553756719
Ni 2.396356305748635 5.112702218826467 11.58635813280577 -0.7030468192973892 -0.04265794387984266 -2.7063755834693644
Ni 1.2430365515480322 2.9758724207448193 3.7679581285477157 -0.3511517566867307 0.8241558054962839 -0.29798571418671266
Ni 1.6139472408554205 1.0679964692853758 2.4090774799441514 0.45546989658053166 -0.3002801666478441 -0.4037411007476724
Ni 1.131679658804726 3.620017740359627 7.993443725040324 -0.28655098998720974 0.3398098493113503 1.044820991423962
Ni 3.6822455220339414 3.1082963420450196 7.023765513466539 0.3244958446620992 -1.3734542552932025 -0.027381991557378648
Ni 4.15780913169844 7.208744212050983 5.941949037062644 0.6023117687691563 0.31604514279158474 0.08238920103119358
Ni 0.7987960475984152 0.34785066163269845 0.05078008934320424 0.46050180257748435 -0.9305904775124553 -0.15007554863457379
P 0.3357498550311285 5.959749584637336 7.8191049674329935 -0.42309122313951003 -0.18676107698106545 0.019400773124114975
P 8.599068037516645 2.127706210153079 7.932322053328236 -0.2667354979231793 -1.7843255393277526 -0.5348534780161821
P 1.850305474889244 3.531392498895975 10.19640452671069 0.15330074044009084 -1.0899603069647614 -0.044642835520355376
P 3.90796108620094 6.202020413041618 3.8878582653413822 0.3742598034591038 -0.5407127650104365 -1.1034868806962865
P 7.167847251605476 4.026977062728748 10.073455310481673 -0.14362722190606877 0.47081655423993113 1.1805456706535025
P 6.366599751418078 7.855809443654895 10.174091305186485 0.39290930023949105 0.024943043098582852 0.19562932600497276
P 2.5003906777716045 8.656511165900405 5.910489486862291 0.1706160917900868 0.987936619532092 -0.5074439756549777
P 7.0171397692520125 4.043168475004772 1.51631120557119 0.718330227819021 0.29557556208332325 0.30899492081302266
Ni 5.435902819713773 2.903156606287215 0.42386661337892134 -0.18399919796521214 0.2254404958291343 -0.6396585848487306
Ni 1.6005392960830278 1.4943036196944417 6.991973038721634 -0.3268658875561726 -1.0345597187072697 -1.310098673854692
Ni 6.84403719868306 0.8726643631433069 9.136714797700858 0.19809681370885884 -0.020331255358184343 -0.31091630620545163
Ni 2.77643606447975 1.7232028885224562 8.962775367621008 1.011689756087632 1.3482487025618521 1.0440329483050277
Ni 6.805314253706075 1.8660147833165996 2.2736681533018217 -0.11251301699976753 1.3416376250032378 0.7515362822573444
Ni 4.190137378456299 6.9524377942411375 10.243107654827988 0.07162013544014763 -0.020304258774990838 0.7618014116287783
Ni 8.296397783543375 7.372814157681683 0.34623879744432123 0.7160807696632119 -0.17586037090816165 -0.8191264706024924
Ni 7.817186557967255 4.376083923257693 8.022839324990436 1.0502483330871202 -2.4269079826914974 -0.4437461803857003
Ni 3.243139878887592 8.19437369360636 12.36544250040298 -0.9058983740824141 1.1144978870948097 -0.359434051300181
Ni 0.18093903218456733 5.318596947403883 9.975894774479405 -0.40032744708043316 -1.1666097772987005 0.7418326818163353
Ni 8.72929975075026 2.40391533024379 5.699845580560542 0.17667772460313444 1.0959064972458674 -0.14000068089707504
Ni 3.763630109468541 2.5869419630560806 11.349553270489503 0.2384878159313957 0.7625812272175964 -0.4554670683670543
Ni 1.0201590326788534 3.4231192515243385 12.592288734539592 0.7745150025407048 0.19336649811272505 -0.40081852778423877
Ni 3.288785107427529 8.70690466253477 8.115047598642585 0.0816878040887948 -1.0177079372572537 -1.333290281479807
Ni 5.4981578902851815 7.937284994079809 3.506178467610632 1.5913817305747433 -0.2550197521481479 -0.0495497859036695
Ni 3.2067637790607266 8.28235309783878 3.549632397713887 -0.788663526126945 0.7935967017625042 0.15540261727444202
Ni 3.6066734696804548 4.591993677068762 9.287155758492696 -0.23312012386157918 -0.35173051200833616 0.4359014875303009
Ni 7.180327373876658 6.037823119224479 11.22439456322574 0.804969205265504 0.9422141777943128 0.3984505417726944
Ni 8.459339788094171 -0.04921643553969384 2.284451815803634 -1.622887000271876 0.23061561227217056 -0.40967186440981057
Ni 5.148232362843404 0.5975913708016265 1.2972905174913563 -0.9812093281105876 -1.8097812603966958 -0.07887193190655449
Ni 6.061109644745052 5.7789788339848505 0.3835563642209438 0.4811611306990487 0.5446732923200812 -0.7625997391603576
Ni 8.162291046922352 9.01037539082281 10.99886638281879 -0.5164181541291301 0.17957844318969718 0.8250047837601404
Ni 0.24141668592522614 5.070841050683622 5.825856611043553 -1.0780473575772593 -0.5843592980557936 0.10403994653174985
Ni 7.424599388067865 6.236440808576716 2.620467282766482 -0.059359830015555844 -0.011651982416631547 -0.8869853392279949
P 8.53294703985686 1.7104316846822667 3.509772415357967 2.3746698513223876 1.5683850125692538 -0.7512346918565256
P 2.024144845679746 3.059713008917916 1.4990700803869341 -1.3276973607730618 0.6179607881603228 0.022508979735793494
P 4.892480819274478 1.2349863269051775 8.075400469684002 -0.5731312905504581 0.18667905879022043 -0.1341071982307755
P 8.818034147802289 1.7912886867730398 12.126467261137803 -0.43654323487935787 -0.7782852682164144 1.3260035180104066
P 6.551654858914388 7.925505286834049 1.458331395544574 -0.6517479119130969 -0.42323546202685813 -0.45173896878318975
P 1.859974840759701 3.647715970910466 5.811624541578908 0.6560318840004314 -1.815877345992105 -0.1623134854616624
P 6.835259270117688 4.13535036938973 5.7929325566991325 1.2530497513605001 0.055221125256833925 0.767513117301575
P 2.4730744917800878 8.666653539320498 10.10259803331871 0.19987396021393963 -0.11353657316827542 0.5062442989199216
