# total energy = -340894.2254773068 ev
CRYSTAL
PRIMVEC
9.05330361992355 0.00000000000000 0.00000000000000
0.00000000000000 9.05330361992355 0.00000000000000
0.00000000000000 0.00000000000000 13.25042496971714
PRIMCOORD
 96 1
Ni 6.573449680453267 2.083563453845134 11.448287798901148 -0.5418867307138797 0.1370112592514479 0.4675556241004722
Ni 4.760905916690463 0.36317960253326287 6.084700759993696 -0.6775497034675493 -0.41518945179393013 -0.505985131721264
Ni 2.8071215668448684 1.6843127746418074 4.632984550545176 -0.43297171547801566 -0.4704594280108284 1.6398575666879438
Ni 3.3020566095062436 4.368762080643023 4.674856078692917 -0.2526949606697132 0.11794575797956462 0.33374615961577364
Ni 5.050394345674716 4.423081900942796 2.699217054480047 -0.14038763192284853 0.47038718001199636 -0.14665366743721842
Ni 7.186910571008745 6.090302038796941 2.4383434014993757 0.39158569633206114 -0.24453839300084984 0.28716419809117644
Ni 5.290506058006477 4.443976925151442 11.447439504374135 0.035649116662177315 0.3153092930668247 0.10584151851686288
Ni 5.449717451305109 7.776153875013909 12.25768933458129 0.29184951938198767 0.18967850773817657 1.0999958368238927
Ni 2.031977731167117 6.599387394646408 0.2430377399852414 -0.009360358168977427 0.1310871804575291 0.5928501091356241
Ni 2.766254955372673 1.7939392253101314 0.16051054233413561 1.1560448572986608 -1.3811081722940342 0.8445202280852487
Ni 0.4420682775546222 8.963630413283848 4.939361011660629 -1.8319806793118707 0.12751514683555457 0.655986889695109
Ni 8.741978386550628 2.3684799646208234 1.5440318387176455 -0.25653953122678397 0.5031803152826173 0.7434483630428873
Ni 6.9413397167368585 0.5463052967188704 5.02147356801678 0.044703770665277844 1.1217694810555583 -0.6141928364774584
Ni 0.38166282672059876 7.270345814989196 2.072472251870259 1.0803035006012878 0.4449427717969628 0.6052631380879964
Ni 7.568425828884196 3.6696116735646536 3.840423969818641 0.5926932718427856 0.7421592119178186 -0.20806832309927392
Ni 7.748188220862909 3.8704954223365946 12.731856099281387 0.3714719563013215 0.04938292130850205 0.04015291806980182
Ni 7.7970307926157885 8.790458826168175 7.18630128369105 -0.8001818111791897 -0.01131593923345148 -0.1284260886855982
Ni 6.833315700767377 0.7538975432978336 0.42490230900955583 0.04081060625845875 0.03569025431275789 -0.5600973401846354
Ni 1.9011484439751152 6.406995644447997 9.207348961683515 -0.5385036731742597 0.4892007131740736 -0.499310805024882
Ni 0.39309895955437746 4.849528703509542 1.5561831825187045 -1.3104974519550074 -1.0457951824117733 -1.2887060671115287
Ni 6.298844882231151 2.2145647538014184 6.99732353419848 0.2813995276932573 -1.0305338853773285 -0.34315588296544774
Ni 3.4498065207216246 4.381427652076253 0.6051046915326972 0.39011836775791525 -0.1907696839198263 -0.33503685340273914
Ni 6.085277455419212 5.69537883861083 4.6237891102987625 -1.490606313726878 0.27400914876645716 0.30888127805329385
Ni 5.445806424243526 2.8898687597681882 9.248995062577011 -0.6947863790608099 -0.42671313616281353 -0.08125020233074394
P 0.2302273156978784 5.595140663550983 12.608826232954092 -0.1373879258645763 0.17575418434760054 -0.33172372986910614
P 3.9339228658399623 6.004956547802616 12.436424176626 0.9417477796808555 0.3643970517324111 0.8571494868134851
P 2.4421919607676146 8.497014103605421 1.452392491211253 -0.3473935751958791 -0.2839356638515497 0.09296594810577538
P 6.348085799332894 7.618354797043071 5.942855413244901 -0.9441278498772578 0.6139601516413621 -0.08353874125460453
P 4.871138938685467 1.0412837952364857 12.710615238883499 -0.24974821933656344 -0.44440695389815077 -0.6510701691197819
P 3.9343845843125105 6.183958462297133 8.113380372738279 0.16238084836448807 -0.929012334392058 0.6964840784782069
P 4.778650391321722 1.0911946567885933 3.870383161374642 0.533199744462843 -0.8694105635690254 0.9818875851245348
P 9.339749902342854 5.585136763312442 3.603757944754563 -0.6638899465922696 0.4252998007550546 0.23632937482749622
Ni 1.160696866862152 0.7670012946148154 2.9341339813304725 1.5707779382814626 -0.37264952154919045 -2.1340878718661247
Ni 1.7572009201807186 6.592778483176603 4.948053088238931 0.1735666897779785 0.4330097678048026 -0.7699502659881577
Ni 5.973496318545664 5.426296555452525 9.08333862259981 -0.5958511007454771 1.262176910472749 0.6698916727016592
Ni 8.768667524924583 2.2388728733855667 10.267263549952483 -0.1510667089032495 0.8742131271639912 -0.22165994574077955
Ni 2.251085779649632 5.372483720142216 6.95887143873861 0.07256707273444922 -0.9354886861450211 0.3600464880731993
Ni 0.31590958957806264 9.087615403118079 9.11064791225552 0.3847897564561502 0.42552297250945426 0.6687277343005451
Ni 1.4298696830542905 1.0645145717180218 11.48700515615015 0.6856656477064643 1.5075848505627456 -2.584444358479491
Ni 4.372700267614757 6.622065919621563 1.5457411023964116 -0.5846305494393093 1.1810776318975724 -0.20851312394617638
Ni 5.566903410298485 7.73124043692938 8.014029421409996 0.0631267532571558 0.5207448065289418 0.7335485874306722
Ni 5.2732323551511495 3.0706722816359804 4.927726611482756 0.04361567980742166 -0.8746299029864357 -0.6377071175493146
Ni 0.6042609236573742 7.518406327691489 7.203261742249316 1.1982708558474071 -0.5216621761368887 -0.7502594724274498
Ni 5.059818834496728 4.470684170132163 6.972996402677227 0.12113803966461717 1.498844128255638 0.057331743841933513
Ni 8.145546759659128 7.125891306205335 9.423185146323306 -0.07742620059896342 -0.3699172102196919 -1.5377243502606033
Ni 4.594135015066779 0.3637191794149072 10.436379257152442 1.010950306818446 -0.9859951795350052 -0.27447554687991443
Ni 7.893566166591867 7.179206209829561 4.5969831843111635 2.1399944671585467 0.056711850869747484 -0.5330511347001207
Ni 7.373227554636965 6.016019684537002 7.0721626666164905 -0.005869828517215697 0.905996076002543 0.08339038860219833
Ni 2.280662921802858 5.545800160112024 2.6773804867195383 1.0461762199002758 -0.11267756760208983 0.09121554107357194
Ni 2.209639756760906 5.342426752909676 11.312589645149611 -0.35376682571207463 -1.067567283981542 0.867064946154984
Ni 0.9896075395246358 3.1982152196998457 3.6479217693189545 0.6952175530609574 0.7778150134482154 0.11004732906809434
Ni 3.7452429700287033 2.4156657818545586 2.557888651354438 -0.3832488943315916 0.8159688988101174 -0.9076390109226046
Ni 1.1786676740779933 3.37778749230751 8.333854564701333 -0.10925800039757957 0.33474323342172024 -0.64026099431942
Ni 3.7710267780643285 2.6488879303116315 7.182763252728858 -1.519598844304486 -0.2977687130799001 -0.29988293120942544
Ni 4.059818102688068 6.9143337127444875 6.031010144279063 0.31543090624635356 0.16981236494186885 -0.9319644750418465
Ni 0.5479357966582019 7.355483080005706 11.286910855433232 0.9782078222801024 0.22548549013445682 0.2665850883882441
P 0.20201269570383834 5.577640628111073 8.117700609112788 0.14885324619169849 -0.5472546798940123 -0.3298697073795029
P 8.40566627246797 1.6589997383821136 7.916002063036349 0.26258728008276067 0.7639608811739423 0.49273520868989334
P 1.92470513937845 3.116328090597939 10.388160458002671 -0.23452857417333156 0.3337613291244252 0.9836171662211318
P 4.088589500840181 6.254900147608635 3.740157729518306 -0.058113102092648306 -1.0404223481356338 0.45336981951839345
P 7.061630958790704 3.9366479101583343 10.237701798415008 0.6746016765828188 0.054954244748692455 1.4187984877559565
P 6.241374512353992 7.68371059416708 10.222915037999073 -0.38136658970721415 0.5459830122704404 -0.18934966364384812
P 2.2226493537227014 8.543738202366608 5.774282904247941 2.1252900710688367 0.34214363965084943 1.3167344340036549
P 6.92406601388153 4.015375436379471 1.6476369373057396 1.024682311692558 0.16293363554416454 -0.020788397500260968
Ni 5.4679326977123 2.893598720762106 0.5376277054259817 -1.0451799174252774 0.19816829037674258 -1.3136848485440535
Ni 1.390352013786206 1.2096752381657803 7.172878856094976 0.5989112277280395 -0.2298558512880106 -1.1061322887389338
Ni 6.904882064012328 0.849285863735249 9.319897818683964 -1.012645692242998 -0.7067720906677764 -0.7815922211024603
Ni 2.7633126317731023 1.3684430195986315 9.301930632789478 -0.21708029678989713 0.8454031449108343 -0.6553654540610261
Ni 6.267737731806148 2.045702539096193 2.5942476230720906 0.760706893013019 -0.7218395265238601 0.6948527135223711
Ni 3.855611791574457 6.820668235940913 10.425553316966697 1.5917460558926972 1.0520396206595883 -0.6516568948611874
Ni 8.091172619539055 7.55950832505165 0.061956281703582 -0.6339268245712759 -0.6188056526591214 0.6950712572910803
Ni 7.618110357851721 3.7860462083772153 8.094856408685718 1.4778988934625386 0.27616219055371793 0.11981443575718721
Ni 3.1125981296040215 8.567955788916924 12.298275293648603 0.04334185732074471 -0.4317517270279854 0.3009663940815913
Ni 0.1263560499903154 4.772530358234615 10.214355139650166 -0.7078007890426068 -0.17756938317946838 0.19689173765716414
Ni 8.640880147669368 2.3868038506686133 5.788553626371029 0.159679390272925 0.4672296082196211 0.3748370161188125
Ni 3.9391556751955075 2.4985940408455445 11.393788723194387 -0.7882506069592424 0.687102637263307 -0.46413374290311676
Ni 1.2453724134061137 3.4814297094394755 12.68078913088723 -0.7290406722579896 0.1641695648337947 -0.4271566514581353
Ni 3.107048454630061 8.334670267336168 7.920083292201539 -0.27027333587310876 0.19572034305688227 0.001000159129740213
Ni 5.6957862372630785 8.005501209622931 3.7449016604911534 -0.393117045374923 -0.3475758664100143 -0.6975896528375599
Ni 3.287471737755755 8.23494813056917 3.6875399302545935 -1.1051717245978774 1.1109248250315706 -0.031110605361875453
Ni 3.535939649110297 4.311961655216228 9.432460255639493 -0.09936285277105468 0.24015234811801223 -0.4844056057782754
Ni 7.312878234283917 6.2281476361109975 11.464863492065625 -0.048023579067130194 -1.6671979063741094 -0.1442705119170225
Ni 0.8396187463825661 0.051546793473468966 0.020423347102376067 -0.387730584252029 -1.602946552594207 2.8772405580454645
Ni 4.583596969928623 0.22390177262396993 1.6752775778652786 -0.25945079133630805 -0.13297462728822904 -0.5235470518644274
Ni 6.0860741461169425 5.523148795047018 0.27571744920792274 -0.5056112933216131 0.5883882167095287 -0.03857734605256582
Ni 7.837272726154537 9.053149477137874 11.371103860906864 0.3822104257647482 -0.12944013177240934 0.11120201149782785
Ni 9.242245824904764 4.899457671668415 5.7088130355013025 -0.6538562165053513 -0.6516808061205873 0.2285124498862387
Ni 7.763443037063762 8.946456296765739 2.4789031059868774 0.48111793616593923 -0.265913002021884 0.5770679066007031
P 8.441236701460939 1.561884952989504 3.7456829605731317 -0.8651685004632196 0.4160487144704319 -0.04454101983516845
P 1.9643133416803673 3.121588059863634 1.5890303778539767 -1.3219080077847944 0.8534913212356076 0.9508199171854529
P 4.77916642961457 1.0110910284531958 8.163030499152947 0.05811078809980314 -0.516840072157897 1.0889128395368537
P 8.724614150661468 1.7796531125712913 12.76597618907235 -1.0738490032251957 -0.3657790196816023 -2.0500855607115405
P 6.2806839556442595 7.771645329929028 1.323425468525195 0.16480411309400003 -0.357436561254178 -0.11225076447731636
P 1.8755547553105392 3.304356148565601 6.0756637525564905 -0.21588756203337658 -0.5712335593071131 -0.5475665547074763
P 6.951171604211116 4.28210386065812 5.891920623080143 0.5897097637344296 -2.2849558344950065 0.5406155773109399
P 2.16800361450113 8.470478871388982 10.07859089678393 0.7508485121617005 -0.3673355655354448 0.9015210709503247
