# total energy = -381167.103744066 ev
CRYSTAL
PRIMVEC
9.26886691959245 0.00000000000000 0.00000000000000
0.00000000000000 9.26886691959245 0.00000000000000
0.00000000000000 0.00000000000000 13.56592364824533
PRIMCOORD
 96 1
Ni 2.5121131877293172 6.471170648575512 6.168574585514619 2.0087548202835532 0.9672844904993794 -1.919136705604088
Ni 5.8679527911021845 4.47140334728897 5.447451179827165 0.6421918927935456 -0.4601973839631881 0.05370288884009461
Ni 3.902137349249027 1.543201455812953 6.039236816873211 2.1313051669146645 -1.3082441371444566 1.2010219362299832
Ni 1.6266305267274803 0.6018738717736728 12.532824220032301 -0.052730240514180154 -0.47947217303240003 -0.8619399662235929
Ni 7.517069588914948 3.7371144430650207 2.487230914551887 -1.2151362641441783 -1.8962454028282116 -2.643890577561266
Ni 4.114468552060936 8.814803642769293 -0.16338787806387303 0.06796839762017326 -1.9839495883144156 3.313553679191887
Ni 1.5330520465638242 0.9078697552113535 5.502283942599763 -0.7173514088455194 -0.18437792146086956 0.6445945886977673
Ni 1.6620375982632534 2.8150753710325325 0.5288880331888197 -1.2203838856963627 -2.0945409628114375 -1.3689537963196874
Ni 7.5686230265803855 7.489262988232404 13.566602263134216 -0.2075337907520426 -0.1799913623573997 0.4429810200849016
Ni 2.9868923566499737 4.349656780633897 7.928902955870529 0.2712660388036812 1.6689495989578935 -0.6516777207967938
Ni 5.375192020406815 4.5908790415549685 12.52878206717975 -0.6073413607732638 2.76031090003524 -0.5609674014944145
Ni 5.88079944061752 2.489988402452906 4.091374243307394 0.5020307750592063 0.584046137690749 -0.7169554589586814
Ni 5.720253397143402 2.5211503329511444 12.893718675197528 -0.016214147866017235 -1.719385387010942 0.7075323658725685
Ni 8.389158737254693 1.3373121154925003 4.010114087246105 -2.12612465115499 0.8091534185501807 -0.531404086015001
Ni 5.877666563607286 -0.0736689540749542 4.980430052496938 -0.1705153045461644 1.1220453604247642 -0.4074540308228854
Ni 7.78021272004076 6.2642710017635945 7.618500653111355 2.616932046694551 -0.3291487700530783 2.0477491992688797
Ni 3.1326452885609775 6.714812083755967 9.167091028136586 0.9509029638175623 -0.3013548877692616 0.6699443803164655
Ni 2.21801204117694 3.1214206907521236 6.134592138820481 -0.7503895702474109 0.8098602148092182 0.7312217390697084
Ni 7.416400425577244 0.3052367632390472 7.747797638738429 0.9830936896174941 -0.5891119822494305 -0.2397831377040516
Ni 3.1917806593458553 8.58561237107687 4.889918640388567 -0.6141103040659811 -0.016856923656338712 -0.389970015105509
Ni 6.463913125797369 1.5567803458129288 1.4749418124574432 -0.10322439260898997 -0.5816830367752112 0.8460322938544009
Ni 7.180192621645924 5.053692103315237 0.5976454146965472 -3.7767178590928827 -0.3462738597691391 -0.2623422539514902
Ni 0.498917152086484 6.198193249674976 10.647648847045211 -0.7376145299699297 0.9492803406124749 0.12596862828404112
Ni 3.7950726677543374 5.699175993826034 2.7486324255882817 -0.8353956400761613 -0.6470191389788599 0.12293164122993021
P 1.8512893225086504 5.036266633554176 12.05754175163929 -0.0047580835102756765 -0.029782887689387416 0.8359286297614957
Ni 7.2025769351953715 7.400448705652358 3.7327858822254383 -2.1744724463307583 1.4967422514212867 0.5037145905195325
P 0.025673834410193212 1.9711450403173107 1.9757136648094529 -0.7899159104768073 0.8057981289247026 -1.2384903654890864
Ni 2.613959497162583 3.6712035305804966 2.2900088916641836 0.8481228578348425 -0.49900021576299874 2.821687503370508
P 2.1056270300849897 1.2685278542707799 10.073471276438044 -1.00370442388931 -0.4559308953773503 1.5179314839043925
P 3.133553637516607 2.431640885354034 4.391072858577168 -1.3808253509462929 1.8371884487650556 -2.308761164444721
P 7.648668961078537 5.822850484795097 5.204430758728622 -0.667495661665657 -0.2304538898833257 0.6868979774516687
Ni 5.1364723535471715 0.5946052263552556 7.963658426063642 0.3456207995661725 0.953453755263874 -1.0749131828236518
Ni 6.748059509305396 2.143138134405742 6.19856863878419 0.08024310122246825 -1.3375781102218836 -0.017530809794911745
Ni 6.769034955086928 2.3003288480641655 9.021827492397595 0.15881884204484262 -0.381152416813879 0.9632959381652765
Ni 5.014753593492781 7.674352991242314 11.234592428025737 -0.6507850337791953 -0.22874770582549633 0.8994487618023282
Ni 6.451706028097732 0.1632025007259894 13.003629825715421 -0.09765461183069633 0.30165030752249333 -1.0620599810100677
Ni 6.7287895350323925 7.473348343775095 6.305129093919836 -0.8529151370171634 1.5402918538774635 -2.101577043722613
Ni 1.6410714213486148 8.34328711499539 10.713470778407553 -0.9285485073817621 1.3900923780705157 -1.737688299085188
Ni 0.31195483796394985 4.520389308824719 1.9489210781651318 1.2806253469859237 -1.0477700467499567 -0.5586166418740508
Ni 3.7534369176656743 9.10577191231144 9.578356213551553 0.12263210771164043 -0.01760460045564065 1.7691832843696755
Ni 6.443225014889555 -0.3306686802233022 10.077242778377286 1.380391348732668 2.7579208025365087 0.7241033828573723
Ni 4.288185655391685 1.0235424333906697 3.4090484606656046 -0.2770731324037615 -0.6395531696191179 -1.4022981761080882
Ni 0.9473616163873922 2.540142241217322 11.661593368766956 0.05069058437633205 0.7229389302356259 -0.5630623363502304
Ni 1.4865408724888218 5.071395639083124 4.11556227835445 1.4027434911756231 0.39400279041398595 -0.8576747631893358
Ni 5.39794708863203 5.625720223689647 7.403263660528121 -1.3630171191202782 -0.42628119083171745 0.014871517795193741
Ni 6.883208857489456 4.972969541533811 9.299101937990276 -0.10028279348216278 -1.256086738414611 0.6138218262912848
Ni 2.887873051619433 8.820541071376793 7.547821835496464 -0.7569011461136835 -0.3015762597514484 -1.4817761170297576
Ni 6.044228101695727 5.377954142741281 3.2426899107621465 1.1642857571512142 -2.1206358601262765 0.9505368387273953
Ni 3.1815014859602075 2.058494841928077 8.442467698309889 0.03964743918829301 -0.06629100991775035 -0.4139938888239322
Ni 1.9783284121603013 6.288017838746487 1.239452345710422 -1.0250535789890474 1.237014295164192 0.3283753822221635
Ni 8.988103647089805 5.570023602522509 13.199317851132138 2.8326128920337603 0.08064033666088694 -1.0836559620132884
Ni 0.8198980126319878 0.9898222956296375 8.212824105913027 2.7164021144674315 0.542401208456453 -3.899588822288207
Ni 7.15877227025347 6.0638317551769205 11.425478253504577 -0.5673671343731713 0.9252590379972129 0.4165187121283149
Ni 1.1532880321754218 0.6166577144698923 3.159965273731577 1.6518785024082197 -1.0991016071443975 0.3690250374227258
Ni 8.84265658778631 0.5299511722215824 9.727336564915111 -1.9496485010397002 -2.0149300958563297 1.7718158368965162
Ni 3.9789206426004267 0.7989605692047214 11.797049516445215 -0.9747417181083728 0.8657678246101155 -1.9540818542207057
P 1.9030837507133365 7.097087961072693 3.288122188730666 1.3669403654340846 0.5711132316791647 -0.41989045681402526
Ni 7.877285563023523 1.8424560923584956 11.350472728823485 -1.3088252064589072 -0.2235995859656536 1.0169124379391519
P 5.972255350262408 8.859766916072969 2.5935466716015276 0.4288013861504099 1.0564236086598966 0.45267356478231713
Ni 3.305982368349065 3.0594583155645205 11.922248736018371 0.015658789583179483 0.43775268180642674 0.2572445277136086
P 5.514855306768342 1.7635224218876462 10.857405158633917 1.8363469267003663 0.9860370885165342 -1.2413532888591783
P 3.845958747003394 1.7408507734644785 0.6854864662527049 -0.10815499714138792 0.5008542382526019 -0.24779443804430223
P 5.128667967622271 5.986408910009823 9.995901983174019 -0.22936297081199208 -1.112931056828322 -0.6617507887620796
Ni 9.27266712960807 6.932306045427935 4.265547374889336 1.5750742516639713 0.9848798349836394 0.45381590591687654
Ni 4.487929736961296 3.751935361228817 9.86309117010736 0.47021697298271925 0.2726022411166015 0.6366763622919551
Ni 8.696885118141518 0.6575009764391028 0.334804448631486 0.25698253230147355 0.17697802945237262 -0.9133789987301754
Ni 0.3647549382266545 5.195728219601674 6.049547504406298 -0.762886417162841 -0.8261124150020224 0.5915095359473296
Ni 9.198460581253252 2.786351152527464 9.48974306538311 -0.42567775291976373 0.8185538859284741 -0.20103969838726668
Ni 5.649179725798819 6.848960394315456 1.705480777396282 0.8440954818430043 0.5839152685398394 -0.618788940488573
Ni 8.545672823629841 4.165169253972109 11.279292465509617 -0.5411979321769711 0.2619038808624909 0.2049899412842663
Ni 8.08260950246343 3.88868822338557 4.463134591132671 -0.04078360967526525 0.07061380566282033 2.620770703714351
Ni 3.619140305235879 4.767803172831105 5.2558868732916695 0.6040655182354694 -0.8120027150735177 -0.8823136447839386
Ni 0.6940388497359661 7.775772932798447 13.235403403724566 0.2107507550274435 0.07103058148526477 0.4557596599068086
Ni 2.08909137154577 0.10648908486056131 1.0745564230028657 0.4537593416473282 -0.08294095976960554 0.7814053019026349
Ni 4.875127382598832 6.9082996801720045 4.581280202999355 -0.36731885336489645 -0.5410536932896229 0.31676710855927376
Ni 8.485286155814249 9.074739745949719 5.5893640201839085 0.3004228628732955 -0.6767799151810603 0.7703906959596861
Ni 8.126367823070861 3.1218748652299384 13.535292030765671 0.7589883676600154 -1.1134694458302954 0.09737050493137424
Ni 3.8780197575903674 8.068530093651168 2.4783448518604354 -1.5440808886062505 0.6057123098102729 0.12562178646758368
Ni 5.044284203417643 3.727057722484834 1.709712942020165 0.241193644898333 -0.6715101821416887 -0.2856475043363339
Ni 8.634014393998285 8.606689774394239 2.3192030417207867 -0.0944474177473083 0.3380512147490307 -0.14051875818407414
Ni 1.9554435797985674 4.508766149739415 9.971211575541297 -0.09002434897894819 -0.8621006601711733 0.13234547834466237
Ni 5.16435310516487 3.2257974008475006 7.672004260371328 -0.0983881475626112 -0.009454203434364363 -1.5254468184448309
Ni 5.767478273969257 7.624662595822606 8.462463424860706 -0.736537237745351 -0.589342867313314 0.07960778163131452
Ni 9.24638062309617 2.721441277667511 6.185165857255203 -0.6905882818190622 -2.0405159147452343 -0.11030418227390681
Ni 7.603779838710016 4.027146557050853 7.107391233512264 -0.33589405919671184 0.3914183175162613 1.1022224121615662
Ni 1.194580834189 6.456266310609669 7.782675457974544 -2.4020798679042246 0.15054631762340523 3.977541584814601
Ni 8.47354250145932 8.423231091957703 11.506046952095563 -0.29070743535774446 -0.5125589282840399 0.4553637100199706
Ni 8.26096103924127 6.287035338855705 2.025812817259193 0.6002525722472823 0.945289731395843 0.30223189105757625
P 5.351612023028017 6.968426819714559 13.257271441388008 0.27059960886427586 -0.5142579132530176 -1.599819319819135
Ni 3.091649090288013 4.582778051889455 0.30427372796874175 1.3870078256079208 0.9637255695035275 -1.675923202062249
P 1.0332376681619835 8.145665603944547 6.463158640032182 -0.1651931210023026 1.0258493354174656 -0.5458575424361696
Ni 2.766645541510434 7.249894500690168 12.175050592350345 0.6814611227068135 -1.8708066510401329 1.0655566813094164
P 8.525614995670832 7.522538220382516 9.269758559176676 -0.022899016085360564 0.5390919415775619 0.7818904690691695
P 0.7402330285631876 3.8236949287235698 7.867462417889069 0.7223046390857367 1.028125790156468 -0.37099090289984493
P 4.582175575541333 7.8950076365251975 6.499814227938603 -0.08140061186567916 0.15178764622967406 0.5269977294171893
Ni 0.7712151430436786 2.934884744506722 3.784580310430124 1.7783073581581308 -0.7245836649279005 0.4510051759409588
