# total energy = -340889.13947741385 ev
CRYSTAL
PRIMVEC
9.09369804135313 0.00000000000000 0.00000000000000

0.00000000000000 9.09369804135313 0.00000000000000

0.00000000000000 0.00000000000000 13.30954628860504

PRIMCOORD
 96 1
Ni 6.567005007628131 1.5022607429355326 11.351911628014307 -0.17416961346930004 0.5662404769678958 -0.760177245761794
Ni 4.366511935220837 0.5828978655159203 6.055098005898699 0.004625928807785582 -0.5430861503386195 0.4221419718523633
Ni 2.4264078149389676 1.5256588282124313 4.741406006033058 1.0670124399193364 1.4936451005532017 2.2646551752644415
Ni 3.436681301888967 3.9233123696785834 4.865544079144191 -2.306570584551305 1.967066953626464 0.7956307014733975
Ni 5.559250475058894 4.745146244072074 2.714256097924138 -1.6990333057171512 -0.018370532087387714 -0.6671516480626768
Ni 7.495580710618682 6.300014030663595 2.6040395672733254 -0.3036107736829739 -0.7591932845819699 0.47085769189051163
Ni 5.281674433476283 5.087123855779441 11.598963762468882 -1.8190066356497059 -0.21691188953283286 0.11338796340555311
Ni 5.600017523755488 7.916709870810358 12.165896731555682 -0.8766291928046516 -0.23922212299425896 1.5446043652098882
Ni 1.6463958582246292 6.510851421703198 0.6711431121257243 0.47367356407275196 0.32063404771384774 -0.9629048733744449
Ni 2.8981343115008986 1.5372532933224377 0.2921514209381546 -1.6429367198338998 -0.44077089980746026 -0.07675437134291943
Ni 0.5443533166411969 0.21512870718502405 4.6919608412153035 -0.49613986349606815 -1.176506210476806 0.18627025338757597
Ni 8.37266789482268 2.0056060278798093 1.2483937911057121 1.5766287406352848 0.9734515385420395 -0.5441577861362434
Ni 6.681276418273101 0.7347671710607505 4.681819549065752 1.2039244545887589 0.537538738157829 0.6409760181085735
Ni 0.8591125804891447 7.58288930632156 2.961320963556088 -0.4202403839542763 0.2522187923642431 -1.3454569987493281
Ni 7.5712766538153025 4.022770146077123 3.6065279392580885 1.4503662352599085 -0.5665019581593986 0.5356782879103227
Ni 7.744466134615356 3.3178630421812483 12.447247567230187 -0.6512545172164462 1.940560679805819 0.22638331935837788
Ni 8.116825791760002 8.828434951174367 6.741324835105183 1.1238934693770968 0.9492065499517459 0.8248073230373537
Ni 6.738030188274315 0.6057421445769764 0.38740518069327773 -0.7268187249060063 -1.0927759220366857 -0.3285455892514406
Ni 1.6555168374445006 6.587156642674228 9.444826725626111 0.8395664836243992 -0.7707038563247307 -0.17619461431912883
Ni 8.97909934171757 4.783076058953514 1.4478658782280713 -0.264787373057873 -0.6086294834570679 0.11814193315077073
Ni 6.470211684780361 2.09416046022588 6.770167317449816 0.5357237964362773 -0.5264865941087256 0.752841117111697
Ni 3.468772962573839 4.530853247744783 0.4904877051646395 0.05123025892988597 -0.3208741887491119 0.37345350550772455
Ni 6.181268520540881 5.79983335266699 4.789439828901735 -0.027884128004777787 -0.3306904035085853 0.8463621663899941
Ni 5.412960153314055 3.1058161892909544 8.799579737652358 0.6509303011078079 -0.42272432671839455 0.7047283207648702
P -0.03444147228049998 5.564797630915446 12.697306987654862 1.0671042283021943 -0.6876320274042157 -0.821580845680256
P 3.8061127882372037 6.315746128420702 12.738540543065293 -0.036693498766291646 1.5160381235364215 -0.23530710421056894
P 2.441357854657282 8.476736176170846 1.5470617561205964 -0.14448288503814471 0.04463975019656183 -0.7858265708987822
P 6.427534959477413 7.837740196288559 6.074463945426754 -0.4855947409903702 -0.7328338207518347 -2.0262054116598334
P 4.816549961753461 1.0823319508964218 12.635231585510608 -0.31266208525196476 -1.467020298876822 -0.8511858130308825
P 4.275665890947141 6.258219394078821 8.145735567470764 -1.8182756710209522 -0.16380035441983404 0.37762871993133673
P 4.54153834304224 1.39604634882975 3.9364318479642355 0.15431298375468908 -1.4317064540668762 -0.5396586127143093
P 9.248109119665964 5.637047062522504 3.824724860190654 0.4257677415304087 -0.7108951116972144 -1.5292664493012373
Ni 1.8429834243015815 1.1716138790925323 2.601484238100061 -1.8463762859119104 0.961393578936241 -1.8134895624862186
Ni 1.9695495148122215 6.706729679326362 4.845739823366487 0.2419462067936414 -0.1180858831018547 0.41481869871807264
Ni 6.021637743645941 5.495139903274154 9.183973085526471 0.8977649463420022 0.6448069618188895 0.351714056948104
Ni 8.646924736589485 2.4317458157386334 10.07314397579963 -0.6011252046602228 -0.8317405598220772 0.9881250813938144
Ni 2.6830319760404384 5.17168615464842 6.90406110990998 -0.46634103496708074 0.49982168322302956 0.8128900027744774
Ni 0.5919360920828498 0.22752250836026122 9.323017548604918 -0.2161153617734665 -0.2778727454869214 -0.0762126399068365
Ni 1.3536424344705666 1.2935512772572957 11.38188445703594 0.7890689890954797 -0.00613722324598943 0.34238840867180387
Ni 3.9442278753672224 6.720797630326502 1.8881590978494158 0.7982786806192058 0.932984945886561 -0.441798055520394
Ni 5.572409056246485 8.044931014379838 7.99379351234093 -0.21348152369504525 -0.2674572065805523 0.7120713913935027
Ni 5.386943082977013 3.153921852374823 4.70760018325153 2.3582253326131193 -0.1252417774203456 0.11119969750498268
Ni 1.104966165530779 7.121847905057086 7.147971371662195 -1.2396401628228135 0.5141915787914563 -0.052829742206521924
Ni 5.111103937736372 4.741372359349994 6.907534902593919 0.8138644508726048 -1.001096811063134 -0.5906435884026087
Ni 8.372604238935802 7.422240035236564 9.06815301809073 -0.734138398495871 -1.0652527769157525 0.19690562161423508
Ni 4.618098187560783 0.3543795972109173 10.400186097705681 0.5403813498129467 -1.0131306022992164 -0.16005914220984693
Ni 8.298272350458005 7.293746080723318 4.847483085297145 -0.6971839327587089 -0.027437270275346298 0.2530978525350867
Ni 7.456659682641563 5.995084145119495 7.199905481656898 -0.48961466078304067 0.05791204182543575 -1.16603667840405
Ni 2.2304113392401725 5.249437273621402 2.735990036444071 -0.4071807225568407 0.5339888160230417 0.7343893381644127
Ni 2.2652402030608187 5.208597475339804 11.610223579487869 -0.09434174540737945 0.3689769577936097 0.03757898669503851
Ni 1.099346260089223 3.311479266097151 3.7723515245764907 -0.9139351283439615 0.697640046459521 -0.5587192288901861
Ni 3.551480147025216 3.0527453670305658 2.7632884088469947 0.4417245219699812 -0.596798809370727 -0.8080606997066342
Ni 1.3055640524810745 3.528154811333321 8.646360927305706 0.6857402096981416 -0.4465391697498051 -0.6180343217107356
Ni 3.5412133618415322 2.8946423314207084 7.35273871920303 -0.36236356624215016 -0.8228190889627313 -0.7528963958296646
Ni 4.215592921130121 6.991025963823715 6.044663896669507 -0.00983575514349919 0.840363782714714 -0.1372511431763959
Ni 0.7334404005042406 7.333594665909239 11.50281518281821 -0.10491309316532255 -0.2224356475645395 0.3789253272555732
P 9.213734940751593 5.4033663017916576 8.370427207604557 0.6007518804812041 1.5402157492238893 -0.8976806141583121
P 8.58042252219774 1.6200605084531956 7.952773658836446 -0.42328122766312903 0.5396362441168061 -0.2710400388358042
P 2.3458194621508306 3.23283696470787 10.642193957810045 -1.2630582846364378 -0.5461241658339949 0.2574823547560275
P 3.913818548835567 6.0626776032863 4.043839335264083 0.9724295250354285 -0.3769707746323637 -0.30269186141313026
P 6.533549292224435 3.7881436407412252 10.57217157287392 1.1975429765424475 -1.5751069046741195 -0.72169143098177
P 6.323212054581733 7.550024681296021 10.10062785964431 0.1794987389916973 0.49477615037932215 -0.5411639936152421
P 2.2350582189823007 8.57472986717118 5.981416316836876 0.8484830693877388 0.5824903631678549 -0.3353029625799322
P 6.769448915297902 3.626066659050527 1.2403349558268983 0.33444524256532726 0.9390437504861311 -0.060312166626496126
Ni 4.83019960263983 2.6339714746533924 0.7235791942569538 2.0105445651941247 1.147369955232482 0.5467204046570971
Ni 1.4529638053972238 1.2194558249307617 7.1697462318236935 0.26493058350395665 0.4279133271185018 -0.7366549942701378
Ni 7.0399136849463755 0.49625765662526605 9.039138664851524 -0.2734543047042516 0.570227743750418 0.49879581306167636
Ni 2.8388888682132984 1.4072952534109877 9.265613579187729 -0.1652712825384057 1.4382753655336455 0.032120791793944684
Ni 6.400308427289681 2.015554533629101 2.64435374980327 -0.4601037958081172 -0.46198070111585593 0.018164843834484846
Ni 4.134477133850704 6.993735885865111 10.386264555245363 -0.7728872371292946 -0.40312043644453804 -0.4320484323327979
Ni 7.965915871367412 7.175355224827499 0.32483053452193367 0.3650997342263906 0.24613093429895028 -0.46599367892999105
Ni 7.914600132845242 3.7398651973929717 8.256710512545242 -1.3772080659086798 -0.3038298316723154 -0.6870843824308619
Ni 2.767594274909417 8.479555222589749 12.307391036909134 1.215185886435191 -0.698389523031036 1.1243994624792377
Ni 0.07958804599433274 4.771236063994119 10.404338280269785 0.36180537974583493 -0.1177053598339844 1.105878777967231
Ni 8.780674848619267 2.3385354099523092 5.483546347533959 -0.8148592106857064 0.4401031843164743 0.8344386754795305
Ni 4.400813364550204 2.7000190041388628 11.14031673192085 0.02186183307009783 0.5445128554828171 0.16549522562375368
Ni 1.0234684429300922 3.3919675882059077 12.90269998162673 0.22813038395647162 -0.11378134218922986 -1.0269153147881347
Ni 3.0085318067444082 8.30211898476509 8.18510491476547 1.1273780854915876 -0.17737037979478484 -1.558759830774664
Ni 5.545728145946283 7.974400291718498 4.04419853634004 -0.9102782483176646 -0.6532939162439781 -1.092416738925054
Ni 3.1262042604883145 8.63670341989643 3.630511658694269 0.8263461282793834 -1.267366167983172 0.9781638564160443
Ni 3.6556939275433895 4.551186756753389 9.506942140042117 -0.2555684255627663 0.5628378790442501 -0.37955704730230116
Ni 7.3829461656363 6.009779561290296 11.327422298962349 0.371710811785005 0.02485331159825397 0.4600863123066205
Ni 0.5126799660700976 8.843130367345168 0.38519995889784514 0.5271211423689309 1.1353801298604576 -0.01126117473611609
Ni 4.746091988677126 0.3138689908014619 1.8752214935262739 -0.6930981927251095 -0.564085635408422 -0.05496067250659567
Ni 5.9772514030954 5.704258585368037 0.4117017233449754 -0.06957096622060276 -0.6652179213750737 0.3932728542264969
Ni 7.7764759520170985 8.487721363506443 11.379396421228803 1.1983472176112973 0.7713648869474974 0.1459198745949874
Ni 0.41055409864153797 5.163038047731074 5.885800627896358 -1.1560646547930025 -1.1992411901804765 0.6574573035930483
Ni 7.654020213059182 8.550595192346117 2.520042896427753 0.49711122627040194 1.9521481275331027 0.45822020563215926
P 8.524659965292203 1.4179985361046952 3.2917304818780133 -0.06663528063104653 0.660845760449307 1.1452652501846534
P 1.7990790497516913 3.5476062316237553 1.5288679942809185 0.12895213639239728 -1.7691233776660178 0.42509822626720983
P 4.923009885708632 1.0967636498215825 8.229811353490028 -0.6678052224862757 0.15250601245293732 -0.45978832145022747
P 8.530425369903767 1.290786793027145 12.298034530907813 0.17747270970060403 -0.27839339387708184 0.672776707558938
P 6.1073549421768565 7.607360447977267 1.3597433965429613 -1.0136185976792285 0.9349353847447124 0.5714739574526932
P 1.6461867031677428 3.3887757001638588 6.055310798434836 0.9471499245330334 -1.6096918417378405 0.3178965941780267
P 7.022799345074194 4.022206336793342 5.9029167865081655 1.0342349883779995 0.4964550807436418 0.31952513092038526
P 2.440375735259728 8.511819663539006 10.202751908333248 -0.6421497267017005 0.6148314985027218 1.2004226120830874
