# total energy = -381166.35933897254 ev
CRYSTAL
PRIMVEC
9.24834334018151 0.00000000000000 0.00000000000000
0.00000000000000 9.24834334018151 0.00000000000000
0.00000000000000 0.00000000000000 13.53588531522677
PRIMCOORD
 96 1
Ni 8.32658865511342 2.8975151996380113 2.2976491574647637 -0.3999782912711305 0.8200911485086071 0.1622155264312174
Ni 4.879814347759502 3.8327261693374215 3.4814296993127174 1.0250355812669185 2.226312313820185 -0.7729528002599074
Ni 8.252010014860497 3.500636658647696 7.054063785602399 1.061938624940855 0.4903176003873363 0.054007307454390856
Ni 1.863060258143696 0.4496738720537737 11.81144024144171 0.684511222387047 1.4642671616117169 1.771713506990697
Ni 4.755202170332929 7.966421174209424 8.77178170484545 0.03821302073461161 0.3051416085052035 0.9113141457813466
Ni 5.307522479676281 6.41185790303457 2.1244711549439237 1.0795553095813537 -0.56832024231506 -0.3363350033888724
Ni 1.1116046211805604 8.331268316815798 2.1082819300229487 -0.9203065790879441 0.7833333721632832 0.19607027019713327
Ni 8.959850464890003 2.547835340019583 4.795791299343597 0.48562816533146685 0.6144450616975805 -0.2600642565505908
Ni 4.576949601851427 5.745662742818917 8.22927666223082 -1.7118805939934647 0.344961825825935 0.12032531395533472
Ni 3.8810117696301436 0.7769163260276564 6.933784457005006 -0.6787519513057665 -0.015848022775850124 -0.671768835119714
Ni 7.858104577651608 7.81629281765862 1.538245494282213 0.9065141532895419 -1.3544571453654093 2.4783899526208737
Ni 2.5764127207712613 7.560529884102745 12.600122309796967 -0.32203375627485187 -0.4524457650422272 -0.21006478470401244
Ni 4.779580803233066 6.911203702039538 12.362906003865497 -0.3612433365947778 -0.5884352678973801 -0.79116495239256
Ni 3.4273990281711466 7.603044518185419 1.420076637622532 0.1931332990559964 -0.35110444838856303 -0.29380227223298433
Ni 5.279361274372444 3.7810464270589828 9.134150291451355 0.7453142126070326 -2.035183189678411 -0.426504105475801
Ni 1.5924167402417206 9.153205577956454 8.214685551029552 -0.24853311598253972 0.40205240019133986 -0.48843323888042983
Ni 8.072934343826601 0.6238590191583863 3.737081652749168 0.058672059919911854 -0.7417028411066904 -0.8964364573385658
Ni 1.8331973576753569 2.307452401347216 5.8593600255001395 0.7636958004380138 0.21697899532534243 1.2783321800763725
Ni 8.07775273067826 4.208736062289192 13.48654734383192 0.8012575607418717 -1.008370976127044 0.05540753023602716
Ni 9.021222470931471 5.225970588586218 5.412499499473764 -0.2618570867849555 1.2408426677713469 2.098472179545044
Ni 9.119190171353 5.848818763823518 7.669947033511515 -1.1637705080776923 -0.8298495134469515 1.0004820602972704
Ni 6.220287720222189 3.779048784909351 1.4902872853417921 0.17915806782282692 -0.35652099141844407 -0.3484047900692129
Ni 3.1869790961256386 0.5312849525408633 9.778743171421128 -1.0178192660241374 -1.2793138272633515 -0.14890389692397582
Ni 2.8730255866184504 5.0305438466238535 9.823235101298208 0.42119297767553265 -0.2812714867558253 0.7569073167612707
P 0.4998997747677584 1.6560360937015242 8.014083436164716 -0.3941382875505857 1.38840522017608 -0.8271459984728594
Ni 7.467278838756735 5.089973700575401 11.151660656963093 0.26860803235554387 -1.5714112009900871 0.5344184473612925
P 6.804866250944783 1.9062037795697728 5.071273550452459 -0.7515008010337186 0.6394726940901696 -1.3898257546726902
Ni 3.2473245360624343 5.569602031696038 2.49033191597437 -1.8967588521295207 -1.5138529429596446 -0.1798674351850257
P 1.7702161399022414 4.360945296079198 5.0154246550209916 1.0767121837056037 -0.1970652871205509 0.9331235283469543
P 8.535203534600669 7.214937792216433 3.6232178998888096 -0.6698155680480852 -1.025236127313499 -1.5006089334655446
P 5.447662625478927 5.304470526392122 5.022531082001442 -0.6064404462255492 1.6829073466895663 -0.856315420947964
Ni 6.344039801723226 0.7606928822365259 10.756981133421222 -0.050369453591487444 -0.2332967586487595 0.324917248470234
Ni 5.169213505844132 0.4106532620642981 4.718243940896082 1.8022890657847088 -3.5105307774740058 0.5190753892463189
Ni 8.335494809697195 0.21654255935143624 11.920065732665257 -0.03904734371044888 1.699670425080518 -0.5226751907824353
Ni 2.5779294490700555 2.690472538509269 12.951852527121753 -0.4556796985984926 -2.1299905618682997 4.51585473924461
Ni 3.9055938660825578 3.6696501321871504 1.138226902161719 -0.35615563765922537 0.7492256318462968 0.03704522567875555
Ni 0.8646405614263509 3.8674536983738457 11.73542255897359 -1.8436676287314957 -0.831591950059355 0.6030005673060648
Ni 5.146138889347227 1.209951503676788 8.854337041181973 0.009856838189421733 0.7969455636300792 1.2213035692971548
Ni 0.6929543166774352 5.944520620140139 12.396975975694335 0.48509337587391943 1.2607679459403642 1.17970903368482
Ni 0.3929214134833297 8.4240199516244 13.436139248755213 1.1610325403212391 -1.8143457398389269 -0.5926583048397922
Ni 6.009268271480754 2.4446885673582677 7.14706882501702 -1.6802560251096483 0.9729077502234277 -2.4722750979723873
Ni 1.223934998724211 3.6993373141330688 1.0551222142340482 0.5505302653214905 0.3253149981292849 -0.1890964099824614
Ni 3.592065780366495 0.6990683964233687 2.8519430632652063 -0.41391675572909364 -0.40283555821426753 0.27152186356822916
Ni 2.565795622679699 2.7817074450190757 10.960169085068637 -0.8522253100389904 0.23571308139973599 -6.667105496043266
Ni 3.2712684968281605 2.782687769407321 8.140765392818546 -0.23982607512684498 -0.47313620351204316 0.6538857841917061
Ni 7.855709256740707 2.555317249737417 11.292881009261466 0.9156490257112746 0.5233789017176793 0.18859298798348165
Ni 2.6768219838201177 2.9955476384625377 3.2670216575915356 -1.7670610958203503 0.9961592645522005 -0.5207381216607225
Ni 0.5063273733510646 1.5358168793354847 10.205502423316833 -0.35910315032332346 -2.2738245004685353 0.2523398913231396
Ni 7.544447015129551 1.8834621034311398 8.652354148664635 0.8692699242261029 0.38011446246766795 4.328274508796359
Ni 0.9729072169304264 1.6698623669130965 1.9453908597383844 0.8675310871581253 -1.2594775092637147 -0.5452268508307062
Ni 8.350578857595574 0.7546953316159877 0.8594772113701498 -0.15781816869447016 -0.34504255846519927 1.5273229524216212
Ni 6.150351748298504 1.7610510317064767 2.7787276288125415 0.1819186612870996 -0.041149734765432364 0.5343505702378346
Ni 3.690847334997133 7.397555578728612 3.860976158736799 2.3397208460510286 1.670798479241174 -0.05736953905840443
Ni 3.8674721950604165 4.333921636999455 12.040034316928264 -0.104238178585485 1.7265816476490654 0.009570160186938357
Ni 0.8908623891432547 3.5154710012773696 9.329987659855588 -0.5938764935176095 0.19357732857195048 -1.1224616220265764
Ni 4.281853464303032 4.267009873330073 6.519423534117618 -1.6443598254336713 -1.1779966789794036 -0.7321460506561907
P 7.940710779876199 6.464878655089382 13.351715747075053 0.3552809483637559 -1.264278530196784 3.1862107962681385
Ni 0.9582578411664594 8.102732505891943 10.612350916953545 0.6845922121366275 -1.1811041142601337 -0.4029530576287383
P 7.875158522669762 4.1957421399733 9.18788779011078 0.09877895524312666 -0.17487512417675688 -0.07127509339590306
Ni 5.8735488337684965 3.423949396125718 12.163739231878544 0.36491075814403606 -1.453389852577581 -0.45398225629141165
P 4.179437310761258 1.6967473008435585 11.183091151618294 3.587840249989447 -0.2710981457672492 0.9995955439272591
P 6.339656087005978 7.743036690495499 10.483123816227591 -0.6552140160848264 0.5042848612007057 -0.15722912896021954
P 2.79656028433532 5.3067456188403135 0.07139721016276823 -1.229096325868696 1.2197148846537962 0.8725820193184715
Ni 7.22610054256183 5.296452212763738 2.97987077175957 1.1094114737108376 2.614508267744407 -2.32101632766299
Ni 1.5274841220354 7.003048999206175 3.77969246960201 -0.8796448397025237 -1.1311090132889292 1.402293805232714
Ni 6.36846467633979 5.029239830220622 6.94140509187212 2.0104309224343955 0.36447444193756584 0.20762892156901014
Ni 6.440758975801235 8.281623210060133 13.454195714185497 0.0831366207201794 -0.2387045599278921 -0.9286459521915748
Ni 2.5454307707653965 0.25138476784459857 0.7514334409392508 0.3192878180985985 1.7203814323756241 -1.7111869103605497
Ni 2.9564271463655802 6.302181800013811 5.777779464545892 -1.73097386317949 -1.612368360128739 0.4944884439355742
Ni 1.9195398905872225 4.641022124132212 7.642455408261535 0.7800421030065211 0.3004861120110631 -2.0571100716584896
Ni 4.193189597226548 2.1976930632368883 4.680397870503844 -1.5964249494256055 1.2890048292988703 2.483350124839627
Ni 7.936225333382813 1.1203997956449119 6.648691327554027 0.9808866546638462 -2.526752660194977 -1.01687669960521
Ni 5.614706201898606 8.696947810317852 2.2261391175139145 -0.05624776674913538 0.5909197248821306 -0.10442098402025243
Ni 6.051440716861871 5.347225617400214 13.370598089560719 -0.3863015651149863 1.1608098827874718 0.2831548198214672
Ni 8.105322042011835 7.218627881187281 11.543619317910418 0.8576984173384196 1.3386816276987072 -2.4437507652804493
Ni 8.289114368121252 8.443700426135589 9.367278829650706 -0.5884000437840705 0.5994174779404967 -0.39733031212532216
Ni 5.327230699217325 5.534735777510335 10.413102759545682 -0.7885588822282806 1.5209782411505162 1.672351682660907
Ni 6.451977216206344 1.5244414170945257 0.11257453380638341 -1.4272157652853743 0.4049050391487865 -0.8301487898549251
Ni 0.35265227715033426 5.621300270661049 10.099016073895184 -0.042859775478003605 0.9192809660369071 -0.6875610649569642
Ni 2.076530517855745 6.892068879782185 8.580303080631595 0.48067802041504315 -0.5596857065685135 0.4868669228345744
Ni 4.920645783364245 7.194878135630546 6.43286181546989 1.0381638911187603 1.2318605188773946 -0.7749145519719687
Ni 9.104170861857622 8.35157767867039 5.25532113083655 1.127989493823341 1.2003423936644553 -0.15941379531636415
Ni 2.2910365920157507 8.64285425044194 5.847150362694843 0.16096211364009053 0.17433776361604814 -1.0830674364996702
Ni 0.4840943560931248 4.823122003420412 3.428585590614655 0.1649385817893353 -1.2793629353337321 -2.5482717652136757
Ni 7.497687391478909 7.479958317400926 6.546468464386916 -1.1205366370897218 -0.038008875143605514 1.4108221544186992
Ni 0.46971133261577547 5.738032859608517 1.3284375785111562 -0.7545095059530554 2.6388589286746296 -0.5121321251592663
Ni 1.3509702420915408 0.9753765245876103 3.9897426919671424 0.21149200406884225 -1.4745898836939637 0.9563722144622496
Ni 7.11588803563052 6.290593625877288 8.923342629771152 -0.29677935258343724 0.241489578872197 0.11114673277986019
P 3.351988037022544 7.271306444540536 10.370829507222755 -0.7863127665065813 -0.21017071415425742 1.0501825128461915
Ni 4.673567044153298 9.164146368063003 12.276140821665493 -1.2475277931010065 1.1982094064818527 0.6276561610712159
P 0.04762896791946326 2.191441183176003 13.276699660184734 0.8144432061942102 1.4601621383044079 -1.1955334023115862
Ni 7.1871187756141515 4.109603070613711 4.641183970139705 -0.7621914479783454 -2.72525236576921 2.1387256277484523
P 5.818151257489355 9.1936578314865 7.3274892051646034 1.652427432933154 -0.7522070830721238 -1.6922219392222726
P 0.8666659486058388 7.445480493633206 6.9295339184310665 0.24722236759091612 0.8350979063300843 -0.8527901814035248
P 4.611371935559435 1.6845764810800608 1.2215258052983817 -0.45513642450051295 -1.0151221788079485 -0.4799755950313799
Ni 6.262904086081003 7.489826299686376 4.288073899996747 0.6637151115773021 -1.1072018676540285 -0.19921267248085692
