# total energy = -340872.9265759886 ev
CRYSTAL
PRIMVEC
9.24420079634973 0.00000000000000 0.00000000000000

0.00000000000000 9.24420079634973 0.00000000000000

0.00000000000000 0.00000000000000 13.52982228359735

PRIMCOORD
 96 1
Ni 6.170559556707558 7.6929592680442305 10.688965949600323 1.1878905410543479 0.11931127086852356 0.05475035626800249
Ni 2.6445625011067837 6.2527774793889375 7.927325644270505 0.3460774274876169 -0.19583707114040466 -0.6433810280056403
Ni 5.134903998829999 6.141615963733035 2.1222605289391097 0.4149048306739757 -1.9768350887568213 -0.5747976225092875
Ni 2.0784938598436526 2.7943740206676604 0.21579754990627334 -1.2503935446845755 -1.707690724281833 -1.385998153396484
Ni 2.8711101322235555 6.7194894495277735 1.1691076151302238 -0.3714135922595604 2.6304033417081083 0.11304137869941176
Ni 1.6001434407891586 8.244680909532063 12.768877869859912 -0.020988429326209014 -0.03345365167275529 0.1691647040555409
Ni 7.24369110497755 7.356775414417771 4.431327869385451 2.0080251412063803 -0.5740131789347792 0.9920712105257559
Ni 7.208332036588044 7.06108116067263 1.9109787711657182 1.664817836177707 1.2246706859971745 -0.2288487501797349
Ni 3.472473132469991 7.731683225556295 3.5268595395434517 0.7296250840065499 -0.49926401094734657 -0.09278339978132408
Ni 0.3231144024136271 6.802641036498655 2.190126829744748 0.8834701269858849 -0.17891895522882734 -0.38611901679053506
Ni 4.729545789972511 1.0633049627280207 10.359784578145119 0.26973211865765806 -0.2640186132126485 -0.3923655119208791
Ni 7.734327067009732 5.027329233117921 8.178128209672346 0.7115371161565874 -1.4380254543063686 -0.3961892565423435
Ni 2.0532202146209304 1.1386821767536524 2.5579480364839533 -0.8369663269973908 0.23823533360095747 0.01591461434772743
Ni 0.36920136593150643 6.79360945223289 4.603751628733929 0.321568129492343 -0.5004575170348156 -0.04603714476472071
Ni 2.6116901227556495 3.2880143479878394 3.2858253212180006 -1.0908805047861858 -3.5106644748383924 0.8408741466922293
Ni 2.172609069065502 1.2765871655731735 11.92398101936841 -0.4986608301457089 -0.50159420174242 -0.8874746201595878
Ni 8.77566780843227 8.858357185358845 10.672039817777792 -0.6139606658619943 0.35575454556606473 1.3792644342170761
Ni 4.311319653481508 2.044798747613652 12.505127876696934 0.9112840638743596 -0.1929407234292161 1.5469363557771745
Ni 3.304644665382016 0.3829872427130155 0.6566479436460291 -0.16201472327432095 -0.7545398449703586 -1.0306477852473734
Ni 5.55243682025454 8.87410005946795 5.290633655798186 -0.8197378789342462 -0.16300125555730638 0.47729342021352633
Ni 3.6989560541805595 5.074816693070052 3.306594267348904 0.4531803292154067 2.5230762397846545 1.313069326447242
Ni 8.019122407910109 7.203451098520159 8.542310898942764 0.32840649257041504 0.5988865451376912 1.5069587869429726
Ni 3.6159523744238573 1.1827215497752503 5.537959477246749 -2.1576327490656 -0.4870085906187613 -0.21756597817706397
Ni 0.9801348873553678 7.742138416758525 7.05781795775982 0.03414579264377345 3.137280389116023 -1.8587551191922376
P 3.6572092429787255 2.340520733961452 1.478159739155846 2.427224742600968 0.14112862385393113 0.8599658732163576
P 1.8139063420803914 2.752303662434812 5.67452960345831 1.1697408667285143 0.5519559420244236 -0.5125671558141559
P 8.004710698728609 1.798339107788122 1.684273064213793 0.11877622430065995 0.9260054292449342 -0.9130216153907568
P 5.918507175345909 0.42604673044068203 12.32675085197778 -0.07747248045586658 -0.6801087224439771 0.2897602409531268
P 1.5649785006182604 5.09472870177881 2.975302444831392 -1.1582385225158698 2.011027161257498 -0.027019723121953467
P 7.214618093190623 5.711418587094474 10.23922078576792 -1.4695502643875271 0.20534603907210439 0.16689390574349322
P 2.9173681134578286 7.597864173528451 5.915996450385232 -0.2885759908370385 0.3095595350672411 -1.0346790178939536
P 8.938421209233752 0.1099052287554746 8.23204501134079 0.8490859930790603 0.3447353116374256 1.0813324560864344
Ni 6.63142919188635 7.336114625437236 13.15354478387394 -0.2227297817661906 -1.2569886814035902 -1.7431382664561657
Ni 7.725258505940423 0.056064229534296316 0.4245390012761517 -2.433307201349622 -0.3375663046928122 0.3998937019771242
Ni 1.0470074365657458 3.886557866964 10.841825282193362 0.6449972234528246 -0.2355423601498266 -0.1192883880503881
Ni 5.915678449874749 1.5158733055110545 0.8910568431963796 -0.8865243404311764 0.16369853873464713 0.4418713319604906
Ni 0.595357042930706 3.4986249767768967 1.9041334404095276 -1.2813992490374706 -0.5057187654337548 -0.005329639743029531
Ni 5.152061235674685 8.122999493267727 1.1369895635713991 -0.8315649534761614 2.2767681564778917 0.07342710674189935
Ni 4.21285966984317 8.174988879051412 12.19204805434522 -0.35054600478193176 -0.1620412056368822 -0.16130484169148993
Ni 4.69702469125505 5.820869925586439 11.040145745904288 -0.5747420866810038 3.1619436961906575 1.7507965543323718
Ni 6.858503742453633 0.5831648663819684 3.214428660093943 -1.070346389388576 -0.3179917249949943 -0.12986822044876345
Ni 0.38066972155085876 1.1948314529361013 0.13021381368224802 0.7214651739035768 0.43450306452087756 0.08700304565412113
Ni 0.3839911629292509 5.715828070917165 6.826322830328782 -0.6563604709844438 -2.1393172385858636 0.48406467749908894
Ni 2.0029964712065014 4.9365789130186295 5.251560267492626 0.17635659381828983 -0.22889477292632193 0.061163715993514015
Ni 6.298490052770927 3.742875252590638 6.805893146370401 0.27186844827437046 -0.4673998152488983 -0.27564694148019625
Ni 1.987872958556767 6.20568752007491 11.520643592824635 1.7781420362248603 0.4610347922628189 -0.42236900026150487
Ni 9.039654453137933 0.08592299839654687 2.5468947454843884 0.0898806243122323 -0.7754902219697806 0.9270981480884808
Ni 3.434377780618184 4.266069290143824 12.365986938218935 -0.08673333693250224 0.7694769258961651 -1.2939475180161264
Ni 9.007734227478071 3.3807059502732226 6.264578626240191 0.12262439440215656 1.0766630756352231 -1.4357844807909916
Ni 3.158891350010157 4.783809249174186 9.659955123319726 -0.4043571370651165 -0.9229383602838362 0.14609393827900646
Ni 1.1653516963101829 7.856720286742301 9.304688465803995 0.9396039938649753 -0.6897596152701798 1.0040849471571804
Ni 7.861758376225251 5.029954586169588 2.8541562677983645 -0.3316090586681128 0.17389887630641665 0.36192930691820896
Ni 5.424469347387626 5.570758826410882 8.806412171739414 -0.22449895785147145 0.054857571269828105 -0.39527368670660956
Ni 7.929767962144624 3.610840331333819 10.166674146053623 0.5117320615073703 -0.8831626230477951 -0.3938865765510958
Ni 4.138998504762866 3.445914543324094 5.136029018077843 -0.025846014528826455 0.8711956804939059 -0.2773788365696384
Ni 1.4293106084131864 1.1542401668450355 6.9970151508512854 -0.5289458542824955 -0.33804298721891457 0.7314721645176177
P 7.939955071521157 5.368662106637965 5.424403713561334 -0.4031870280164153 -0.6465640537193124 -0.34912315629247614
P 9.195511680078349 2.0275120919565595 11.564209662760863 -0.08714008545261767 -0.1183609911401123 0.6454903610391592
P 0.6969859386328143 5.398225061071858 9.100564492776746 0.681118137545098 0.6895582978926512 -0.2740286891504829
P 7.2735960948442315 5.275573003714478 0.4723176535561956 0.5965977491035144 0.7921054619289584 1.6367987252569616
P 1.2845371783352588 4.742801974043243 12.906746806295976 -0.19851076131782586 0.2087517223195437 0.900217778757869
P 5.536915806966702 1.871765795426777 4.879016198520689 0.5725005989449946 0.31838690355088395 -1.0275532054824497
P 5.68806773565607 7.912786365116775 3.2955539182305804 -2.307696213515316 0.67320428201466 -1.1902801243324468
P 4.647429553500878 5.842270250637866 13.317864152305532 0.3716676172518954 0.8858766795448485 0.36761504444907656
Ni 6.953654302174731 0.27221675675459767 9.254330681476718 -0.5954181269731165 0.66400281802105 -1.0156816508558442
Ni 5.603566495355812 3.905785804807183 10.850971494550116 0.6853758843801874 -2.28302236491772 -0.3857734605256582
Ni 7.146183274030486 2.286395937773069 12.171333648999543 0.0017486072599905366 -1.4023958780282169 -0.21873043079881044
Ni 5.30883363850283 1.3801314596988916 7.172578240820698 1.46321763730128 0.24242777441575022 0.8648602251941815
Ni 7.560341962131585 8.575225800617975 6.742085974173868 -0.7320691746716682 0.06465090321116608 0.01964245682127585
Ni 3.065293816037932 4.557215397052983 1.0198156196591481 0.9153536059580429 -0.037846124313496106 1.9690839840564929
Ni 5.74927358972324 5.276645331017271 4.603968867454753 0.46557124668059174 -0.5616016926443038 -0.7816765532861505
Ni 7.915984858623382 2.762305887793621 3.4913839942227787 0.4825713807830141 0.8500226459607166 0.9015655510350149
Ni 8.408783963662922 4.460400881172379 12.353620970693537 -0.24733241080621918 -0.305606463956764 0.6150896372601149
Ni 9.01848523310866 6.519528140159557 11.264050459987713 -0.9328623042657676 -0.012195256514611256 -0.7239552873152821
Ni 4.143537407397964 7.80204083850075 9.406758309888374 0.23161397162969788 -1.1273477464742843 0.5153886844233511
Ni 3.4908598480325344 8.963380551626345 7.501177227620076 -0.561216284280427 -0.14619935350861918 -0.6234374950041779
Ni 1.3602656719945643 3.391438467502037 8.37605579484561 -0.3403443816585816 0.36991541044747905 -0.7788267425421812
Ni 3.3583904493340664 1.8976403137070987 8.4615775949237 -0.8947639547321494 -0.40417330318908457 1.3992308500366741
Ni 8.140036555500894 2.2012568476116674 7.921832740103958 -0.5342438694566413 -0.8794700046875563 1.2737371045065224
Ni 4.362745143011136 0.8151360701586422 3.0431816875182713 0.61826314989209 0.1577834588017928 0.3204892946058674
Ni 0.503344889410455 1.6162098619292797 4.390481443349928 -0.2987853272698725 1.0437681246794153 0.25892885739456695
Ni 4.003533984977287 3.7953545810212868 7.4788524824800335 -0.4048029663532835 0.4629790604733833 1.362806288661053
Ni 0.9230926213673173 1.318491128190072 9.803655301674773 0.6963100147941879 0.21219468656282162 -1.661091022145423
Ni 1.707866113715414 8.938680046858565 4.467845236145992 1.1840256587823028 -0.900583903848036 0.77428951679346
Ni 5.981940881826641 6.3821408265896595 6.598169481518086 1.225353313886496 1.1660096818208563 1.100164244080957
Ni 7.503194312253432 1.3722923773474398 5.461217819170321 0.2939945907494485 0.4110780007287179 0.7647712928903796
Ni 5.710614341617379 3.270607517719227 2.9975587828848766 -1.3424855748258298 -0.02581387573931038 -0.24574732570728647
Ni 5.95558566510024 3.746360316324715 13.477448641043244 -1.442948859749915 1.2043499721619517 0.27709781499410985
P 8.98234040764383 8.881957630221173 5.223620594734339 0.022525691906341853 -0.14541825236822054 -1.2276480234579437
P 4.052990459718167 5.43729105401671 6.198173833594652 0.43821676592703884 0.6529802416583012 -0.9063100076985359
P 2.7061843442138307 8.81704485159866 10.59203773004882 -0.8544770821876445 0.15706560679916173 0.7720410870789155
P 5.630356189523862 8.346570491699161 7.816544065271024 -0.4398494164344554 -0.3858135697349742 0.13251260005014598
P 1.5038835769617236 8.596043741013574 1.555280409468605 1.1168969834546056 -1.3971554555648842 -1.083172851729283
P 8.726183601088733 7.884878122641501 12.902079409268561 1.0220621004608914 -0.43964578506408153 -1.0198609790445146
P 3.2388999086797474 2.8893304521701486 10.787218863138811 0.2324837758291609 -1.051135363677764 -2.3125345154442236
P 6.195934888140028 2.6359838826844406 9.088576613067593 -0.05950098357911044 -0.7989530809784111 -1.0411116608931748
