# total energy = -381162.5384250236 ev
CRYSTAL
PRIMVEC
9.31327037309268 0.00000000000000 0.00000000000000
0.00000000000000 9.31327037309268 0.00000000000000
0.00000000000000 0.00000000000000 13.63091259081594
PRIMCOORD
 96 1
Ni 4.549821181474021 3.404903628394836 10.724910450746387 0.7646730767496186 -0.783942980722824 -1.9183694884207607
Ni 8.59576650782055 8.358184986198786 9.335974975042193 2.741994104003923 1.3189412118469865 -0.6967188201968323
Ni 0.5867155304909292 2.3614541536405875 12.264017751044472 -0.3307269131734755 1.1963278731884235 -0.16505685253475444
Ni 6.367566623539594 0.5907463138134654 3.6109653185083017 -0.7644817866744189 -0.29701126608858525 -0.04840770187942631
Ni 7.286944713305793 8.163956737142655 5.479422447887974 -0.7003427901026648 -1.5930424061066177 -0.5271106008459696
Ni 4.957304690510362 2.172776613596082 8.521146724694798 0.5490991893019188 1.3741402256166335 -0.5157733214562794
Ni 4.964708740282581 7.421558720107871 8.645120320346235 -1.3842654869760935 1.4929712144146288 -1.7874566287575668
Ni 4.199539777721917 8.375740500438575 12.411599555208609 -1.8734016654608188 -1.809091176308207 -1.0689081142801526
Ni 9.66084139587177 8.475029273547538 6.992603466732095 -2.444921902770415 0.8155307828314342 -1.2043461155072095
Ni 0.6149552282510826 7.625128179128197 2.1729442524588496 -0.0018244548032484707 0.8564717440201701 1.0572769577991277
Ni 3.1846820423396327 7.312612085849486 2.86450857834052 -1.4816701875795129 2.196735628604333 -0.3618562875884284
Ni 0.2703847217572479 7.92582573258182 4.69086041335516 -0.10956524722535324 0.021377951455143825 -0.6141059331906069
Ni 8.859257547010003 3.4824924820455974 10.23291646568103 0.78534654593857 0.3632014887624132 0.7766505608264688
Ni 7.014186970313374 3.1102876403516024 6.736887145466978 -1.3743068331014847 0.2732380749283875 -0.5744276407643784
Ni 6.776419183288534 9.062705933518332 7.732816590588812 -1.291159413748028 -0.5715017253668351 -3.3431092813618166
Ni 2.097013160895453 4.079668677573201 12.741795029220155 -0.553806107859285 1.2879051684767884 -0.7238056491112953
Ni 5.184650928233173 0.8223245014941328 10.541439028717818 -1.5302851203737389 0.411904096174439 1.256814617719571
Ni 7.707513366908131 1.5618447180514128 10.676889367179701 -0.8621867921270763 -0.029629135720342523 1.0496919463630179
Ni 8.175328240000365 6.337168109757805 6.53157889890895 0.27134959965642297 0.301485499809855 0.5224417346153906
Ni 3.5766217034893915 6.263295250898384 4.993357290602484 -0.2941313734376289 -0.29369094346610064 0.8673261702361708
Ni 3.9165094977499284 2.129805185106752 4.022591370109025 1.0655219714167392 0.3332913314665421 -2.742934613540321
Ni 2.0069724650491487 5.825813698696864 1.2961687856838933 0.7238989801560501 -0.06454908752597915 -2.616659509759455
Ni 1.9566249265980606 1.7054925969026125 1.0390694438009476 1.743872830629345 1.9044613629801006 -0.018422211260929564
Ni 3.947345735228943 2.6860868113893073 1.4840928821729613 1.6477572811509946 1.601992159100738 0.4457264440405227
P 2.8140790831120794 6.433104105611423 12.501440947073624 -0.9075806468808435 -0.2637707588679006 2.3257615556574587
Ni 7.439291186480581 2.962476729741683 4.2576014978413435 1.7611892104206055 -2.6911649371671973 0.4744304968434346
P 0.948482058996619 1.051812791352302 7.773504405236447 1.4279927526607148 0.5791728687588477 0.5057447335756838
Ni 6.6249202176977375 5.361118771106133 4.829050715896272 -1.3681418419413536 1.142822702181432 -0.12634838022096304
P 3.8817523735361914 9.089844802746315 4.128912593511072 -0.3338587739342379 0.172000116621807 1.5673277749493328
P 3.5303161242850236 8.41149414455876 10.05878159698158 0.7073760428003625 -0.004452636454714913 0.3859796629991933
P 2.452305103990267 3.893142502934208 2.4555545039469044 -1.1110744632355576 -0.6137673189042655 -0.08543287295352384
Ni 1.555213669701954 5.769645366399692 3.4736197295701348 -1.2561157918803334 -0.7672745189282076 2.128473868113457
Ni 7.928675593248862 3.72226262215349 2.012672186383234 0.009963538970615098 0.20352081293790755 1.4276862771638896
Ni 5.540734499291054 7.391560676942692 10.723697862972372 1.3514630957340918 -0.04899519895178014 1.1180827762325904
Ni 4.757423286470915 5.099210987842814 9.123469433309356 0.7914919967146756 -1.0593279267908855 -2.3340749606191613
Ni 7.131496921169813 6.8887651611530325 8.639040617589878 -0.08073366770564161 -1.9117632959581528 -0.7290836096807831
Ni 1.0260709126473802 2.502159039123207 3.534264019503192 0.1505308910044375 1.8546403256929158 0.31626291522934563
Ni 2.6112360591637445 3.6129620836292626 5.187720582075844 0.2890770988431731 1.3017073644672033 -0.6697818865966724
Ni 6.324576568509956 4.943120580066226 11.456386795871888 -0.3211994332990146 0.12540452825045498 -0.42867771608835203
Ni 4.379379024390528 0.9788340064276394 13.414371459912392 0.05002235466471385 1.8346546265996082 -0.024414681398938598
Ni 2.6413086084901525 2.506051986047468 7.346748014943969 0.933413034562915 0.41453844847349247 1.417201832692798
Ni 0.4094802741573019 0.39348938930334 0.8651925526847569 -1.3231897027106951 -2.973306999453434 -1.0723929875049596
Ni 7.162137579975599 0.9703589305877411 5.773727372708073 0.6456310003820817 1.9393268073987182 0.13202974687645647
Ni 0.9460233556760331 6.559503808137907 8.00641625320313 -0.5144589735202301 -3.0070959229784213 0.7247502724127518
Ni 6.828862207524213 4.382936693589254 0.16947357698750493 -0.9086193725580028 0.0009505368387273951 -0.4850553235471324
Ni 5.714166216093896 3.4975892929648014 3.3133336935892888 -2.186149625558371 0.8436486241135729 -1.7269739979914773
Ni 4.584373413744376 4.352771011561309 6.4849203467657555 0.6486157940420184 -0.22621105544657172 0.24364082088724492
Ni 3.3971456743567754 6.3226580348582875 7.328223920608191 -2.34416576919626 -0.6930102609969936 1.0162056416801144
Ni 8.501115743248148 4.328100158924067 5.519415492582141 1.7129753697195402 1.094698078760063 -0.32673398996399855
Ni 1.1686850185115152 5.4695904285866765 5.959516867677906 0.6678170495608176 0.3908004814266044 -0.21728032861584515
Ni 5.277019941617911 7.466206537224873 3.6992662954898887 0.897978347904389 0.6478467770864779 1.0996772771422092
Ni 0.18229236202710497 7.377991242328701 13.342059505130738 0.9752099159940429 0.9481688527158508 -1.6060838126716084
Ni 1.7180655116101538 7.882397953854956 11.088174553092797 0.3113125132026058 0.1428774882242378 0.8760211269070074
Ni 2.436649496861839 1.1378301544921932 5.297231600505546 -1.2708862653212887 -0.10512289518328348 1.146330201114058
Ni 2.3923555840106783 8.248102132981645 5.950029439372297 -0.2243583185085491 -1.1621473706519727 -0.10325653139850605
Ni 6.408433252974181 1.7292973154155578 1.5798090848509512 -2.8147776636245525 0.27972059732893756 -0.4397925950545909
P 2.254817210380329 4.77776346848667 8.79662766788017 0.15565227139140292 0.41047250593423507 0.25121554791070927
Ni 4.719788361779674 7.608485365363474 1.0422769340418936 1.3624571328517505 1.1928340011025522 0.158495654377469
P 6.766919647731726 9.206167546966457 9.65861924961309 -0.5157774352213376 -0.3982014018763658 2.5233415776309
Ni 6.319407703574633 5.93446230831033 2.3402506314815805 0.10755413033259541 -1.2405575324307603 -1.1299142216498799
P 8.573815130068198 5.471769733802652 3.344889846851187 -0.7890237376798411 0.005058388359513869 1.5462521852259563
P 6.789429821693302 6.6935497054606055 0.057143431682268174 -0.4351728368943925 -0.4516687776668866 0.19506908262612857
P 9.062240270010644 0.8847792911450757 4.4192370266674645 -0.6170459896555374 -0.5761842184441689 0.5545722966013482
Ni 4.700398133319599 8.316079691833753 6.289316527707918 0.016477171719416785 3.123344495761221 -1.155161683362759
Ni 8.161237262257764 6.9913601451665714 11.039607711895103 -0.20568902423381996 2.0805562184965716 2.8369405728748367
Ni 8.73300685680598 5.953545198855331 1.2979774227477485 -1.5152050861121646 -1.0970318690995622 -1.0364343100221634
Ni 1.0503599212083197 5.830637972636499 10.705486694513757 -0.6406852263410321 -2.313100672360339 -0.8684749391286333
Ni 1.6673454423529162 0.39664938186650206 12.44847172307426 2.2809407997983424 -0.22880606986725754 2.0534593622797797
Ni 7.647694232710696 8.646281685134404 0.7204494332634783 -0.14681950359112136 -0.11158253476569815 1.2958719887323489
Ni 0.6801881663888845 3.798780449736572 0.9593841730385805 0.07233695900151413 -0.5555842828056302 0.015341001232444546
Ni 3.5988711058866625 0.4771998554261509 8.369298511473238 -0.31633362056628106 -1.056440320830445 -0.7285074254623389
Ni 6.51985721709346 8.789426647397303 12.375014236063695 0.5934566323713715 0.31966808425615273 -0.3497111675854622
Ni 3.8255002218076357 0.4917630159655454 2.1762430127473023 0.7127355073400629 -0.5518338146242625 -0.8919051451271155
Ni 0.719800298333763 0.7151390066218188 10.468922181992783 -0.8441553885466623 0.30507553115395847 -2.370621649394943
Ni 1.6946612637138194 8.41234165214275 8.784959071704558 1.0596526571201559 1.5365501274468443 0.6857178411006385
Ni 0.7049325938603413 2.8279558556411435 6.243216771773948 -0.8517897651634686 -1.5829927351800994 -0.6740954263703617
Ni 2.3981204982358397 8.339120722194092 0.8515094961748904 0.5028265314876244 0.21511854507783598 -1.2900810930821847
Ni 6.609674394456074 3.700376437292214 8.90676546939122 1.2949857294726534 0.6325947360234138 1.2784980162302755
Ni 9.01694052398288 3.927452590180566 7.986405760950816 -0.025064142057479415 1.420518812881173 -0.2216380913639086
Ni 4.453819992729327 5.48234029542714 0.3628729449999535 -0.4088192866015282 0.5876953044075621 0.4099451726758553
Ni 7.525085031136783 7.787812382173629 3.100146420481201 1.3391030315068422 -0.07566859447790839 -0.1767175767021344
Ni 4.654120493925693 1.906109749284205 6.078814270385151 1.280746188834504 -0.36879878034453256 1.149353304211098
Ni 1.5703291071614651 0.3212612539530682 3.188052514808269 0.27161365195108705 -1.5312127743943307 -0.41903299390973636
Ni 4.278814333270504 3.6435189230036653 12.870007094118556 1.7450341979272979 -2.1104190674942753 1.1083385523616331
Ni 8.206499755204913 1.5454440493106867 8.004834859931025 0.5215418485089405 0.5255859366713271 1.1032639660522032
Ni 8.169786844258892 2.002781493479968 0.2189968910299876 -0.28285425786191287 0.9293476062442897 -2.6051039437113714
Ni 3.988249617744144 5.21918453396322 3.0424739950542006 1.3077162896654448 -1.2269731088781062 -0.9061007199012072
Ni 8.667748772838763 5.098996782629278 12.40004085562081 0.7213605300049124 -0.7632587129005951 0.4148963460335435
P 6.422347278583859 2.5751937036687917 12.386205061480421 -0.49138486530958597 0.544480716693301 0.17060837848060295
Ni 3.5377760536781646 6.034458889950976 10.591259436078206 -1.0859663553140202 0.4459334178450062 0.4700922744793969
P 5.394972508114956 6.505449588165632 6.586429403479369 2.5073578006081334 -3.142154172268556 -0.31796241441895556
Ni 2.2113428653026967 2.5418615097885766 9.86706327423188 -0.5143394172232304 1.1730115670599863 -1.4724409556717608
P 8.764513649736063 0.08934126925775875 12.16381720878746 -0.05389932112161685 -0.1342537511109688 1.0976157666274902
P 7.9150409657437955 5.400923687743194 9.927665654449246 0.25050078123187186 -3.3917967192651908 -1.0854814452578014
P 3.0918380521770543 2.071029137166534 11.65612011891589 -0.1928787598430291 -0.4612618206719605 2.1622278246354503
Ni 8.485841980196023 1.442131943495311 2.3494651809716856 0.16566800375619212 -0.7746705542819626 2.6395850082073764
