# total energy = -340860.3195370817 ev
CRYSTAL
PRIMVEC
9.34089636524996 0.00000000000000 0.00000000000000

0.00000000000000 9.34089636524996 0.00000000000000

0.00000000000000 0.00000000000000 13.67134602282068

PRIMCOORD
 96 1
Ni 4.373734616055577 3.874295568459264 10.65529687669651 0.20594819143247758 3.1879961703033355 2.2104763752291934
Ni 1.2459634862118836 1.780206713716625 2.0448100218051977 -0.988358280450543 -0.015350000093509047 -0.9894772245463347
Ni 1.348190256184466 7.78517942803536 8.75886232342471 -1.006433392784699 1.0359208607208548 -0.9761331991392609
Ni 2.137467977527057 6.865932474474337 10.653327815739804 1.585589035152366 -1.0542029468594942 0.5028491571954437
Ni 3.301044757675511 4.7168070582661965 0.031954272423173245 0.8308098204776917 -0.1831085678301427 -0.224120234355814
Ni 7.998787046432017 2.942027405345813 13.016925817349303 -0.09015084725448344 -0.5187624859915905 0.4980365662981487
Ni 6.098652564104465 2.0667573919374695 5.004437544108461 0.9540301965926343 0.3594937008935228 -0.6934465772034638
Ni 6.419045309906693 2.9421114734132243 2.68331633469316 0.7922427588377711 1.374069006059066 -1.4031895775741061
Ni 3.7507808956387727 8.277472689901682 12.01238246850277 0.21410038822596678 -0.4518055603550671 0.11819926875126739
Ni 0.21832290288881392 7.998263956234789 11.684544094196783 0.7761527952544439 0.763436119018724 -0.1467811941540182
Ni 8.525408102491435 5.34873738010329 12.66375399797363 -0.09644130824888553 1.885974874140139 0.01391840985330506
Ni 0.56830200388212 3.502621301535921 3.597847069672388 2.1120218932050205 -1.25626877251843 1.2928547991725798
Ni 8.370237131842263 6.741689211736278 1.4014632564135994 -2.723603517311877 -2.7357252402760754 1.033833896284839
Ni 7.907937488249146 9.005016427074974 13.373242716535813 0.32349979929741707 -0.3659867648170342 1.0278504250078944
Ni 0.06794661435102005 0.8871095995688194 3.914953688128458 0.41362364996870704 2.9309629872695844 0.7957659414996812
Ni 2.1653692350113505 8.481543253095303 0.3205879705365508 0.6528879390548111 0.35579491188569695 0.8165155153422067
Ni 9.15238774924762 8.778957393805012 2.1045805495556142 -0.196801491936203 0.5253735635502048 0.29824590982663474
Ni 5.880729451580676 7.276661029158587 2.0542704816579236 -0.6744504957169353 2.146608887151271 0.6689866443888866
Ni 8.15395801708119 1.142475695228126 11.293024158826459 0.5163906433253042 -0.6162139806725452 -0.08916662896434321
Ni 3.193605767523405 2.543068380099196 1.6822590083752962 3.0486259239014073 0.6195664420845459 -0.4996021110130556
Ni 0.16280995570797888 3.710176019078939 11.512927541382613 1.5121539579906669 -0.3694616107395121 -1.123418329512891
Ni 3.7468950827450778 8.509752760160106 9.501147863263457 -3.6620492292026934 -2.095922673650313 1.2885834254907358
Ni 7.059317052210301 3.5831678510126737 6.954449610831354 -0.12919407719987427 -0.05113847054702806 -1.3894704282158006
Ni 6.731741157092565 0.48725291418017336 2.828109569465181 -0.26720472425011405 -0.7312219961800246 -0.1021581561280047
P 5.8600860705829225 4.456298799150209 8.497848721814615 0.15921299215946774 0.7173557797208936 0.6481740785189095
P 1.404151566391497 9.02935880303884 6.594934388724651 -1.8536527649686658 -1.6268922647765274 -1.6270784126454043
P 3.695501470867414 6.297921906559244 2.7347884101004074 0.42284182613286536 -0.28361761839049865 -1.0317271343544812
P 7.699719567063214 7.476827097665758 3.676252685699057 0.37973599608232667 1.605257460115571 -0.7567597354398128
P 5.3400690282635095 8.459863032599475 0.11094649674244794 0.5261621208897712 1.7231199143527098 0.8298489992263192
P 4.666085990927826 0.5716460447858285 8.277028997323676 1.1036187782884606 1.9702278678529488 0.048487663187742294
P 1.7303636906378879 9.365462936550669 3.0035400102709264 3.004468512657903 -1.8303500856869832 0.40316260253638314
P 8.155424537812705 1.2626930316268046 1.3500892604183319 0.4126530585253216 -0.8440898254160494 -0.5899365350332549
Ni 5.286573714700555 4.917580285038006 1.5991642623663322 -1.2609944601288734 -0.39995206601888544 -0.5808625977564448
Ni 8.614585640222451 8.669332633900202 7.481603097984379 0.7670099524129113 -0.7012719867851536 0.04692391824504821
Ni 6.893394709828813 5.574142550626718 3.069203709546901 -1.6164571854861323 -1.5327724055719665 -0.001027155712933715
Ni -0.32170981219167755 5.67506159510623 3.4650568867474765 3.1222754310667584 0.9005257969165911 0.7163954726901534
Ni 1.159952512353373 3.9778767684068126 6.060042903011202 -0.825925495802197 1.4323916530593588 0.14529329675458202
Ni 1.7170715950904658 6.369258332206231 12.977142005581191 -0.06835200621183712 -0.4990881474911146 -1.4697243280715464
Ni 4.644704679116126 2.142129084820215 6.653270154791242 -1.5331143622924177 0.4716894437631876 1.046986631616713
Ni 5.1618820889362995 6.230163044225444 7.07519470787545 0.07035720956732398 0.009145413944693927 -0.2179372454735537
Ni 8.782506934429058 3.1850681882329313 1.6833668386858542 -0.16195661634287592 1.9652491836914348 -0.41274176158438597
Ni 2.496868306608297 4.403700211639645 2.9232755558648225 1.0248579180384736 -0.6507197277588986 -0.758311653307965
Ni 0.5811027682800027 1.1768875574886335 13.446807880058845 -1.2355492805828914 0.4120128538381614 -0.7492623986215032
Ni 8.661841235004186 4.4967635622643565 8.536402337529605 -0.5056678575911614 -0.014719308488045618 -0.8602299255110217
Ni 6.0865187397080485 0.16911599485349155 12.122492020929652 -1.392628514228808 0.8053227319501808 -0.8849485113036244
Ni 3.7671835096804256 3.7461104474492357 8.499844871370824 2.1584647580485923 -1.3501387204957134 -4.034183501678362
Ni 7.161683935628569 7.343000075242768 11.322334957574354 -0.6428986890525831 -1.4192255479910463 0.5658553257143352
Ni 4.047242264917814 6.905388420779545 0.5785209445208268 -1.3547685059582408 -0.5374099258894487 -0.059261613874794714
Ni 7.208285667663768 4.9642474033478585 10.387023530420603 -1.2310357089832542 -0.9742951174892576 0.2559330079910367
Ni 6.502263355747861 2.1221956119472716 8.938927717013751 -1.0433006981246935 1.3697482671965246 1.1225073876628473
Ni 6.668232402611243 0.6717897948658778 7.290737760001852 -1.3738890288377759 -1.2868492164084484 -1.9712452533738696
Ni 7.271878490212502 6.836172378610608 8.660210314496398 1.3480514989493817 0.32489539409336304 -0.5071133317884362
Ni 0.6505971691610353 7.970969857015136 4.470776254448135 -0.6659586561958402 0.4298018023904662 0.2880340022906394
Ni 1.281869891893043 3.084279916302726 8.498286809854795 0.07679782298634515 -0.9240909858310408 0.12034639700125725
Ni 7.879746662977102 3.81201981229998 4.287293026873991 -0.2837811405515564 -0.1074955091805181 1.9086203794537966
Ni 6.286385899531089 1.7224799740939498 0.4748780946571765 -1.8279594739676195 -0.29687422629008875 -0.16340466164331213
P 0.2777655651763253 7.7245196469496555 0.26875253426015705 -0.060374644433315375 0.742108046964909 -3.591929846677788
P 2.7827370993934686 2.723768020552377 5.0084018205317395 0.2554843504893922 1.209301916850588 -0.20876200673218884
P 4.524300524789866 2.288641044525986 12.640171036885382 0.5555739983929852 0.7278067998508886 -0.6573529168047001
P 8.318852860860979 2.17131938600482 5.612251539674062 1.0172145425606027 -0.8395718829410379 0.5266051219644607
P 2.0381088627428503 0.2283839823787142 11.29715283502601 -0.1519108020710997 -0.2864707715685776 -0.0004350306548895734
P 5.844374682873321 4.3290851313636045 4.68976422915914 -1.2569069203230614 0.4973644799317886 0.6371579299140641
P 8.863427119760974 5.4772307506938285 6.363642585303131 1.0136008570674155 -0.7212826255791255 1.114152587940249
P 4.864000903407639 1.7809072809450557 3.252194671881869 -2.395300897309178 -2.1574255181508004 -0.4783887101602341
Ni 8.618452771323387 1.6725715647405588 8.0216488903198 0.30805004040125017 1.752506337934627 -1.4919119199121789
Ni 2.2076087684375216 2.485080095377906 11.27583877766824 0.41740445716737795 -0.16505171032843188 -0.005617603297093551
Ni 0.04873239049926543 5.908742799821518 10.233686177730641 -0.08278746491087677 0.7996601343477647 0.7525804072511426
Ni 1.4774495802780883 6.600921903303637 1.579847288654408 1.231929167331801 -1.3723885330328494 2.7667024053838802
Ni 4.513455744093761 6.517012631130418 4.733908371357004 1.1305320577395368 1.110685455327255 -0.868534331611659
Ni 1.315711959474427 1.748774597401042 6.2779370587562155 -0.6455487250809204 -0.44336180046308804 -0.034262520727295825
Ni 6.5290810692521815 6.591749143059387 13.456268339911569 -0.6378487853335014 0.6958477304457886 0.2144953096715403
Ni 4.115869830614868 9.094829145759768 6.368659580748331 0.0501118290547266 -1.3782727597277682 0.39763498784993456
Ni 5.767555151051818 4.47020739385865 12.879761292650072 -0.6781302585613677 -1.0233304256503537 -0.4418109110362004
Ni 0.4798259674691719 0.5354407304205387 9.45158973752428 0.5965861791392887 -0.198966875018638 2.0538247160389984
Ni 3.2920588153588417 4.918888010531076 5.727350998946647 0.3989513926685129 -2.0384582608852573 0.7970206398423887
Ni 7.72285696739418 9.448783732252007 5.0114366777653006 -1.537341770110204 -1.6571464356753782 1.5830562414281835
Ni 2.45499306814091 0.38463382655966966 8.160672253398468 0.4896637688534211 3.2269524969618746 0.20653980226988944
Ni 6.270749238992519 2.6450429458695432 11.376952112792436 1.0718042048810252 -0.3752172822763667 0.010133488889576096
Ni 4.0816447862819425 9.06000628405858 4.099065558028915 0.3562075739430833 -0.14701593587264356 0.839580110471154
Ni 3.9264551338400113 9.316694116555526 1.9661989060581893 0.006304602061789142 0.34415861319834923 -2.619648674294766
Ni 7.115922884267487 6.129683021875748 5.418419533001542 -0.7399411212205772 0.3122273117073913 0.4859999468485888
Ni 4.442081954861259 1.7813369621784931 10.187845728750336 -0.8300580299133317 -2.9278318978397704 -0.5694720965313159
Ni 1.2986181191007222 5.657911709354251 8.175424331049939 0.9241907446336987 -1.4996848789893784 -0.9522905881937084
Ni 5.193370250630157 6.446731726774268 9.415798224868585 -1.6624369946503563 -0.8908551065960464 1.8915999336364004
Ni 2.861835809931465 1.0774256928442567 13.34738991762745 1.6925037321287495 1.6931776182673226 -0.9493050232028231
Ni 2.2601886741553274 7.09844606714224 6.250990440881864 -0.3663117522566207 0.29572700005952296 -1.1278298283170254
Ni 5.771328873188963 8.747515936593048 9.80120641173808 4.415326919631176 1.219850381790396 0.42479200788070065
Ni 2.0499624602478947 6.212060387042799 4.11808268896707 -0.09015547524017377 0.33801161976034694 -0.08654050419540579
P 4.480790629456141 6.06805178756662 11.978751505179552 -0.47185502280677444 -0.2777580742859281 -0.06740044093184522
P 6.27345809894245 8.129372777811469 6.079962364539576 -0.778716185106246 -0.33279767965957524 0.46394528104139454
P 8.152435450971401 8.474210649437731 9.969186553591877 0.685303379271039 0.8124765693861427 -1.75308792146971
P 7.4332891796428955 4.610246112373724 0.6691061553361698 -0.8081609727299244 0.4769360368741077 1.233633037396785
P 3.266931804099133 6.900120155221747 7.995973568442641 1.2038282953305266 -0.4763536820080764 1.8936105363085258
P 8.292315374248028 2.874763610520103 9.953587256638823 0.15760399580113502 -0.3725441063195778 0.040103552889105124
P 2.43512498154262 4.428752495728321 9.715910950542206 -3.262584901453504 1.501131638738234 3.3841561720007975
P 1.729513669067392 3.3633859001094484 -0.0062854891734786976 -1.323812681006675 -1.7710632750012079 -0.21270890719507884
