# total energy = -340870.1646315469 ev
CRYSTAL
PRIMVEC
9.22642582005661 0.00000000000000 0.00000000000000
0.00000000000000 9.22642582005661 0.00000000000000
0.00000000000000 0.00000000000000 13.50380680906673
PRIMCOORD
 96 1
Ni 6.903285612711712 0.6341894507041822 7.185659452403992 0.14055346807675148 -0.14233807078100003 -1.0686615454869852
Ni 1.094789235390622 6.799857379227844 8.050969947349705 0.824446083043193 0.19433040468789112 0.9058909178832464
Ni 6.356057070681229 4.734272845091534 3.1764056070382223 0.42396488399371496 -0.24872980537437808 -0.9455954355617199
Ni 0.9669386527513743 2.769219446730446 4.999946854042886 -0.1599827804459567 1.0473293596681124 0.03699868871153628
Ni 3.46840722207755 2.9902384773375887 5.38346815475541 -0.1706091498115513 0.8146293540630872 -0.3231354739794628
Ni 3.8722017482525284 5.2535176375986845 3.610634421435314 0.4680312781853101 -0.5166130437487555 0.11203993401809093
Ni 5.138519466131874 2.850135201204445 2.3222627779095366 -0.43306273252992517 -0.7004145238808647 -0.7856735902606855
Ni 0.4773485154842332 5.797129420706272 13.155529707952223 0.7832917202920704 0.6345204922912169 -0.5397750836875155
Ni 8.837190597491933 8.675635881318646 7.543469472273563 0.4005603890268456 -1.5713554080514873 3.330807581176328
Ni 6.263405302559462 0.7773863474160185 13.07479110085404 1.0392352698060683 0.04990099859550116 -0.9915245939936667
Ni 5.564937188426607 3.3238475822715507 9.342109518622596 -1.2159762435469705 0.8682911052526014 0.7956934363905328
Ni 3.3665105752804187 4.436988178625546 12.187536474729198 -0.8411397416487901 -1.0418266846823283 -1.6126792065009388
Ni 0.6735503059107418 3.122499291520573 2.483093219655661 2.8771906786441352 -0.5574719867466464 3.9539625119430815
Ni 2.4598481624353883 1.9281753743436914 1.1783068419469087 -0.04676965205537107 -2.3778665038828146 1.405725456622082
Ni 1.1022626403078326 1.7174253556783456 11.337580597639315 -0.691507451199222 -0.4572629839252125 -0.7712952100518266
Ni 0.2534425362368493 8.26219051373206 4.143062853801973 1.7533458031167868 -2.232386287928407 0.988534143906775
Ni 8.277331078508778 6.146977035089976 1.504890946258693 -0.581170873025483 -1.7349382471438766 0.03261212960806641
Ni 5.60354055407304 4.798322693159779 11.54210923737173 0.11136347677635659 -0.2659978484262064 -1.1101735486878428
Ni 3.7058769699283802 7.455837802442481 7.367244739040567 0.71870020956393 -2.319957547381172 -1.533853040230655
Ni 0.5904561922997633 8.843824397659185 9.906473378692887 -0.1454082250658915 -0.5235979597070208 0.20169867212750425
Ni 6.034110167988445 1.3776253190166692 10.704994699743295 0.5525416393245646 -0.09288187303240132 -1.0938516715993678
Ni 1.0856458473993182 6.274504692825394 10.615896028206242 -0.9655757353383887 -0.4169434583705594 0.2537771379902984
Ni -0.10890227192507985 1.3596522415120682 -0.2450658642314966 0.36605489905080824 -0.36359332488419316 1.1178264372474103
Ni 8.08603036547983 8.437649453621688 0.5751191046529983 0.8732556483467283 0.8797096315021881 -0.5254566101823144
P 5.186081691253136 7.888298833651748 12.217907100613129 1.0235499978603275 0.8158169466132853 2.249936123886712
P 1.2950303550427538 3.9185460851650595 10.772702825650644 -0.8476310058000885 0.2254484662489343 1.856766113786667
P 2.54171423876923 5.51388737434398 5.732136631918843 0.3794575456099594 0.020753430497267484 0.19522026349201219
P 4.48050922923602 2.559382844221648 11.231845757699517 -1.6284202713852796 1.712694605254328 0.11920868385238825
P 8.729139924670381 7.3178658306746165 11.486189715739345 -3.1717727664659376 -0.05713068357472096 0.6404746529921228
P 2.518196079344575 7.850848771233281 10.131474534685548 0.6518944647932902 -0.22437323090688455 -0.4077340239571494
P 7.490879767720958 0.31378428376654144 4.457215271958881 -0.35376682571207463 0.6140915350129037 0.27525741935126147
P 0.10684477896639095 2.7241022244524693 6.965911823275357 -0.20815316950359636 1.4374909219591372 -1.3259919480461808
Ni 3.9388257691255895 0.6665732827028468 6.0502591811076964 0.027533943754210647 -1.0893370715584658 -0.2766643270011171
Ni 7.05491269469868 6.617626242783608 13.092251189082841 -1.5863472534746292 0.3027162868931625 -1.22907215749898
Ni 9.099830034989862 0.7956482120489018 2.9824236946649 -0.24617747126616954 2.350783017402461 -1.854809504280928
Ni 8.903823844790816 3.553631717411225 0.8118774950728201 -0.8541878330819999 1.3762870967563072 -2.787885724329715
Ni 1.0298721032949485 8.419390356916551 12.379993258913862 0.3811686147637952 0.9482372440599413 0.15842700592306264
Ni 1.5731148293695867 5.661870018130579 3.781727416625159 -0.17763134676565537 -0.979426782288868 0.38738374243557155
Ni 7.19478531018623 5.17777790801179 9.795742429169547 0.036249983470969825 0.46082216203138054 -2.5070001601583987
Ni 2.052621405853987 0.8661925412544602 4.2171307550296095 0.8676740404938927 -0.31884224592074767 -0.7383755765056703
Ni 5.240822075665249 9.100503564074995 3.857713491781545 0.9153970576014686 -0.7535543411286376 0.9967387912047543
Ni 1.62648970275979 3.2856870850646573 13.064514707771584 -0.7603716211607872 0.8274506741974719 -0.5407569879848106
Ni 4.805749965947871 2.861631327780796 13.45577421182246 0.6930709390315999 0.03713418584813605 -1.6615522780525578
Ni 0.8640501651781931 1.5518017857168003 8.442107662579708 -1.1193387601268787 -0.00795113652627663 1.045344982248232
Ni 6.839992331561013 4.210913066667006 0.667697984010758 -2.5703745106499865 1.1969811905017063 0.27864227666309427
Ni 4.641630303395591 7.069001446931495 10.443574073096677 -2.160538095637853 -0.7917755893933653 -1.757931108494624
Ni 3.0564749883260536 1.3059728960696821 12.46132604783509 0.587353090576795 0.8563506450612737 0.033410200029329554
Ni 2.8329925020239783 5.1450056434859475 9.683552781723476 0.5558912725230879 0.05077054568464805 -0.5022889138165995
Ni 7.497624284998096 7.988350195284137 2.7588683195988177 -1.5912719444697563 -0.05544789655565934 1.1088129208948903
Ni 0.40598303438036387 4.224060723465803 8.871595939388573 -0.9149386299078113 0.629066411155181 -0.6067255815661358
Ni 7.750280729754764 7.611423021107822 5.793646444957818 -1.0053270470943976 -0.6182088996153868 -0.7549460792698418
Ni 8.521047116642267 4.327350560562316 4.235225621355083 -0.16978922501341726 0.14613996102559346 -0.26045120757636436
Ni 5.4741491583212305 2.1190055396556318 4.426142515069767 0.2287554191349802 -0.7041246257426002 0.49867060033772187
Ni 2.3407073257737294 3.7526364960029786 7.476004924007962 -0.8760704920877042 -0.7433393482688488 -0.28111130702887716
Ni 4.22325802441914 4.94350972992179 6.8969073845397775 1.7128275312877663 0.4471521207434557 0.38032375026499665
Ni 3.4011465778226526 6.497516631410459 1.3923100983576973 0.6028455297854391 -0.3814874315557946 -0.2729249145633429
P 1.893779258872874 8.611170844088335 5.854224388988597 0.8718916781196662 -0.3119565745445079 1.4573519225491225
P 3.5811264663659017 1.7276574619168479 7.909611877304535 -0.2771975737967678 0.5313161542868851 0.2036678800387331
P 7.552982839940399 2.769090276768914 12.749241278877095 -0.6365544920021102 -0.6142627704834452 -0.5573094930268531
P 1.1091732332497968 9.174988499749862 1.028692043432095 -0.11946142329314263 -0.009251343394938907 0.22081585257292938
P 5.575999672989243 8.256460903295531 6.099223822954164 -0.5020387454790063 -0.3630904171058456 0.4081407724772648
P 8.797018739455467 6.367590102960874 3.551757830326428 -1.1398404796246562 -0.8773069355979666 0.9701556413995872
P 8.276703681552766 6.1707258551602235 7.7859307164950255 1.6985818200020293 0.21922253994388052 1.0654695209122487
P 4.656503301823423 0.9739322835257518 0.8444412423750473 -2.009453646122791 0.302617299421453 1.9576816557568222
Ni 8.175609733802299 2.77893487312282 10.716350584647126 -0.049469567485037384 0.19538841363876028 -1.334325664722857
Ni 6.305339407928256 6.8193804962708295 7.844455780780027 -1.692022164506641 0.5284874265888382 0.5345796555295051
Ni 5.445362709751234 2.6086427316944736 7.08375911503653 -1.235764224807175 -0.12691068048233628 -0.8045629709660207
Ni 3.1248335772539737 7.727685212912482 4.424819445606645 0.32982805550829 -1.508643630844563 0.4785231788555695
Ni 2.9243710233820726 6.669995435759025 12.316403809494219 0.32312107580175964 0.44870738104571756 -0.46810172641192926
Ni 7.882190939756448 0.3990189281686222 11.434807750327064 3.1421456876281244 -1.4550705827141135 1.5200536724537177
Ni 0.18750680673023756 0.5485562247065169 5.7956310491525 -1.2375531983867978 3.158183200706961 -0.25158013033897964
Ni 7.4877058772376 2.5199952323801997 5.592479914795567 1.107906607030537 -0.36533267617280313 0.24197294626651875
Ni 1.0790950850644792 7.1844055811345475 2.081935605981101 0.6815171727557295 1.3169406364771898 -1.1747442334803768
Ni 6.470529335876087 8.303774014919552 10.123020360703274 0.9737832108498456 -0.7309857117995023 -0.06293289207879484
Ni 5.757621865329115 6.118384341462276 4.8218445431547625 -0.08001041638637188 2.5549188382165484 1.7591117590662866
Ni 5.316774013046088 8.229095324302387 1.078990826452671 1.8143015168645529 -1.6420784855986623 -0.6397670854021369
Ni 7.1215367155717395 5.023207596187058 6.406178706325989 0.9519535165692636 -0.924683367999401 0.31402117038302046
Ni 3.392224624051118 4.080654386887768 1.4154693498178093 -0.6993194910444731 0.7672701480528334 0.11966376911193584
Ni 2.5327277000169293 2.5569562942300106 9.698218185570276 1.8983094844460922 0.24775278617308946 -0.24454687764128208
Ni 7.968661002576324 4.908218651146072 11.843838273157 1.2255613161322443 -0.7979549787311999 0.6168426153954797
Ni 0.4777987650644306 5.380150332029201 6.278149131025761 -0.6387651265001838 -1.3498535851551268 -0.8711684268003964
Ni 3.065000205787168 8.554935778692778 0.10954258587724583 0.29061333298204145 0.43307661648699614 0.37965783454622354
Ni 5.116459081987367 9.033021485600326 8.303476924008029 -0.8798651832434459 1.0281594716078808 0.8545269615889735
Ni 3.8007338538220155 0.6387371559926924 10.358243473866029 -0.47732967276810045 -1.844596311193352 -1.1225354126873055
Ni 6.764215696270825 1.0084483425322772 1.9983340389498183 -0.7083515193397543 -1.643741475123382 0.0035175262349552328
Ni 3.4277555898982524 8.760076130457305 2.4201929842450522 -1.1192449148614918 1.189519334907022 -0.33230325652166
Ni 7.456031557384779 2.7273868320457124 8.154584554635212 1.9824681186728828 0.09361643720558072 0.9797990780266222
Ni 2.2935602898145353 9.026904365279202 8.046485904399377 -0.05891888582339531 0.7892901039673504 0.4121609493802515
P 5.637198555477959 4.010450512795106 5.3274277669447345 -0.885163712638224 -0.15492002121106868 -0.6947411276451713
P 7.857547156381299 0.5854776129252856 9.339421860780147 0.09353261924252278 1.0052807672374946 -1.941405801414934
P 4.829923201606009 5.425055346513233 9.048860490811903 1.955598290865232 -0.4121730335651095 -0.8930986512145843
P 4.868194415922788 5.120057388058617 -0.0216737969024938 0.15369591899598048 1.3744004212565555 2.490255850820524
P 3.009475575180039 2.574837107476374 3.2618173988161185 0.08404627701864235 0.6734194833492596 0.10461613075019402
P 7.39507256196748 2.848557482388589 2.5600111638202434 1.494723421219045 2.3106727796451367 0.4071275007214021
P 1.5187804076937168 5.088613728851389 1.38765075331672 -0.2969778417474885 -0.09574351085091252 0.40323793585900874
P 5.13585302906882 7.093423796086874 2.989702421997231 -0.8331729213932296 -0.5954088710017359 -0.8021168234183734
