# total energy = -340888.75611459423 ev
CRYSTAL
PRIMVEC
9.09040712791787 0.00000000000000 0.00000000000000

0.00000000000000 9.09040712791787 0.00000000000000

0.00000000000000 0.00000000000000 13.30472970414188

PRIMCOORD
 96 1
Ni 6.286352904805087 2.034351311526694 11.5192221585594 0.04285951836768748 -0.9172683064822527 0.28150417159192165
Ni 4.956026357562068 0.23834774893912825 6.050991354622104 -0.9073253363369277 0.6044398708557526 -0.6511586150685301
Ni 2.727567581682342 1.5278520046928876 5.075780654529592 0.4718509090417164 -0.4026488961247581 -1.1210644845687336
Ni 3.243211838131619 4.198977248241572 4.888702802043005 0.992151428944388 -0.21171209049944828 -0.347879256583046
Ni 4.962198744032152 4.586974007175499 2.665749176746906 0.20976525118572262 -1.734857257394296 0.5055339031164584
Ni 7.13648778357133 5.973788344588037 2.62671315026703 -0.27230245048799556 -0.054204511066861485 -1.0586951783028928
Ni 5.242401454715329 4.66850586910508 11.755527293006882 -0.5873785444980916 -1.1696292808513147 -1.2303214565250489
Ni 5.42672764095082 7.941370615433186 12.33639794804054 0.5348221105576144 -0.48004424348578617 0.5999862059597731
Ni 1.6440546795781408 6.698648322110936 0.273420357891822 2.719120284729543 0.028407090387783336 1.3066595662661562
Ni 2.8869496906366674 1.8147997974980121 0.13523616942290048 -0.02418636743821641 0.5587719365049925 1.7279623300466755
Ni 0.5604190569771121 0.0559414566984558 4.5235020571753966 0.4858451664382794 -0.8438062327373597 0.9963027321086004
Ni 8.504121361850029 2.704659755607802 1.2053516294363646 1.0832672112153021 -1.4913874148672766 1.536981815667624
Ni 6.930690055594545 0.6229101520433084 4.630964305564352 0.7128625198362304 0.05174447956214315 1.1632377755026742
Ni 0.6996631869223398 7.359720912504849 2.6228679080330894 0.7684937360472894 0.13901003484903157 -0.7168631563551913
Ni 7.636923788821122 3.8190618612839415 3.571135550307217 0.9217556528296449 0.10833394592141342 0.8197386502651948
Ni 7.52942063359989 3.8879035148008017 12.709023737486595 0.26972080580374835 0.4187419450318789 -0.1990920877425926
Ni 8.29286938956978 8.959005336758741 6.679240302797784 -0.42626165044769165 -0.5770457951135158 0.34673100191121575
Ni 6.81246931031701 0.9526292196354629 0.6138215629523065 -0.29516392846720135 -0.7038654585439427 -1.5213610784112315
Ni 1.74371281340956 6.384556573488916 9.59159222723711 0.894543611191227 1.2323063481655616 -1.0419732375625217
Ni 9.10149746918668 5.046575903406707 1.1658492650685426 0.18499575755052655 -0.4215878991211062 1.6516830985679618
Ni 6.605526191036498 1.8509159851941015 7.045905512260871 0.21253612906264044 0.7934547768680011 -0.5475015057974958
Ni 3.298936034098653 4.513796229437387 0.2887458753438324 -0.2882690011195809 -0.5409444214052684 0.9950462339936799
Ni 6.080646080900025 5.53803058637013 5.058205261302404 -0.12179341386042894 1.6814006802370525 -1.523999287365027
Ni 5.3010618521990605 2.8367615526376464 9.366889179463806 0.16245232503237184 -0.055141163948517945 -0.33011987571709595
P 0.16953154856235092 5.775044772577062 12.511648271755071 -0.7497709628268054 -0.826225543541119 -2.2213755386402
P 3.928928522370007 6.23233770538647 12.608440200205022 -0.17010958446731347 1.4293592939909383 0.3889186910228592
P 2.5048162443289623 8.263061944451362 1.6695705434704522 -0.007041223117497551 -0.18115967163388802 -1.293441010693353
P 6.516131126902759 7.74236342161421 5.986995797168869 0.7810944555304354 -0.028410175711576877 -1.4811824493098167
P 4.9418544127802395 0.9460295840282741 12.784461390447776 -1.790686191438458 -0.018286971234645923 -0.19024800708840137
P 3.9488183332632976 6.419018307079622 8.21767990472441 -0.498009055494323 -0.8229905815435892 0.6941896260170755
P 4.566020618643033 0.9589743238418235 3.9363372042155422 1.3465972830013582 -1.6382819946707075 -0.38787045226400296
P 9.191674308337248 5.629570986596564 3.6884436187046385 -0.6601870438193855 -1.3817015829036592 -0.21787811010084412
Ni 1.6393549390699913 0.9640013190081808 2.5283640350684413 0.16439247947787816 0.9532418963633841 0.2881005938625167
Ni 1.8685695559229727 6.314742246404606 4.702330365152998 -1.0147917920517233 0.056527245662767164 2.1941619543398856
Ni 6.189958227148573 5.393202219298875 9.48257370114023 -0.49144734311640526 1.6192152078472437 -0.17913081412931728
Ni 8.42509845230004 2.2258225577997197 10.385445668076645 1.1383325276205623 0.13740206693196336 -0.26813469226355113
Ni 2.2760925094632927 5.1762596521286826 6.906218679486346 0.8178020953641141 -0.5870152476214019 0.9946621111813837
Ni 0.9021820050320276 8.83143056250077 8.74829878890884 0.3243500631128543 -0.2184807766818495 1.8048611973872595
Ni 1.517443488480448 1.228277636325249 11.533018669525006 -0.16300125555730638 -0.0013007210892945341 -0.8978251101559763
Ni 4.411638233633547 6.653550812128479 1.8893784069813968 -1.347232602592512 1.7879996457452303 -0.46742141251545305
Ni 5.667296176362175 7.948806568500239 7.947606634753477 -0.7834824961466378 -0.2994916093082778 1.6033972669783805
Ni 5.136780013778792 2.8483609121896754 4.622102976652662 1.4232472675559293 0.621872207399587 1.3979280720648506
Ni 1.3597976472960576 7.243381881512009 7.123817574054389 -2.086044495304653 -0.1854079053872807 0.12966767440218313
Ni 5.113608565896252 4.825915359702988 7.100720667510663 0.21894228969930035 -0.3828596293129729 0.7184194450987175
Ni 8.506521229343551 7.277943609581612 9.70606681571888 -0.20433379575750618 -0.8031768892517717 -0.5709617937029651
Ni 4.5082783522837175 0.4781372364558049 10.507038045374436 0.3538452443584938 -0.4047952530437996 -0.2784571572354817
Ni 7.944188641656642 7.411218069136701 4.209470305240716 -0.17792548096730645 0.26853835545987303 1.8566470717102992
Ni 7.377392664048065 6.2632723609942715 7.414978770583938 0.543465130944593 -0.12058859491905037 -0.5811716443564313
Ni 2.4411743037147358 5.256873382933848 2.7476001119682394 -0.3376310964924766 -0.3944619894385917 -1.877091712717896
Ni 2.321190019445749 4.996878647394997 11.355892994810802 -0.10770042610247257 0.8601124260965509 0.7124449726828376
Ni 1.29521939474307 3.287491211468556 3.7528255184627017 -0.9090418048074022 0.056523389008025234 -0.7324188447016031
Ni 3.649325778560211 2.384077456264664 2.701139949950635 0.4295899434899763 0.7780127312813181 -0.4078121854932525
Ni 0.9133404798361933 3.3768044619377426 8.207674093549707 0.16070551754459422 -0.32341135334866883 0.14215423690496806
Ni 3.7680919482680912 2.8875405671028758 7.041741196735178 -0.3932340305687615 -0.49039679036470385 0.12812346984351483
Ni 4.115990921164402 6.949143582154591 6.1273998630693 -0.021662572575098175 0.009699743786267164 -0.9366731933714255
Ni 0.9807731202413257 7.974577872834097 11.722983635329559 -1.5203817452170978 -1.0121371280376956 -1.0366130016918729
P 0.30194787368036163 5.530794622260871 8.065074694317133 -0.4908688449051159 0.47046791265126064 0.9896906261087214
P 8.769970319607928 1.4267303153067061 8.372027746186639 -0.39343894749071595 0.9097205760419816 -1.4105033376267
P 1.6426274856520684 3.150898753295528 10.44628867232248 0.05689465630451492 0.3262673347402252 -0.5876420825721235
P 4.080192897719347 6.020122149945945 4.086933434637708 0.1688104060399157 0.7179481618892538 -0.6445812189613286
P 6.988486864396895 3.816043846102693 10.613994867124605 -0.6430321293066539 1.1809850721837662 -1.1400973328304687
P 6.441280714244919 7.671503697705069 10.219243026620841 -1.341202080127716 -0.4545273301616043 -0.7247523292952808
P 2.417948313389161 8.488804025764473 5.880304415308137 -0.3784211339256451 1.4289684863104228 -1.8706660116972105
P 6.63090660786194 3.8239343195283673 1.4652363710484289 1.0721793288322568 0.6682739345925781 1.08601880581851
Ni 5.0788650296832 2.9345925146274063 0.32479115786397683 0.06144525178967482 -0.012576551113429955 0.319770671272288
Ni 1.2344409323881609 1.1230107212684366 6.8667708575615585 0.9037021377620436 0.6493526722080429 0.39927817988031233
Ni 7.05380143993085 0.4552057753226171 9.06931560971482 -0.926722509916617 -0.017641367230847037 0.7513012834284029
Ni 2.749848169661983 1.7226594303981977 9.206433493422416 -0.022508208404845107 -0.5446961751382167 -0.28889300785682503
Ni 6.495214099998983 1.895558974817936 2.763032896224885 -0.9936496107564693 0.36908957211207405 -1.1408349823274417
Ni 4.333787986608803 6.60239909096918 10.488211812120321 -0.46835446585268375 1.172696606922729 -0.8520936695571325
Ni 8.272434154246143 7.41561782620816 0.5012477786102898 -0.4964057155629451 -0.09902732380850687 -0.6694630698046729
Ni 7.496931518365603 3.9050207515064996 8.283578084398833 0.7719477560341609 -0.8773884395681792 -0.3641013748688633
Ni 3.0213149990524486 8.680657069138741 12.681416170903907 1.2258402808252435 -1.0045354044310377 0.38327794779731406
Ni 9.079044163470762 4.707131009180761 10.251800319908922 -0.19696938497263497 0.24483766940882348 0.40144176319053443
Ni 8.84460256249363 2.408630646037414 5.4448275506718575 -1.4759314853235226 -0.6199276820787065 0.6283462451597049
Ni 3.5913017095785498 2.855496881820038 11.3815979391723 0.6625365178881687 -0.18335976460900033 -0.203901593316094
Ni 0.8820685701222951 3.297717919537547 12.587218644660968 0.18813867405488244 0.7152934978752262 0.5075334500449904
Ni 3.177688183232698 8.586098653731058 7.848021224179438 0.9103165577547677 0.3746855781426128 1.5845613652188
Ni 5.5613747519889465 7.9671601005813875 3.6442051521999774 -0.31566333397213375 -0.28167823527594066 1.3764778726108746
Ni 2.9727267727157765 8.050500953538284 3.7974357826207155 1.528174244678323 1.2850818400953803 -0.2924892098485157
Ni 3.5937924811437973 4.4917247208227105 9.116441189537447 -0.5044198441166732 -0.15426747522873432 0.5377400555353578
Ni 7.3040512589808495 6.2312195853042605 11.711621535404731 0.04989842749233987 -0.11231812738014205 -0.3390387754732806
Ni 0.7730018648674042 0.3259365491677038 0.4590755616559232 -0.443477757215662 -0.4163839863226635 -0.534033553218048
Ni 4.568284130028969 0.06666268291762718 1.6507306746055783 -0.4274078482369929 0.7798873225962117 -0.2737936903215414
Ni 5.941081059581611 5.665732626328515 0.42044314925450343 0.5101431197536956 0.7063859109729512 0.3210546801910341
Ni 7.660849740498975 8.906026443757781 11.450649581094844 0.7904658694430063 0.1226868722089758 1.0510479461702802
Ni 9.041628047549015 4.8011349097509255 5.889578448705455 0.4176577108287646 0.8162558339229168 -0.13385163057654367
Ni 8.108425028041047 8.973877242892847 2.2872828006925614 0.5843806382120323 0.831028364246401 0.910304987790542
P 8.74408083998083 1.6271647030517542 3.4059710333505047 -1.061910857026713 1.2546816305369681 -0.18598871759141516
P 2.026606284615778 3.304735713874668 1.6519287902709052 -1.3106591743438523 -0.01732563576264113 -1.2427357710290017
P 4.674278277659576 1.1534726757032707 8.095555738607029 0.9757308214945196 -0.06739941249058069 0.44257221468225716
P 8.500112492286984 1.5438238500948582 12.482191716353508 0.11398728755244884 0.23301393730101802 1.0242696496351713
P 6.399092134557642 7.890437064046026 1.617828854885662 -0.3804057684558416 -1.0611238423490434 -0.9913968101665507
P 1.6859432758287274 3.2821096904224736 6.050605012317275 0.23053256564006103 -1.0209806944712547 0.4657707642859075
P 7.04559280225414 4.026868569245836 6.075750896637668 -0.5242013976189747 -2.286356057276643 0.46914713695730814
P 2.513197599741949 8.658531018081032 10.35650817492463 -0.4401420079742097 -0.4964885050847385 -0.42805422357174017
