# total energy = -340890.18689446413 ev
CRYSTAL
PRIMVEC
9.10398362980907 0.00000000000000 0.00000000000000

0.00000000000000 9.10398362980907 0.00000000000000

0.00000000000000 0.00000000000000 13.32460028699465

PRIMCOORD
 96 1
Ni 6.632142908893236 2.1750418599985064 11.428003192861045 -0.3213788962996723 -0.6979642625681592 1.0027765127584023
Ni 4.609865896100487 0.32957786746837076 5.855615884347984 0.48455524398226224 0.17389836208578438 0.17087371632684767
Ni 2.8652512834822588 1.6543759257586657 4.4629949679698795 -1.0698733064068995 0.12081690887977257 1.4481648567332155
Ni 3.479761082143849 4.388338659684653 4.65605495762006 -0.2682077115933317 0.4871273755848126 0.6269241680011978
Ni 3.769313285086587 2.9439916388745475 2.6754596239957773 -0.0960553856643765 -1.3655799947514482 -0.8532673781502595
Ni 5.290825672101461 4.581725482351203 2.4772294819780067 0.3110358625024514 1.1942085128525757 0.3274675256959135
Ni 5.06421841275709 4.937964366210639 10.994821080000168 1.371110180541058 -0.2436922429504706 0.5493447296538218
Ni 5.728681770215939 7.911316352656018 12.270744401566738 -0.04814982023234934 0.5028365587899534 -0.7336524599983881
Ni 2.1078635639596928 6.4678797302202025 0.3008229348164407 0.30979221990333744 0.9631547846017219 -0.6665525810260973
Ni 2.9134204614659103 1.672010342268651 0.0397771257694517 0.5705352476885078 0.46764329871827204 1.281758175038786
Ni 8.033209590989623 0.36018546081197983 6.794426881500565 0.20184779611085885 -1.2036665729416818 1.338648974688559
Ni 8.783468891241505 2.5770919900521836 1.2212047376782804 -0.19035496497991086 0.5448414424668293 -0.40345545118645354
Ni 7.106023470678346 1.0292508820528614 4.868396274439315 -1.058599276154977 -0.03138931294455884 -1.7255822598502732
Ni 0.7862910471095051 7.484212059341897 2.4251310246109226 0.7670487760706468 0.024380228616577366 -0.4411046289977951
Ni 7.437244607212309 4.1069891460942625 3.896739014340749 1.6258627950707483 -0.8569365994717306 -1.0389820161446817
Ni 7.97106579796063 4.203454957833965 12.271983453754146 0.6574837859556095 -0.41055889500045417 0.7778831476819894
Ni 8.054412769126824 7.651652528341201 8.787227926128946 0.15953875093000267 -0.24259309634902093 -0.3573463155332169
Ni 7.223801708360162 0.48169177983651223 0.4439848999701946 -1.3323304886696992 1.1096930095069986 -0.7532056995399674
Ni 2.1594740477981578 6.620398769864903 8.991613271555286 -0.46090649421507074 -0.19942144605755333 1.3826346362408897
Ni 0.4389349201880114 5.104248629274594 1.2666308853601977 -1.0213259936258154 -0.9095303144080465 -0.12021887028445748
Ni 6.107298246115407 2.35959781843445 6.9655417183385 2.162699107844914 -1.0089512741105462 -0.5078252702537963
Ni 3.316681421357392 4.195516284010162 13.365906305121403 0.9427312266400474 0.538100267088254 0.5774121773139991
Ni 5.932820397682846 5.767683236570496 4.594935362762142 0.2273297424320472 -0.13746788717289227 0.8592284808297008
Ni 5.543515844869221 3.047412894193821 9.292883211973502 -1.489955053296124 0.4822952443034919 -0.40141399527639254
P 0.4748118993220074 5.710701402323724 12.279378619748499 0.051614895962814336 -1.0288426137178344 1.3628607960480723
P 4.233206776705742 6.291389901380463 12.595238604513078 -1.0086604823430048 -0.7402581382403639 -0.7832076452186963
P 2.569553891513068 8.505560683505927 1.3389893481487178 -0.2795025677808606 0.1963708321566876 -0.468808779781283
P 6.386763235071019 7.900282324359631 5.539236062111686 0.5731181779243355 0.6655238826512667 1.0011420624787724
P 5.08513936739826 1.2510603419647266 12.77473456878472 -0.6141416715245488 -1.0674438710298004 -0.7038320342028459
P 4.16027476294142 6.287848451704478 8.101490379459701 0.9733507512981172 0.5343384860529765 -0.05634366889705135
P 4.895958585220926 1.3254763050791405 3.918245355136587 0.41784411580795777 -1.5563231963087134 -2.0519534671582145
P 0.13863364364003858 5.7017157703694865 3.5220254162718594 1.7000851440204334 -1.7607264118515742 -0.8859296442699709
Ni 0.5322052336339586 0.3468727053847462 4.52066415298924 0.27344067785749676 0.16756444944795656 0.259528695762095
Ni 1.939184953171356 6.398862429465325 4.801826124514528 1.056613870293832 0.6052870493473963 -1.4088652878026446
Ni 6.386845170924705 6.022321661859236 8.932732346299746 -1.4443164295214028 -1.0376023621883357 0.774951318747175
Ni -0.4011297172972705 2.5336659875985803 10.3252594916453 1.1873788915252517 0.3162647150015585 0.5625828256106504
Ni 2.5724398543595646 5.294958880720735 6.94622124403933 -1.2280385740281432 -0.33700991796870994 -0.685601113017116
Ni 0.841068806892123 8.75662124318371 8.82814760185813 0.41050335917217046 1.5483175523954171 0.16924492247417305
Ni 1.435024541457382 0.681717227448381 11.454786202634265 -0.7850536972884996 1.7118556542928 0.4239522855882247
Ni 4.295323257783506 6.946685547210218 1.312025169099015 0.8145293381501132 0.8327790283889207 1.002694494567557
Ni 5.755128842989046 8.17835440380258 7.775037909610266 -0.48574617896656985 0.411368278275627 0.2020599121216649
Ni 5.44812430321118 3.114682230070064 4.718641204258957 0.38726598591078465 0.9162439789827963 0.7001113908181491
Ni 0.6497595133157008 7.72784376828548 6.310237878923376 0.17278635996852823 -0.12079274051005648 1.7965673328095833
Ni 5.20556686434926 4.500854794763078 7.1233984236516585 -0.20940761073598774 1.5951036595110206 -0.24703776238393588
Ni 0.8491440404720699 7.420211053629354 11.22989322342868 1.0878779705144361 0.9107153358550831 -1.2684406319942736
Ni 4.544171549411766 0.49593496240226964 10.479891565916724 1.2557998033018114 0.26018072752379706 0.019772554641236915
Ni 8.364631015165932 7.2664811841468495 4.481516112496422 -1.5500980413346077 1.751792599697054 0.5319656149454258
Ni 7.339613485553515 6.394392373447564 6.765605489767311 0.3203555972414805 -0.5155581201216798 -0.03503282323441709
Ni 2.61624822413037 5.077482917070487 2.4195612073570203 -0.02187494569622039 1.5073256833640878 0.49159826687197267
Ni 2.7352919155524495 5.313230576092722 11.321273549849604 -1.8885675745679797 0.14683313043787616 -0.33268635089269155
Ni 1.0094679253795529 3.4713307931979296 3.92397449210599 -0.04581680122379851 0.08582445196498767 -0.9141834969093415
Ni 1.6013907403750236 1.2239577823621315 2.3148826918828527 0.3938384969219798 0.8456805669419372 1.2375020334338882
Ni 1.3734816113554196 3.258042662069413 8.446943773778932 -1.3334933986295485 0.7053793240853078 -1.5784418825846234
Ni 3.7681752871187255 2.6043857333133795 6.708070133308971 -0.8628352243443526 0.3291091750643945 0.4357863021086753
Ni 4.290598290220944 6.941022869322138 5.9645577954089495 -0.3899964974680703 0.3100549866464209 -0.08455124167951891
Ni 0.6263895870476924 0.23494468765611234 0.5241736991759777 0.44626509015281207 -0.8064614735403144 -0.48575569204826663
P 0.3146719148861307 5.946521893215903 7.979810174345681 -0.2298648501490751 0.11483112360998288 -0.29148853649814316
P 8.845294044839497 1.6808867264179725 8.335923423229463 1.0094675516253324 -0.32371448641138445 -1.2555532345086442
P 2.0643192097174317 3.294540532894674 10.476586819818055 0.365774391695912 -0.3629163534218266 0.6594072282305676
P 4.081152040231929 6.370585455959897 3.5750433759969757 -0.3968448878484714 -0.736111720172158 0.20613536774261917
P 6.980224623319039 4.178419002541006 10.354400433207928 1.1646647377571877 0.9822765930328374 -0.017756552652472644
P 6.33545318269607 8.040938873187342 10.049493451284425 -0.29287693220523753 0.23549042386596863 -0.12946584280402218
P 2.5656027625686515 8.61385257012765 5.591628578153666 -1.1457717575074267 -0.3762791478819778 -0.14998633135487716
P 7.149950192237808 4.154666708955797 1.4347259307906148 0.7368241728581504 -0.9061860805261619 -0.4258980964606859
Ni 5.445211028413454 3.030852747765498 0.5270678556078436 -0.22984659531662996 0.5206316779898453 -0.4646819020971029
Ni 1.7194056816341563 1.163962529496461 6.778357439795982 -1.135399156023851 0.8916830018139805 -0.137941227264885
Ni 6.941578212330454 1.2063779897546034 9.153720626878 -0.4767360050481596 -1.7599571377857173 -0.16209648435484986
Ni 2.6671577012206322 1.4541702192686878 9.117957447540793 1.1083110415578075 0.2559684892146624 0.5264529126573126
Ni 6.451192128019478 1.962181616105906 2.43087381755594 1.333831755805574 0.9061706539071942 1.023114967205438
Ni 4.396796260581802 7.018843722356394 10.3119349010392 -0.7672223255340336 1.3140545731786466 -0.5948298585698143
Ni 8.450882157146108 7.456299245186186 -0.02020811271410142 0.43245492374259714 -0.9689243400956474 0.3209068417592602
Ni 7.81206472189099 4.039510418591933 8.267714556230954 0.6283840403761758 -0.08451601756620929 -0.0007286506359084226
Ni 3.350775840474529 8.668494680552499 12.592959877382231 0.4659646254642685 -1.4449000699390147 -0.24964383254821523
Ni 0.40099133674437853 5.053320944216846 10.128121827676676 -0.2245964026612842 -0.31444180286020684 -0.16701320493017688
Ni 8.63993548355104 2.617340702179517 6.179269789594855 1.3688357826845845 0.022146454190052182 -0.07314891337984822
Ni 4.154703124890768 2.8601530525862384 11.400434509290815 -1.1711269484427638 -0.7272061901524122 -0.018456406932974668
Ni 1.2346640672437745 3.146127389918019 12.652667444361626 -0.9854375072593222 0.2759660153825118 -1.3220779577037554
Ni 2.9837851518147365 8.483064739677237 7.8191822163811855 1.8887951171977537 -0.2132382973359876 -0.7445806768751176
Ni 5.840833745944647 7.889139048258329 3.4964687131088077 -0.3791492703409212 0.9098198206240072 -1.3850931250837113
Ni 3.2021897218067594 8.55445818018901 3.42506161662142 0.45011146048209577 -0.7131260579102622 0.4543005588627789
Ni 3.4637016548213846 4.460096259546142 9.052746522388817 0.4260994138382146 -0.8257645447443005 0.5315881770013491
Ni 7.633380832969213 6.528066166744474 11.17920679394012 -0.5446054151966233 -1.2805626120687883 -0.24577637917300899
Ni 8.094470297595556 9.039964529213794 2.6403492002929325 -0.39151319122291284 -0.47844193199567275 -0.16835840610416167
Ni 4.77299107680566 0.5518234082015205 1.6901591338601099 -0.9017951505473178 -0.7186169058215043 -0.5810412894261542
Ni 6.193849819559099 5.497822950463637 0.05595854647407118 -0.494276070814452 0.995238552510144 -0.15071343932888884
Ni 8.043688276277695 8.910769895918389 11.013568003323536 0.5655923018609357 1.1879856718713155 0.4264195161817946
Ni 0.003720798155720706 5.15013270733878 5.628857498873483 0.855883732727184 -0.8259280669053581 1.2447144920219273
Ni 7.5096394859358 6.139753948158823 2.347501355235267 -1.1907017852508976 0.548259467009443 -0.6849362257396074
P 8.585967067923166 1.92592044885796 3.2579443390449896 -0.19841357361832926 -0.19702929167629293 1.7472654012506617
P 1.9358984150401715 3.2893421581774818 1.5120087383856664 -0.5427884165925426 -0.8324735813333599 -0.7756457737110384
P 4.787384475103175 1.2178854252056213 8.188313251618931 -0.8640367008516217 -0.9308964387886484 0.37261686853904213
P 8.65361877111661 1.4568194785378696 12.466789587486215 -0.2053164713857496 1.457605433320825 -1.2513129711750515
P 6.518852935196666 7.647100536469754 0.8680175091694631 0.08984977107429687 -0.7299881237729234 2.959427156147548
P 1.8565936126558233 3.4350241060312685 5.936549389423936 -0.24266817256133047 -0.6941055509437013 0.49101848310910273
P 7.1597551827289045 4.175751535304339 6.090288362890185 -1.5116117123339514 0.7551162862991189 -0.24313379934383933
P 2.63647727600708 8.615372935412713 10.225925014628212 -0.17779872558145507 -1.6120580279771721 -0.594167542395467
