# total energy = -340857.05888824724 ev
CRYSTAL
PRIMVEC
9.32304122003331 0.00000000000000 0.00000000000000
0.00000000000000 9.32304122003331 0.00000000000000
0.00000000000000 0.00000000000000 13.64521321296255
PRIMCOORD
 96 1
Ni 7.650823411264376 2.2293349852126263 13.0944521960587 -0.04151843095876075 -0.5714870700788157 0.2513505308266768
Ni 6.327445652113249 4.307403623533617 11.634113364756802 -0.17452159749208007 1.0513950450970537 -0.24851691803262366
Ni 8.94766779456012 3.378977867671881 11.450230357489177 -0.3017878615416222 -0.6338905720167018 -0.31304466540236414
Ni 4.181542564486647 5.415633556045713 3.4602216474387704 -0.4536675532644702 1.1687052263751485 -1.395493494481429
Ni 2.327749010345946 3.1458365711098386 8.324753444212433 -0.7668279183090924 -0.9261977477613983 0.42450301588537215
Ni 5.2401366245271825 0.7845609715462031 6.817776098252575 -0.7755046201474839 2.2804270933867175 0.9669895849667798
Ni 6.86498425074074 8.986871183692898 8.068005274493885 -2.3097060448564934 2.946449512940958 6.4430536530315425
Ni 5.412202676806507 7.459868877086596 3.3195528017188893 -0.2938693780254939 0.028394749092609167 0.03194518544802886
Ni 0.8738663852210864 0.5356758549535964 4.500150046270569 0.0027688209943887796 0.5549757026873539 -0.5935728462342615
Ni 2.272789681228769 1.4651625729278912 12.573013557643668 -0.6086387394284486 0.801488188695439 -1.8058657273923737
Ni 6.610260113312496 5.007573356532615 3.205902130007758 0.21838898829899162 0.2718563640895124 -0.5168395579372648
Ni 1.5112836587875476 8.788439570303586 0.18313250243404647 -0.14750598813518467 1.839527638421193 0.639533372124776
Ni 1.5648445316930915 5.91800564247134 3.847458833960653 -1.014053628334118 -1.9238415672789255 -0.755972206541511
Ni 5.345953144540745 7.644110821448537 7.050235880487481 -0.5982316851625117 -1.2083410955992158 0.7710028756223882
Ni -0.008966901228990779 6.014834750564809 12.249144151287442 -0.9575934884638605 -2.1937037837565443 -2.3807942190525706
Ni 3.7735755953876584 6.928073271968211 5.2751306604629455 0.4014664457808828 -0.744585561971124 0.3638332088091411
Ni 0.8816641770571518 2.1657611658317903 6.7113843465839595 -0.46275074651266107 0.5593715177622044 -0.3018074019256479
Ni 5.2780347878624365 7.662896749891474 -0.06517272098280312 -1.049997907639211 -0.7469244945169459 -0.6356741462796858
Ni 6.1624278191405555 6.283562096192205 9.145049633486567 -0.5314596218432847 -0.26198358506049074 1.5071341361785722
Ni 6.723889342028381 6.346045119727967 5.227181326182614 -0.17741177455568155 0.895802937519625 -0.8168962957203931
Ni 7.802210957694354 5.2034784256995765 0.8837282984255223 2.3789687358080576 0.9666712823954124 1.022005279081027
Ni 4.027059768308256 8.778958037188715 1.8405893305904626 0.2525139550071587 0.4545111322116882 -1.6553698033909299
Ni 0.6531648228135899 7.485675055711931 8.150053632734535 -0.07934655755012786 2.5202745086698015 0.020729519237867526
Ni 8.459289593292233 7.342379909226603 13.746597078141939 -1.8225269900981387 2.778264656300183 -1.6972163071130706
P 4.536647888785908 4.67377118185723 9.86529840077219 1.1611968338132455 1.586275005475797 -0.563601496683152
P 5.950934624734591 6.223204726098126 1.2236920711693628 -0.06012756141951581 -0.7654950584302818 2.3999947032404214
P 7.842626342210547 2.395816535686829 8.024627027417312 -0.4589935934630741 0.8324028759964245 -0.22181009816539865
P 4.846769538277643 8.455961267508547 9.446622054004516 0.8521294078910744 -1.5189239297246486 -1.4351607311640637
P 6.374825348563375 2.2873149797469305 11.014143230886674 0.07351375291843468 -0.1128716858907669 0.11868932101380851
P 2.1609970916708274 6.233646532478319 6.764136911799179 1.0638574392301228 0.6033805763533028 0.5659558558479414
P -0.08499350702234813 4.078243265654024 -0.24474475390203196 0.049721278484527266 -1.3251195727435565 1.0428047323248815
P 5.369885391842493 8.768003463530924 5.283931611554823 0.014765331234632638 -0.9177848411073549 -2.956313293108915
Ni 1.241819792888691 7.561862950121696 5.333777252458129 2.4290725944429847 2.438663837675845 1.155100233997204
Ni 4.9605759047803355 7.071750663151384 11.310148863378183 0.7640639824107099 0.083707662732301 -0.6331704060212257
Ni 1.59711157801617 9.087075232777108 10.681828081316324 -3.8225534293697585 0.9869166629080101 0.35470373570404723
Ni 7.674718366400478 1.505335558367402 5.612890466217253 0.19076659859603276 0.3374140953856641 0.6406029510398709
Ni -0.15329317609436263 2.7576158037191076 3.0884849495666282 -0.39617434414400804 -1.008923249086088 0.08028629575557786
Ni 7.707479533918335 8.128834390483357 6.535797913867885 0.12091101125547564 1.6810589806269176 -6.246145717424462
Ni 2.066265667894808 0.34317369590160884 7.952471348417755 0.11186638455470413 0.44266168907226994 -0.006320285791072986
Ni 6.219522124740824 3.8992222244821777 0.41108272953850716 -2.5458952945616993 -1.129376346868539 0.07864181817361938
Ni 3.1138492160290863 1.742206071493799 1.1147840306239494 -0.9765754288830021 -1.3795613966322047 0.12902412728091328
Ni 3.058181335764682 -0.1961959480589808 5.482892773696273 0.4434695296855459 1.902329918459395 0.6364359641463749
Ni 1.893230019308752 4.96998285356392 13.342344408741045 -2.1213354572964627 -1.665163392442584 1.0597660427695683
Ni 5.87657404644136 3.0404209418769432 5.9612794714841115 0.22179312888453412 -0.3749303471635672 -0.05405795818666819
Ni 0.7055239556812705 6.994686402848996 1.4965383364920892 0.8387054211756847 -1.1151815434253955 1.9918904404280469
Ni 6.3179454729155555 0.23869782924293087 13.795310901817961 1.4479242014773193 1.3917553675952352 0.9265494746738623
Ni 7.260542251721839 8.121264080857717 1.9004096934992756 -1.2607450631222286 -1.3486027434671612 -0.9356882037503369
Ni 1.3020186712787858 4.278548810366923 10.149910344355456 -0.9296497108657409 1.4725360864887282 -0.20838174057463468
Ni 3.2828666337670502 3.159550765025253 10.574562760667508 0.73000097928873 -2.0941478411380774 0.9119551217994551
Ni 6.927131644785711 2.668273097878581 3.5491336287661146 -0.8171174105922636 -0.39377421934294765 0.7636708607373494
Ni 4.215441143056632 3.884398588638868 7.38997496793332 -0.24888664266721655 0.05867565946433766 -0.6932928252344189
Ni 5.574647350349796 2.9022721142504246 8.947548459630061 1.6025318336542917 -0.1582701686302242 0.6689887012714156
Ni 3.126062400277348 5.556439450474334 11.320246649530315 -0.02700095406887608 -1.3685411342623013 -1.970262063524994
Ni 8.569180282402355 7.7149939052955085 10.282023434972565 -0.40308546944154444 -0.018781651482877332 0.498605037207109
Ni 5.336163951059315 2.007064354935678 1.9603531205547124 1.7907129309113354 -0.4029695126889705 -2.0571383537932637
Ni 5.980376789510172 0.16311313561244953 10.923812282656593 1.4651428793484509 -0.8957959955410895 0.4322764891832039
P 3.4665398726029286 6.213014641836026 13.282455055325794 3.8372544830253594 1.0421611852036117 -0.03348399069005846
P 3.7835978649043613 9.341221341637876 13.245954415898032 -0.7017432699946172 -1.4504888768807018 1.610366499207362
P 2.0127420871549075 0.4538372651446923 2.468637879843124 -0.15371725915221915 -0.21585825145733792 0.19836549398921322
P 1.2902623160596578 6.52808682631694 10.086814796998999 -1.4430779291286113 -0.7826075497408522 1.462957698771674
P 0.7569405290623104 4.400811175429291 5.968075036368506 -1.0423493899550178 -0.7480992315513374 -0.3552593510972011
P 7.051006896012162 6.632355721456297 12.055177342429804 -0.01164941131347026 -0.04374397785516983 -0.7433637737488811
P 7.816820163585213 6.806864410585273 8.041806595825152 1.2713215530864943 -1.8894988281329976 1.5260859946907266
P 8.687256601871233 5.747468568983401 2.8747868558669896 0.8202621268688325 -0.6120351667045072 0.03913758943141002
Ni 1.3643898183176175 4.135738462034961 2.1686335948904842 0.8766003964492451 0.43461413617744504 -0.9786834763649402
Ni 3.972044500942613 6.078939983306065 8.218389661668052 -0.8398446769864505 -0.5591815132385853 -0.5012278195419367
Ni 8.898106506419847 0.5631639102494546 8.736716268860128 1.82166155677405 0.3396985205444666 -1.523257524102996
Ni 3.623595828210725 3.4917773457021983 13.31622777283673 0.8675429142326673 0.8815153172523592 -0.0011138018894690496
Ni 2.9319100628956334 4.520556319310718 5.329561373132125 1.178449450246106 2.3090848663327264 1.940985940268696
Ni 2.7649530373094753 7.761301451983383 9.304753332855054 1.6063090413085368 0.3361683959040211 -0.4952314927491858
Ni 2.627289007836323 7.8180041898443955 3.3634764467179994 -0.20839691008328629 1.3248388082783442 0.5753673789698284
Ni 0.6312193156365038 1.847407270774244 0.6381211631929832 -0.6641748248225401 0.9068777072765478 0.3918350933387058
Ni 4.542306974922317 0.9358562198662127 3.668366005369944 -0.5400417070853409 -1.4261988939850856 2.247558881903787
Ni 7.159331314165254 4.653819873237932 7.355493699275155 -0.7041225688600712 0.6829937573012561 0.2912728209429113
Ni 0.5632645990966921 5.307113354022992 7.97396282347813 -0.4839163248466828 -2.8339838042393577 0.4833424546210838
Ni 1.7031238818993621 2.9692022285391797 4.558674506423269 -1.685158861727904 -1.4874883369231866 -1.658589595879808
Ni 8.150799476047405 1.1342039258828263 10.687326811140464 1.038639030982966 0.0021594695451640227 1.7242267742636435
Ni 2.9438249098187463 6.339425760326238 1.6271233806219552 0.32487662504028564 -0.3317684670641125 0.19933068611595994
Ni 8.911438455637414 6.506056479463015 6.022601776364219 -0.08579179895483935 -4.80722526210765 -0.021643032191072404
Ni 7.856265951794674 4.135132464343253 5.283426302710352 1.7770819703914622 -0.26353833114212033 -1.41826164141588
Ni 9.209430828253584 9.315741469461924 2.1622883329062352 0.7589549433189188 1.3505323563897065 -0.6576516789920416
Ni 8.933403541201464 7.7272909969164685 3.719494496771387 -0.8718297145334791 -1.2302155270748039 0.7429169160194495
Ni 3.68295563287384 0.04000983221482005 11.134917638539862 0.5395817367297868 0.028442314501092948 -0.7394292145811652
Ni 7.037786823291524 0.008022477134067962 3.7548083130275436 -0.3120185381306949 0.8859571550737968 1.1613593275330385
Ni 4.545812438492811 3.358243423574069 4.053774943471151 0.4779418524308027 -2.0008895586028634 0.3484994066655482
Ni 4.871699351010353 1.624586581054053 12.593917681095158 1.1162634636356648 2.5053505403701175 -0.2863252471296488
Ni 1.8945259220648651 7.169801089669679 12.394534185177795 -0.6031481486275225 1.9967547104988839 -1.6025148643734273
Ni 7.847036140797897 4.323896083789475 9.545563763281692 0.4249745562051519 -0.5718197708278862 0.08297258433848935
P 8.761514626708946 9.207510281722943 12.498538305941082 0.18303452005909768 0.22036102442369793 0.20066714553919635
P 3.870553872143701 3.4496651676492234 2.0071156316634378 -1.0691217729528555 2.9083434500978558 -0.2149581082405717
P 4.021904126408035 1.424309005465386 8.711704413363002 -1.4943004747490134 -0.06267269643887272 -0.08407790158752616
P 1.1829354633375306 2.0431538482372202 10.366296270893853 -0.10134183087429645 -0.4215904702242675 0.20163233766594307
P 3.3243261989212636 2.135936756358364 5.713633387095012 0.9342273029340942 -0.5724278367255303 0.2663917414305154
P 5.168414466953232 5.209762155610514 5.915227376130896 -0.8879122219176386 -0.6468571594796988 0.182683307367266
P -0.09427459474688579 0.2480954549851046 6.462536522156997 2.055843032020608 -0.6797012025929132 0.46659377440783517
P 7.561322213719864 1.39248946513003 1.899646136407724 0.0016462773541713583 -0.2486860966206362 -0.8290918093453205
