# total energy = -381170.059065935 ev
CRYSTAL
PRIMVEC
9.23092067759200 0.00000000000000 0.00000000000000
0.00000000000000 9.23092067759200 0.00000000000000
0.00000000000000 0.00000000000000 13.51038548741331
PRIMCOORD
 96 1
Ni 9.026704997275939 5.802944422353262 5.784322886116082 -0.14804180603399664 -1.552494309480926 -1.2626469081306317
Ni 2.0550337108026424 3.4202776447453718 10.906745375946974 0.6900228962338955 0.089304182983472 -0.4324022161277908
Ni 3.9964624811051257 0.048595258695786334 8.846276499062713 0.7534337563903734 -0.5838864721844331 0.03103501492893365
Ni 4.068685204309258 4.886535543414944 5.641977474156813 1.4836586787644515 2.5744119139441537 -0.4349121270338381
Ni 5.564325123423455 1.6679258222177145 3.8676717530355487 -2.435501895008096 1.029301298521808 0.5958580427240124
Ni 2.110354618287607 3.7495261226652308 6.3296155234120635 -1.4345284968967038 1.1179094838795198 0.5510429432918509
Ni 7.196388818896786 2.6131074808374337 2.221648136255774 1.1841963800322122 1.9138379190989943 0.22245133129382333
Ni 6.654155308705846 6.059776327735236 10.149177564178276 0.14249567940478686 1.7652389550099468 0.5662188797013409
Ni 5.294099152171184 0.9038732886889306 12.055289755147081 0.23985924235762562 -0.7598694847133881 0.1654682290405602
Ni 5.531804589956155 6.516651514630086 12.541785120239455 0.0997271780890089 -1.3977182700468895 -0.2474895052093738
Ni 0.2698041181783397 2.10325604030397 7.370644600468064 0.6608935829681069 1.2105825833352248 0.6732343639216469
Ni 7.601358538948993 8.975805700784683 10.686011908878148 -0.07204205346891464 -0.6918908026805697 0.7708488665430273
Ni 2.0063682971098786 9.18374141945752 3.6204455436870897 -0.28423519736983954 -0.5314429096727363 1.084496712747029
Ni 2.906364599123741 5.801172085587516 3.112360901366978 -0.8304760912873568 -0.6788113437887923 -1.186709633372369
Ni 9.177427469729551 1.3557360856681564 0.7919520681162289 -3.024135652069527 -0.044093647885104705 -0.7007590517044769
Ni 4.835414704827969 7.4015644922938 6.755084348962663 0.17575418434760054 0.42771792327824404 -0.48804345964117885
Ni 5.198937591139564 3.374713820392663 13.38419801611583 -0.9074047834246114 0.1889611699561778 0.10283744158321644
Ni 6.34543639832254 4.895951082482967 1.276893869262378 -0.5160715694229886 -1.1050033173408131 0.7191745780971872
Ni 9.18801533572075 3.0144032944689814 11.887409770472159 -1.1574746477666518 -0.6208867035578662 -0.3408655442693742
Ni 1.1404063995507248 7.752422555466839 11.16713026268903 -1.7334809458720597 -0.10467783722606488 -1.0634365496426201
Ni 1.658897981817198 6.899116250125586 4.8373938142163855 -0.6860610833726701 -0.3468060781235253 0.203023818696831
Ni 1.9689184520128489 1.4369220328282204 8.990242860688985 -0.7107457306035436 0.03226708756382185 2.195529524111374
Ni 2.265618703703443 7.850722629521134 8.440532304767556 -0.764549920908193 -0.14939703451031044 0.9474553715885939
Ni 7.51160629742116 0.9803237735530181 3.8565392627257093 2.983327359803914 -0.7329999140160537 1.3433191264707187
P 2.6464126425604024 4.056149614059869 8.721372911680925 0.8301973837046733 -3.94116484595778 -1.9296599737329154
Ni 3.7550923678201507 5.3259919830339495 0.6100613920712624 0.6898076948992958 0.07415935692223358 0.9204186791857761
P 2.7640699572280742 3.790871416278639 12.967511488476324 0.42817506542032063 0.623501515472894 0.15787036208864424
Ni 8.81029529344188 8.715198348854845 13.00774537924288 1.92864953019053 -0.4106740804220798 -0.5918826030160322
P 8.917835519071755 0.03761046311642577 2.532008304331526 2.090464735859535 -0.4660648984875586 0.19980839708332684
P 3.850041617676707 1.5598778959518194 2.6049510393467425 -1.995195850652196 1.9532675858495263 0.8361746843340309
P 3.6528137669635834 7.308618352219362 4.8579695363562125 2.048137950066866 0.0944229922672761 -0.22406521274816252
Ni 7.846568715226417 3.9690466467599985 7.157072481643331 -1.2429525150254983 -0.5632798516776751 -1.4272090804171549
Ni 3.03173896345893 5.832197209908719 7.453571499263647 -1.0752451122417739 -0.2444430050735661 -0.9376062467086562
Ni 3.130934436816753 1.8550181220517312 7.146886160700621 0.8659447165076117 0.051137956326395805 -0.35122220491335
Ni 6.9190735005815345 8.556934214226159 2.309465576814336 1.3274605621719073 -0.24759903420404453 -1.9456041557669976
Ni 8.702921224383795 4.423780260062906 2.8773878160958666 1.4242291718532245 -0.24397634984979272 -0.0032588732569298713
Ni 6.652706054163023 8.431966010399787 13.236434976824185 -1.406095181256675 0.6293908843741354 0.29650630142770873
Ni 4.465300941168758 2.288095995498185 9.223972540947878 -0.098445740273424 1.4600158425345309 0.7447704242884206
Ni 2.4250828580172694 3.245019385190969 1.718629423191086 1.3776574947412725 0.7281659829625201 -0.31895228913605067
Ni 7.787047738843461 6.44543496177734 0.7167366804357702 1.6915591088272932 1.216769428872227 -0.871635596244802
Ni 8.97568569881617 6.7176271191291095 9.52582180017979 0.42147297080979673 0.1972252097371829 1.0436794216203509
Ni 2.844702049148843 0.9941239999321307 11.384458443128253 1.3150333921521482 -0.18358550746656124 -0.35755997420591973
Ni 8.951832999843843 3.7758711702143866 0.5209903924877616 -1.1851865118596234 -0.4380283040653166 0.9842841103811695
Ni 6.662527753739863 7.948625773987267 8.47025494618435 -0.9524872775855469 1.7068427744592412 0.6943109820862882
Ni 0.43345726428537124 7.689975377236272 6.807518747558833 -0.47561423273889053 0.07427711344702047 0.34816207793078746
Ni 1.9164868226928757 0.26505388640931543 1.3983386306747656 -0.3294143650096391 -0.4439302713720483 -0.40515057950068933
Ni 7.798974088329626 6.249296359701498 7.694636992167009 -0.574186728398166 -0.5393107424565874 -0.34816182082047137
Ni 0.5068929304635603 5.428639820716715 11.837826803266296 -0.8076544654071509 0.26112380816335673 -0.019792095025262687
Ni 0.7315347693376802 2.217894843917482 2.7083456585104897 -1.6525387617000378 -0.3388639404583132 1.2722918874195634
Ni 3.9697574276504275 2.8416096907294435 5.133135896342999 1.1528631171365693 -1.722561727856395 -0.9200679807145768
Ni 7.38572423244995 8.611322798724975 6.1835685122701705 0.3848902865897565 -0.45161015651480935 0.24275841828229158
Ni 8.890068909741741 3.4451088213071195 5.107236702261476 1.158171159613044 -1.1912136918903098 -0.21743922279121264
Ni 4.613854147268463 8.848686692445712 2.77231778483325 -2.060820430630541 -0.14218611858416805 -0.16439427925009106
Ni 6.1179495897025715 2.767919251141178 11.328417523832204 2.8077868341290158 -0.6700965896236136 -1.003456312434246
Ni 0.4645857749179088 4.802644936502986 8.07406290858291 1.334194024240999 -0.1218476641371321 0.44651088761503105
Ni 5.595147167490248 0.5629015415373168 6.970993736897225 -1.126439118617086 0.5088177160740527 -0.2647986859117827
P 5.9344481180033215 0.7385908850863049 9.769643645990712 -0.26415822411430634 0.5054508564843488 -0.2124178583172213
Ni 7.237844883558053 1.8039065143854125 8.075522317138454 0.18584087915964123 -0.5341466817571445 1.6930755454718198
P 3.162679572949039 7.640645337256354 1.4897635150252722 0.03488858434706894 -1.0927939197588148 0.38193403217490995
Ni 1.7128896367278534 1.9584967425934388 13.177408777788333 0.3574417034605005 0.4105563238972929 -1.1818348217785712
P 7.075380680031377 2.221273360877184 0.019123698320807795 1.1283481627143406 0.7434437350571971 -1.5130209339766523
P 1.512864817056287 0.21511091329791004 7.1457239877901655 0.7761558805782376 1.2262660555087526 -0.3966955067548007
P 3.1263005146479803 8.09918208986909 11.167603808918628 1.1139538416658816 -0.2596281974544367 -1.246739492871756
Ni 6.459585963141341 3.9836776559980542 8.987648971984951 -2.250323074912486 -0.04467317453765855 -0.42101377178519106
Ni 8.765839179567763 7.883713939941835 4.3930505252026615 -0.43307533093541545 0.39878864183840357 -0.8897420760375256
Ni 7.25416515127596 4.823451431659187 12.475503417568833 0.12632704006472437 -0.3576862153711388 -0.221532933244612
Ni 1.2812056323002934 5.372885059960969 0.6207711062151061 0.7833017475943994 -0.6158126314690684 -0.11604931228780015
Ni 6.689140497988011 3.9270644196214004 4.4617368827038915 -0.7533939042913734 -0.9274416474708285 -0.6643658577874235
Ni 4.777250673781288 3.8902699698908703 2.7942310673759763 -0.41627831398273474 -0.9193935803553714 -0.32143623190016896
Ni 4.114516725360959 8.355284752519324 13.0007335719134 0.05302283205393449 -0.3608990658814817 1.2182619542573534
Ni 3.8304628349676118 1.2905750167650418 0.4982269421527169 -2.9235024172264814 0.7297898917191883 -1.9858959134075087
Ni 9.02903118928098 -0.08452661734508128 8.828725749621503 0.4517477105339381 0.08897996687483387 -0.7543279860698686
Ni 0.036956913934057097 0.8860077648533891 5.506900489121233 0.06422435719670874 -1.199904020575456 -0.8882788612284378
Ni 1.761684283309786 7.561074801210902 13.386359897733213 -0.3763138577746551 0.2815977597469924 0.406507607749216
Ni 3.4820694276094386 0.08673834593400127 5.682238134593268 -0.21484138015704934 -0.24547376033092558 -0.32594080463874187
Ni 7.424124862374437 6.206317193132168 3.0360941118239237 -0.660983571578752 0.9074850018432437 1.0001151638761552
Ni 1.9476134871412825 2.115976248966456 4.628523003281204 -0.31540262411157943 -0.013893213042324461 0.31085074307483884
Ni 5.084538791463081 6.0646502538410365 3.678216337513871 0.7141974365975701 -0.6700361686993235 0.1350281673831481
Ni 5.098172861270405 4.5908691548377005 11.037012128229273 -2.117101878831089 1.4349082488336256 -0.1651463269247672
Ni 5.346124620982341 7.063971262101889 1.4245212140203944 -0.15073709347797265 -0.395870439750344 -0.5090316318570717
Ni 0.5561306612369294 0.8192995936485092 11.018949062691716 -0.44906862103987827 0.6360927218743432 0.18943630982038343
Ni 2.1090069038719883 5.665440628277501 9.61667898291002 -1.5384082637015053 3.153356725852595 2.8010109488577632
Ni 5.244796804953232 7.984534055334924 10.592696531977515 0.24549047250147402 1.2442871746765216 1.5277333004861624
Ni 0.6856460165779179 6.750489196660642 2.3342025979854033 -0.35424916466513184 1.1195735018455042 0.5679780284842928
Ni 2.809929171041741 5.968916375728811 11.91593054601968 0.9451748030845336 -0.3824497954690639 -0.31857253719912876
Ni 6.59834516242617 5.775547049849444 5.693924480142403 -0.5687863833182011 1.157229364525065 0.3697462318594665
Ni 5.325271971222866 3.123420467403644 7.097977973794633 0.061928104963364324 0.4497769599608124 -1.0562999385978389
Ni 6.033551282154594 8.032350224327434 4.268133091439891 0.5259926851914425 -0.0601617570915609 2.860743074611073
P 7.1561512357619685 2.0618184374840123 5.8645202016740035 -0.059707443162961685 -0.15257388957639528 -0.3443362764267941
Ni 5.729780145242328 1.2342387080080357 1.2903082431581145 2.056783027336374 -1.746840140787785 0.6310093938141649
P 7.981598622566658 6.999336355676105 11.84745926896971 -0.2907709416058283 -0.7392605502137849 -0.20269163216839287
Ni 8.11529927733259 4.381216484923048 10.26429914494204 2.623849599749991 -0.8904907812780921 0.04004853128145361
P 1.4163647725297026 4.618312681944793 4.3360366668695836 -0.522026501454843 0.049646716492849984 -0.1319317878460115
P 9.209966465038162 2.4452524196482806 9.531941900574006 -0.4852509844977062 0.05739190765590761 0.44570561810491627
P 5.367974210172548 5.505570313454858 7.722927917790223 1.7455970124093034 -1.5496920641454408 -1.790233677282072
Ni 4.407773843647266 6.5170392132975925 9.173565252527531 -0.8529246500988601 0.29626487484086395 1.1779928223246616
