# total energy = -340892.29612107377 ev
CRYSTAL
PRIMVEC
9.07573314071451 0.00000000000000 0.00000000000000
0.00000000000000 9.07573314071451 0.00000000000000
0.00000000000000 0.00000000000000 13.28325284060364
PRIMCOORD
 96 1
Ni 6.573744066358224 1.9699241697801362 11.432430514672745 -0.8084399374229239 0.7367287849308667 0.3329426898778718
Ni 4.596405022644825 0.4087247320649767 6.2335910356430215 -0.35860332786876953 -0.8226072300622415 -1.3017569867582162
Ni 2.776321206154977 1.6519195580939836 4.594876669192731 0.9701271021544968 -1.0057844463467904 1.606309298418853
Ni 3.4269060568673306 4.417104839749434 4.677869710420049 0.10566951171537284 -0.3898751413988576 0.19739747364898907
Ni 5.1808187034093 4.822762881603823 2.467151820630429 -0.2178068905432765 -0.5752802185726609 -0.3630485081243167
Ni 7.451213168548706 6.16687895200307 2.5066031247926066 -0.3173579480657373 -0.7424546316710503 0.07761157713689215
Ni 5.006337734783875 4.485681078965752 11.394746255742888 1.3206795346943319 1.2907884035618544 -0.14690049334070182
Ni 5.680818990718114 7.955116021085553 12.621919690150857 -0.7563738128553039 0.16827278836889084 -1.287998242411227
Ni 1.7237721369552315 6.633698359140516 0.4030487685914609 0.9605152900963456 0.5123375563018532 0.09326702428596195
Ni 2.69457607822732 1.6054608804142148 0.4391229924714266 0.04685398423906124 0.16434285718686534 0.609817333117582
Ni 0.3469879653041135 -0.09236282806783319 4.752788071918576 1.4469775212933336 1.40247738199843 -0.037309277973419624
Ni 8.909329522271957 2.4885024827210045 1.4238717976339161 -1.3701125925144793 -0.32871991004577583 -0.2082328737015962
Ni 7.056264491738686 0.5346695877066876 4.958850776545185 -1.133271825268203 0.13045546041080114 -0.8707143699821133
Ni 0.5745728633766698 7.474456120988223 2.528187940796864 0.9228648267334235 -0.36983030693284047 0.21035017715491516
Ni 7.252645204306537 3.974717306086092 3.9644263323371 1.776636141103295 -1.1720636013244201 -0.7795679915835799
Ni 7.93185491717986 4.186735506765341 12.572240034797998 -0.4676978061052913 -2.4423307450044707 0.6398249352232659
Ni 7.733250650005337 8.716887677864491 7.1145370511796875 0.5192952185666089 -0.25278237817719695 0.07465198028793595
Ni 6.9352577424704 0.8458773828829012 0.38902494582319 -0.6906726140027524 0.07487206671854203 -0.19381849804847912
Ni 1.692651448194941 6.482088237897981 9.264962123342817 1.6880109864647188 0.6784979263134314 0.21516199672126168
Ni 9.331396489550261 4.888634552359784 1.2596291635055694 -0.9559258709534505 0.4015291806980182 0.5590012789069791
Ni 6.473575200261016 1.7393642464011863 6.997816770649076 -0.12089378486429503 1.1660755020617852 1.0652563764601781
Ni 3.549428453561388 4.31872389307065 0.48312668435076994 -1.055144741947473 0.5991719375885939 0.1771019566247466
Ni 5.810057429897624 5.591595458725575 4.572427843398453 0.6201976479106416 0.6726571512619383 2.6691385534947774
Ni 5.118541022956365 2.763442740902468 9.56641259787564 0.4557072094023184 -0.2413204002841844 -0.6582507460286212
P 0.16918164807508038 5.810983154672645 12.437494440780418 2.539945504736168 -0.13428846100364616 -0.12903312614197776
P 4.063741171950685 6.224292039520597 12.684510483395343 -0.24169989511079018 -0.4322538634753846 0.11326789288792107
P 2.330993134970978 8.623008294797579 1.5118465087534845 0.19308881897130617 -1.2201049210033632 -0.48586239282946003
P 6.29927574629736 7.52677772224313 5.821970237149521 -1.0067781777186275 1.1075335399618345 -0.2799543106062985
P 4.599490771894898 1.0465409338951923 12.826362376421178 1.8775866500764438 1.097451473135484 -0.3339904144160958
P 3.934239536511611 6.24223476383646 8.288245341963606 0.039861612081628126 -0.4535978763687994 -0.37243123489079727
P 4.842511676804288 0.9775744381560709 3.8532322656840448 0.17769562434468752 0.3644993816382303 -0.08324357861168889
P 0.19087174258316383 5.502081503274206 3.6866208652196133 0.503223766926043 -0.13807338196737512 -0.16425441123811713
Ni 1.4022824437631145 1.1074935573172136 2.558912020021189 -0.1686959919492385 -0.13980039196081087 0.7146442943270014
Ni 1.8047821305027243 6.389497608929628 5.005089821484213 -0.4448759231147693 0.6629018716473873 -1.6598185831909027
Ni 6.040381384216273 5.495674035713762 9.264855937265684 -0.4727723924147212 -0.350232587306571 -0.3364563594580851
Ni 8.732389029979561 2.152564222452077 10.167480248857418 0.33519780446063563 0.9442690034408124 -0.4829488187270909
Ni 2.3615511282797845 5.204624351300302 6.942465689689246 -0.6257957108237093 -0.3538583569846164 1.0586452989015638
Ni 0.6507364154549311 -0.15260028372248466 9.258015557236918 -1.3103182460646658 0.29422984668870616 -0.7559053578593176
Ni 1.5885800168697002 1.0756831128422009 11.312296850927567 -0.1445168235998737 -0.09323694237897491 1.472171246950142
Ni 4.09272906343519 6.7702518391893145 1.5589622695088567 0.20009404664454572 1.2207839493482588 -0.45481503660535216
Ni 5.728139863041285 7.826503807489146 8.259035095018433 -1.2708744382467467 -1.2870559331026157 -1.7572438526196124
Ni 5.146920840323944 2.6908096489956135 5.258958950154225 -0.26994192067561895 0.20865350617878262 -1.3328449664122721
Ni 0.6751546753294022 7.581204893574557 6.884324728378027 0.4610864714363608 -0.6880243777466281 0.5310130212241694
Ni 4.96085016054457 4.719544569188897 6.979419352105482 -0.18394366213692837 -0.13436148033342668 0.3191224961653278
Ni 8.085153124776845 7.006357035485307 9.042135632128534 0.6965979783482519 1.040382496036634 0.3518217861705618
Ni 4.4928146051732725 0.3464806318244692 10.689777797217932 -0.02826208016948681 -0.29241824740126415 -0.35870822887775
Ni 8.15099756833354 7.146186855179034 4.656351147267338 -0.40349581750608576 -0.6127476193904995 0.31387513172345943
Ni 7.384270561288309 6.074642276625167 6.891723265991729 -0.6666914205968066 0.05390857709299748 0.16708005361237033
Ni 2.3080950603888217 5.456684686365786 2.5783985265353975 -0.6207188105214342 -0.671690930693927 0.4168956358517594
Ni 2.4475255478266584 5.386774314385465 11.448224105393264 -1.3667657875294332 -0.5035870638027328 0.4522678447034662
Ni 1.2754490738520443 3.1071226014958424 3.796194005943071 -1.6827381681015534 2.175837444999085 0.01074695410385891
Ni 4.003342168247059 2.823623927011971 2.688437252366293 -1.4943369844139038 -0.6026629814609878 -0.23719429393095282
Ni 1.0428198833289284 3.1778497894541227 8.120530332355617 -0.0012277017595140147 0.543618882913638 0.5235275114804016
Ni 3.612976736646705 2.6262902624698317 7.168771816969639 0.1253099116541197 -0.19308136277213844 0.49162320657263714
Ni 3.9173495972340078 6.860646140750263 6.057083455818945 1.4600322975947628 0.8524739357146867 -0.18893314493171978
Ni 1.009357655431818 7.734158223314182 11.544514910741777 -0.5226597641634676 -0.6411431398140571 -0.18006463879749635
P 0.2816662839733131 5.607940854017872 8.024134248503278 -0.29712825128242376 -1.128425038698863 -1.5178353246461602
P 8.472015323405058 1.486850124681279 8.07746597885093 0.6795924449291909 0.3106234575553812 -0.4559154687583826
P 1.867785869602735 3.4397119162551317 10.421549043655377 -0.7913477578273274 -1.378822461583651 0.09602993174307978
P 4.057460764653478 6.326384961032556 3.7350516996995013 -1.7722616661846833 0.010603486547459157 -0.00994322725564094
P 7.103140653140523 4.042676395452395 10.518503285092654 -1.184478172938689 -1.278472819419295 -0.7816716681901441
P 6.370184448917409 7.525761240137224 10.230017495276682 -1.0414317632367547 1.2967371649461217 1.1400099153229852
P 2.392345090648891 8.468121833910113 5.728535565003941 -0.5080669539509572 0.8125138503819813 0.6081905961474365
P 6.989149445549608 4.129041071522074 1.5251960045532837 1.579924380667421 -0.8417786607843697 0.045386655664915385
Ni 5.554802436785004 3.2927848732862364 0.14461363860464985 0.402866668562519 -1.9549886823056912 0.2636432321511008
Ni 1.53007784138156 1.0820905804026457 6.980654559378819 -0.1570275544723747 -0.5846092092830706 -0.4263264422473561
Ni 6.713746324980634 0.6154526879269692 9.18412093843077 1.5144489246724306 0.6015656346317511 1.9390609553318414
Ni 2.5735874804252106 1.4756778972493987 9.269385635650128 1.1378617586317308 0.995728347662369 -0.5523158964670037
Ni 6.298295567123807 2.0604001529388807 2.561609327895076 1.145872287641033 0.13642787594415215 -0.0772955885583701
Ni 4.218545951240354 6.665073168427283 10.530285401788081 0.47913073053258126 1.7190578284681943 -0.859618517179268
Ni 8.148492666001129 7.265777790085522 0.34957817952755676 0.8010570146952913 0.5880915114047163 -0.312456654109378
Ni 7.75517762114703 4.0215934674879295 8.04595866386107 -0.25262914042878426 -1.09908283809132 1.0190387402535352
Ni 3.1979162353126824 8.408494267519005 12.723854693907077 -0.06950077510429965 -0.5522058532517006 -0.3310483010686363
Ni 0.06650243420560757 4.835450756461475 10.230163614579407 0.6728283867324799 -0.5872746719303757 -0.03817265441497942
Ni 8.619151108234988 2.4156061945545844 5.970902109557654 0.21305266368774273 -1.2446404442508823 -0.6992955797850731
Ni 3.647981839168852 2.7739070611534498 11.659720451419927 -0.8197918721006334 -1.4281053669791792 -0.0060492915178734525
Ni 1.2757758002432287 3.2499655645749357 12.591035878024174 -0.6539258934010221 0.2796966860695376 -0.09155749779402296
Ni 3.3161095073235494 8.472160535134472 8.076364184853992 -1.2128598094051757 -1.2956539591842717 -0.5179788137480306
Ni 5.840433908544661 7.795020089405319 3.58715536843676 -0.7985244780814248 1.0528101802770256 -0.4898283194557434
Ni 3.1654160351229477 8.531116497277036 3.6365827184097603 0.009293766597100125 -1.1825539593327827 0.1292562978963774
Ni 3.311916518636686 4.262100394331819 9.15934781739254 0.7040678043627357 0.7296631363333369 -0.4248588565628941
Ni 7.474683014315435 6.153555775829228 11.399076287999387 -1.321417441301621 0.6138971596139104 -0.34523461987134735
Ni 0.5061672479424146 0.1541985203193605 0.3428031447770298 0.05776677449682309 -0.12824251191988237 -0.06218547238980903
Ni 4.550418283085656 0.17209586596978121 1.7050116890880993 0.5072370018504941 0.5714950404986158 -0.6559408669485219
Ni 6.149299257010745 5.7095073830107 0.23349683060637183 -0.628170381703473 0.3377794491448828 0.08109825013391195
Ni 7.701304069533998 8.795801177068553 11.433240977637542 0.7953113704607657 -0.6354124079778669 -0.19408769254946576
Ni -0.05676326502839332 4.654326351215304 5.906305579300621 1.136253019383714 1.2524630256190947 -0.9032457669509155
Ni 7.887610718373671 -0.07113922624049601 2.4198899405723324 0.0841745750663905 0.4471750035615911 0.7338044121952201
P 8.452547875930335 1.773870183603468 3.675463158960674 -0.028394749092609167 -0.36868616602606824 -0.060296482897212296
P 1.8421923022933095 3.397618666190907 1.6144730833710441 1.088261836216416 -0.39972143806531807 -0.0749178323548129
P 4.806054456987989 0.8657713898127806 8.389795534636875 -0.4854566727506091 2.0963787873511253 -0.5366283105284178
P 8.581132862327475 1.5336083015529665 12.27608978838883 0.4213613849325969 0.854567842129238 1.029721673888678
P 6.351579196086089 7.773492450519519 1.3303572590371588 -0.3852895789107042 0.3786592180783801 1.4917599677153468
P 1.8922358945430158 3.283146444746304 5.987997160403056 -0.27611848179997606 -0.7439666974402026 -0.2646727018568797
P 6.731834261025911 3.917068249508266 6.082148815462623 0.8683785227600852 -0.06156352253509397 0.2007234526984285
P 2.5258763515792357 8.39226685675686 10.087913296870989 0.12123599869506217 0.5287897883206054 1.8884192219155733
