# total energy = -340852.27842307865 ev
CRYSTAL
PRIMVEC
9.53937696544403 0.00000000000000 0.00000000000000
0.00000000000000 9.53937696544403 0.00000000000000
0.00000000000000 0.00000000000000 13.96184244392457
PRIMCOORD
 96 1
Ni 2.296128041810652 3.4081713751967553 11.310223054854132 -1.769447850884972 0.9064035958536067 -0.4274266172900703
Ni 4.03382095454945 3.953394467135633 2.4535287161051267 -2.4238056896170903 -3.156183396668113 -4.027770913283799
Ni 3.163867930449058 0.9200872198782722 7.024160939962508 -2.6497174686556884 -2.0446404784365693 3.213820587565607
Ni 2.2293810210023883 0.5322686179846654 3.4209722651814074 1.0319976144070484 -1.5997326736425999 -0.34943863065036596
Ni 2.229485954149293 5.652071327979932 6.632600994412905 -0.21603462913420216 -0.28717962471014413 0.8458248058292852
Ni 4.235607396046835 8.263990905711232 4.081995762293313 1.2229310775982487 3.0006409113816965 -1.7375193776074915
Ni 3.4995681461505894 2.920623356547397 13.16340634301374 -0.9476682589303485 -1.5918159898986843 0.17300130419281173
Ni 0.7593859211448015 7.482258040026566 3.2830853404603766 0.19976263144705597 0.04100652431934873 -1.3873587811894363
Ni 5.479628010107846 8.279015424472561 7.602600142585161 0.46462225250376105 0.2984418278875247 1.070688088998711
Ni 5.021451733214761 0.4702979632359553 6.043523478569534 2.1748483416129387 -0.9178023246088516 0.30514829337342286
Ni 6.178654477277772 7.584033653146955 3.0419499228114963 1.091798645725081 1.5444454710345208 1.4212960573668296
Ni 9.228965664022159 9.301741571088938 9.935246827393984 -0.5129803320921745 -1.4432383659658758 0.9086291427500157
Ni 9.32192689280257 0.7002055341660522 4.02547876937054 -1.8571324959871498 -0.06799153754862484 -0.4828236060031362
Ni 7.876558648585774 6.088879400412462 12.985491238499433 -0.8145262528263197 -1.0910594535662113 1.0263064775595423
Ni 4.175318533461694 4.866312845204929 -0.02320167271828778 0.18232926646195696 1.3289137496786663 1.1197627350381747
Ni 5.000207540655092 6.480804704100832 12.266512210414461 1.4753732988272075 -0.3501580253148937 0.25977834987905585
Ni 8.386333415624907 3.1616166374791064 5.224857006987573 -0.1797566206387743 -0.07849320841089708 -0.4263125582902851
Ni 6.67776422084061 4.361307766661454 0.644834220419937 1.0687402212437207 0.7312255957244505 0.2527736364264485
Ni 3.201739257104597 4.1166036680801215 8.904499972603304 -0.11806942804162245 1.0581344207034165 0.84600246905773
Ni 7.136283915305382 8.34174636756748 12.82934117652852 -1.3499186340651073 -0.24585839736385404 -0.8247451023408505
Ni 4.641355256995627 2.787129314930869 10.647314576848741 -0.1873064079615742 -1.0885647121688158 -0.2798722924154535
Ni 4.800815482782528 7.16734412678912 5.790353182908404 1.1320760051878889 -2.2727844892397955 0.7167184032472108
Ni 9.198372882010997 7.033783309533653 11.404423448705716 0.389407971954452 0.7024372107378484 -0.7459266493800508
Ni 0.025603687844702083 8.175179305922047 0.024205215177774613 -0.9092045556375116 -1.3887847150026855 0.4493308735623293
P 1.0219439177030885 1.6647548362631666 12.575585163120124 1.0631257032704207 0.7427929888470756 0.7724648048798954
P 4.594936648555866 8.129285363216807 13.55905772735492 -1.133497568125764 -0.16384277762199523 0.05179898694916241
P 8.369019446385662 9.50082836889778 8.091739329316672 -3.165731445367864 -0.5581936954040192 -1.0089484458970688
P 1.2775038273005435 8.514113370423635 4.990912371714749 1.0733599794039193 1.417147325305779 1.272768827055982
P 5.038527218029223 4.948876153064801 3.710862484695223 1.7429158660327142 1.8250294448050182 4.748863020118673
P 4.153129942579885 1.1164982224410493 9.127819649783197 -0.11257986568196096 -0.47187044942574213 0.3951615866087775
P 4.420566376531533 0.7060131068783677 4.137676151853947 0.6941734280671593 2.0724508157806176 -2.4596553523258478
P 8.322858401124666 2.8832766956263804 2.9208170059003207 0.22668516686951284 -1.152226254883519 0.06682117138960751
Ni 2.2476489279407654 6.880371048759248 13.429700913539527 0.2147341651552237 -0.6165453958700349 0.5536235595348337
Ni 7.855428928550001 7.122213334243186 8.68465739833675 0.7575552347579148 0.7475582714462029 -0.1609592854266131
Ni 0.2532618736802459 2.1912235130371096 0.6513353058395214 -1.430156078860621 0.950932531503917 -1.224375523354259
Ni 2.9231322126961135 1.044752568089334 11.347012616158855 0.06567188827651271 -0.4918157821994175 -0.44758046653012595
Ni 0.27758823894581025 0.2903719580518778 1.7989414366492642 0.9219680259507669 -0.7892782768928084 0.0005972672643667134
Ni 5.137154836742478 1.394828624916784 12.57416093413532 1.3967924157985105 -0.5404150312643596 0.43878626527726367
Ni 3.3569449207533686 2.154859407946199 5.216744720794155 1.4571997132419743 -2.0150321686518327 -0.6804802468507829
Ni 6.1979907944391766 1.0779877575270915 8.286954094004736 1.3425768489880556 0.052562347477748184 -1.3896756022480712
Ni 8.234676400216907 3.6273099434413516 12.718107271121236 -0.04784745850058211 -1.2268736071857644 -1.536272448305425
Ni 1.9438006920132505 3.8115820887826746 1.024362149770388 1.0857910060784204 1.1955254318917863 -0.23992969058424485
Ni 7.186985704014247 1.671957065891613 1.320294610670506 -0.7778576937606926 1.9677724643339207 1.7447192377900402
Ni 0.859785956103043 9.226065693416798 7.95174420228056 1.8967688794318494 -0.1757528987960199 -1.5773003127810126
Ni 8.509648941991697 4.965818086601384 3.5367297431579745 -0.5915910399175424 0.8503260361337485 -1.0282186069805905
Ni 1.0609981271055513 6.796481767497584 9.190298753325544 -0.3037005051833027 -0.05221344877876169 -0.39952372023221516
Ni 2.0023724667399536 9.314629269404211 13.414719321974658 0.7282171479154298 0.9535709975680287 -0.08473790376902826
Ni 9.223575916022064 4.689128456968157 10.278387757148746 -0.4237782219042056 -0.98969602542536 -1.3688072434394942
Ni 0.7619672765586526 1.774152411599621 10.455339384586928 -0.7578550253865206 -0.029640191463936046 -0.19327728083302842
Ni 5.551459518852484 4.107646193085273 8.970065064602345 1.3120712242000308 1.01934393019878 0.3618411180797768
Ni 1.2708358027836109 1.2757581213111318 5.5144247955590835 -0.011635527356399316 0.2272546662197377 1.532967038081276
Ni 3.180094410711293 8.169875412314871 1.6994218861873216 0.36689924932897455 -0.07975227762897877 -0.5534800919784338
Ni 7.765424906636899 4.635345449491096 8.247637551735012 0.7090092075284112 0.26517303853206586 -1.0152057396606904
Ni 1.112758786660452 5.444389551501911 4.447893829798566 -0.6672987151635024 1.487313244797903 -0.7538621021770436
Ni 4.751725848785196 4.940576895082352 6.8326321905438885 -1.0670466355913817 -0.5080841803421379 -0.38215283305393544
Ni 9.092419021768409 7.573816980389252 6.142163498472876 2.0088550933068436 2.7320925286194946 -0.519163320974435
P 7.96673437928472 0.2878926739718338 0.11522041105195589 1.2347141862761057 -1.6666443478634843 0.05198642036962014
P 6.636725821023952 4.275377058723647 6.228336506586263 1.3304564115754376 -0.443095691285895 -0.021241168766963418
P 0.8234714557724871 5.202194309069296 11.890826742116115 1.2271165764345058 0.2706500024862371 2.4921777504335854
P 2.2153009005632005 1.577526773054539 1.3330363565178116 0.04879465290519983 -0.7820048831598467 -0.26534170289944625
P 3.875782095934256 4.823690908807713 11.104369976945348 1.8765324977803164 -1.969586377614208 0.24800655405510835
P 7.2080581877880725 5.593776195185978 10.313808417855213 -0.7048087962938185 0.26978765448594183 -0.0425260462876687
P 1.5000574925080319 8.382097932240761 11.012124201439285 -0.13617205117960418 0.3837479454551972 0.5796685774483435
P 1.0916195272476876 3.6950013625717566 5.360509809617237 -0.8536913530615556 -2.522206178474876 0.939479295361653
Ni 7.424840529915812 9.45045091900662 5.961106123177628 0.43768326202107205 -0.8890507063974561 1.7424060162758315
Ni 9.403564881094283 4.533760623910533 0.3496229364203628 0.6559382958453607 1.7705084309390027 0.743867709968493
Ni 1.7180227173826959 2.752196116388656 3.14275442735417 -0.9823308433095405 0.8890221671523657 0.8568471250817179
Ni 3.12463247288376 4.06996565396956 4.599310452906386 0.4283187900870365 3.8421182388755635 0.06266652579128562
Ni 8.26701488821748 8.159725515196108 2.1615302942762287 -0.928934172855955 -0.14940166249600076 -0.3350000866275327
Ni 3.038138941703464 6.641180710078898 11.06403367527525 -1.7657251506177463 1.9536743343696417 -0.9124909396982672
Ni 2.2820002244865076 3.101518562433792 7.085802486205018 -1.2976092831384298 0.3447124288192902 0.1968778537000932
Ni 6.274763700465317 3.072089584415571 3.8019349168313528 -0.2825927766704101 0.38822552161057655 0.08346135104944981
Ni 5.263170006797811 5.968435226520059 2.022666537351287 -0.6155208112602626 0.3487392905904962 -2.563218616331495
Ni 3.118842071050029 6.599035742531249 4.038546761910949 -1.941630001610598 -3.481198604168792 -0.9351521287412089
Ni 9.104705739333228 0.10169834416676021 12.179613255712036 0.0025824160151955524 0.4648798770405219 0.14531952200682716
Ni 5.7324787366397665 9.224033806117648 0.9361486689185573 1.2563577326878106 -0.43816791496697444 0.26138246114138214
Ni 4.709495026844624 2.5319414410360754 7.407092519023462 -0.1961029232072816 1.3884075341689248 -0.47475214184891135
Ni 6.14105025317799 9.398346841880032 10.109923313419737 1.6828921771809147 0.5595340114819977 0.39591029184934395
Ni 7.950927631610103 2.477805476610336 9.35602634979574 -0.2690433201207496 -0.6016494525948091 0.9284847440233622
Ni 7.183446595150467 6.545767861411719 6.049387333606098 -2.2144844679473215 -1.3555205536329171 0.6437756923408978
Ni 6.734199175121257 0.5949633114470168 4.019712215979288 -0.8700122017087661 0.3233175080832819 -1.9848854698651237
Ni 2.788665154626471 7.998681752828649 6.600139448449144 -0.6774527728783687 0.7684399999912186 0.20670152465873434
Ni 8.851731000900422 1.6545190847514806 6.945960943138466 0.7808520005023262 0.775867145693225 0.48839441522269433
Ni 5.638067522556675 7.19619120281087 9.771530131593558 -0.6534618092804101 -1.4865282870027623 0.3478365762705687
Ni 4.601556976187841 8.877744881955751 11.524258056408373 -1.5389859905818464 -1.135701003534986 0.7797330564065346
Ni 5.9470288645515375 4.005183744821508 12.243404977528389 -0.3617968951054027 0.38836641806381506 -0.04306032152458391
Ni 2.8307815040431477 8.517652479287415 9.30230057858063 1.532204963104271 0.7044766097653803 -0.47673420527594673
Ni 4.299349513102833 1.1923267301450498 1.8977493495876545 -0.15176502052185478 0.618552913218367 0.76528397086074
P 4.1267058683139295 6.528806849121152 8.111173902061088 -0.7269429091886964 1.0445836786021752 0.048940177344128616
P 8.183392709511573 6.078367006968027 1.387077881111337 -0.6195337890743976 0.03236504659426684 -0.48558394235709273
P 9.476016449343357 6.002977310605627 7.392823518919847 0.5005493054176734 -1.2398401946487614 1.612063427293811
P 5.189430622654909 2.8570911057852078 0.6037195055873491 -0.11392043887025542 -0.3941727403329469 0.07798001621990441
P 0.4596234003826685 2.7415501716663435 8.647979447742825 0.4498826323007413 0.9515848203759354 -1.2257317802718375
P 8.123218319450327 7.13937467345057 4.182381488186067 -0.2585195377712903 -0.20207122497557456 -0.6732539043056728
P 7.058013327091604 2.059580110556898 11.543553354248715 -0.4904019325710264 0.3360434402903825 -0.8644444778130015
P 2.413739020736633 6.13331381843803 1.7163991154187732 0.13444941206154265 -0.693740711405115 -0.23252645614163822
