# total energy = -381165.4101018198 ev
CRYSTAL
PRIMVEC
9.29994351588304 0.00000000000000 0.00000000000000
0.00000000000000 9.29994351588304 0.00000000000000
0.00000000000000 0.00000000000000 13.61140738819450
PRIMCOORD
 96 1
Ni 7.591285417112854 6.916385729346146 4.572314109303939 0.2944118807925252 0.8037404750647256 -0.8162365506492072
Ni -0.035385109733393844 1.3981497297488439 4.541914197164709 0.8073099375835386 -0.8102746766388175 -0.5952247800153878
Ni 4.722003410984046 7.2404468900743595 4.558459083997801 -0.20951174041401982 -0.09645930597101451 -0.8764911245648905
Ni 2.089082260666848 3.4135406037150555 6.5053191135063155 -0.44376134989435184 0.6952856872947316 1.0539864599733137
Ni 3.5188686419393673 0.13799250784878586 12.398250771902845 1.6536517922585585 0.19757333710522101 -0.26417802160864823
Ni 3.589211691995841 2.672690808954271 1.2534717408233569 0.6362089357372334 0.22526283260068947 -0.07851454856713574
Ni 8.254181457912884 8.952137101624912 2.8252602397589386 1.737533775785195 -0.21537462695270004 -0.4334435129081116
Ni 4.5853838144277965 9.270723405500412 10.073167671564958 0.6327407746829748 0.3885775056333566 0.1789788619324853
Ni 5.4174221533946465 1.6033496030307959 13.243766399033523 -0.1650303701721932 1.2383348137478287 0.6036284306980507
Ni 4.724428390169233 4.476315712152484 7.789160920571238 -0.8402323993431724 1.732541978997558 0.7442443765816215
Ni 6.390631588311482 7.737259837218113 9.809217081416028 0.05370417439167524 1.4400008328651845 0.8490376563396281
Ni 6.1180359473673604 5.300314312436136 3.3345441087046703 0.4692870049692821 0.45699764607896776 0.4065418034212611
Ni 7.054003298105529 0.7552159310644156 10.057660862359986 -1.3766352241243454 1.2826364638786814 -0.015508637158560388
Ni 1.3132568045812456 9.06564478117772 12.359919312459448 -1.1760069022428843 0.6208594498643566 -0.5984556282478597
Ni 0.0743442657120331 6.116375769309809 9.173581537394714 -0.32699187161107557 -0.30838916890822377 -0.20044860177048704
Ni 6.904195545519069 1.277236536838193 4.861301676855625 1.338129097629347 4.748827538895047 -3.4803208295495285
Ni 6.18736237153466 8.109232990539818 7.615837398678574 -1.8373383440793583 -1.1534017632488587 -1.7018975146388235
Ni 8.69108809233949 6.962525621765845 6.9474263956008455 1.8988645856186135 -0.4953590194659856 -0.36894816143820325
Ni 3.6327680488990146 1.9166009526988856 10.78519285797258 -0.19276485997298415 0.6929094737530712 -0.8450940983108477
Ni 2.431433360557186 9.346429390293359 0.989965108402178 0.2602601746114808 0.41779192241378366 1.3739111403249629
Ni 6.233138517076582 5.041401150202283 0.8707801795031243 1.673154123957544 -1.2603755955979519 1.7126943481440118
Ni 2.368896878108412 5.637022672299404 11.71375935877442 -2.2886921616089877 -2.2734205801618974 1.8733831535180576
Ni 7.649400975970171 5.289019505538975 7.721917180450293 -1.713740530020339 -2.365544749092668 0.9032262265668897
Ni 3.682246951119857 9.089390923506517 7.78264985145901 -0.5189720308992353 -0.45058994278041115 -0.16093228884341962
P 2.3835213679636955 1.3441939428784244 6.042530489699343 0.3472958732757503 -1.4104362318341903 0.3661826828779242
Ni 5.639289095153252 3.2964607432856043 11.471908723161267 0.06962933026236395 -0.5531173093223765 -0.3311460029887652
P 7.697331622249702 6.824590940343783 1.9310118578490125 -0.5858135140038169 0.3495391607839722 1.1730820152866055
Ni 0.22941888655186005 1.373470903118052 9.94614726184484 -1.1192521139503433 -0.5134122774232706 -1.2950430650731504
P 7.863349428004837 1.8955222874737954 8.527817974538031 1.0144616624058143 0.8480071581925848 0.39889971349497105
P 7.140742938191078 4.453203795149045 12.388681430964374 -0.13012455943394363 -0.15123871570473954 0.7292448178489958
P 5.876284176290219 5.850336899008713 9.168244717818697 -0.15789581600994096 -1.9332944851617089 -0.4423685833118833
Ni 7.279768860246475 6.44857926399444 11.376912961634456 0.7756560581236834 -1.4113083500264985 0.2908406185014991
Ni 8.519558122359562 8.597334666302938 10.938846067936167 1.0467292641902681 -0.6504531043610733 0.22423104890206544
Ni 4.125701029346469 1.9039071193487318 7.5975586517280735 0.33554181806361566 1.733989510077362 0.48837127529424273
Ni 3.257745017909786 3.530667098359606 12.38483131016574 0.8491006483670795 0.06513941281181039 1.2351780132864019
Ni 0.6553291730579435 7.742314986134928 0.8438983525510201 -1.494051077742369 1.1837379523385547 3.859381396831385
Ni 8.428696017659195 9.04663667510306 13.336782071787198 0.04560057144793437 0.5489981449476803 -0.549221573812396
Ni 0.7741587492379371 7.486591604213898 4.815489156625926 -0.55366032631004 1.3752465713069346 -0.4058159809988301
Ni 0.899095542227395 3.493686165785498 4.262018436188871 -0.7430493278322557 0.9996289682683558 0.18307025839303956
Ni 8.61793766253401 8.865201597835943 5.927495073259866 -1.657045648431456 1.1281995529516184 -1.6746026834786127
Ni 3.6642088367192707 5.3354112227202135 3.124895331302201 -0.15134387382403613 -1.0613644976049397 0.17488026638307946
Ni 8.138873697657223 8.788021971845845 8.400702431019113 1.7494778355209484 0.668605606900384 0.3758867975395655
Ni 1.8153394180312725 1.8562376246737597 2.6488784460400323 -2.2670702124638376 0.7384131146118251 -0.32264285061376047
Ni 6.402541966847959 1.2137860237734632 7.0860913688313705 0.09396662145614784 0.8997184705239473 1.9959047037937627
Ni 2.1337298582033557 5.039685011086612 8.260399664154285 0.7246944794741519 -0.2924503861907802 0.4520277036682021
Ni 0.9410784607131024 0.20043012576154892 7.17341580197427 0.7377202023098585 -1.1780488723735776 0.13266892312235215
Ni 9.50591840593453 1.3228634528917955 0.7256115986347877 1.0476391775990475 0.10295057012231301 0.7166384419388948
Ni 5.011163525131601 5.464550691174462 12.847374638001284 -2.1872037778544975 0.7290730681578217 -2.239824232263691
Ni 2.0819192452275255 7.249120854082914 7.702465116647883 -2.991916129914189 0.8285961006558246 0.6145494484859287
Ni 1.9641585252576181 5.604658527020172 5.582908329097646 0.1742878842147192 0.49455889216219345 0.17127866507475017
Ni 3.701049866648079 0.8667108778935194 3.1458079787215367 1.9071602499685023 -1.420900621700624 -0.3594625905452712
Ni 7.745635342250029 4.335321826219878 10.091896905033321 -1.074899041756265 0.2389030490919434 0.22710194269195727
Ni 7.772058288525553 1.9428653426430689 12.414863744689983 -0.2677351428322873 -0.6736369986767043 -1.7522600262517756
Ni 4.02179067126119 7.184373909838412 9.081084437112949 0.717680510050164 -1.2928583987170057 0.5090514293514137
Ni 8.993259152499878 2.4349402535326883 6.852144299993324 0.047701162730704946 -0.8542562244260902 -1.9427939400117122
Ni 2.5092192313435815 7.15951787319024 2.3237987940540403 0.047481333410415 1.8866762710825378 1.6923119278329175
P -0.02767554129310197 4.576327449855424 6.2465141426514945 0.17757066873104904 0.2319934664563037 -0.18475587362557858
Ni 5.3891431653581545 3.021188298394757 3.597908040427644 0.24862439014476537 -0.7094910322608362 -0.8876710524411099
P 2.2552679495963432 1.6834205503570792 13.321561596662939 0.8250222672616372 -0.06679288925483336 0.14078126781684142
Ni 2.730312045131531 8.299034245995829 5.537328979943444 0.15877873283552654 1.2855073576685732 -0.2085249510207183
P 1.2409644443336019 9.070280222158637 3.0890616004195475 -0.013895527035169617 -0.42648199398861386 -0.12847956763135293
P 4.89415827944631 7.7057071272816176 12.65952642347365 0.3870155604628754 -0.2888744959140638 0.017184739309402664
P 5.891561545156899 1.3268460148613148 2.0018044617390482 -0.6734053422818725 0.9542767653858016 0.24098692820416562
Ni 6.025793469900041 2.9025322014949344 8.921807140808331 -0.41066019646500884 -0.17171986637722683 0.5399802577197862
Ni 3.1504117084361845 2.678398836882481 4.543469914580437 0.642172866630152 -0.19731699812004083 -0.9400829903839228
Ni 5.112173235037675 6.821559716362299 1.8737469070751147 -0.6148327840543024 0.7241550620309141 -0.14906716197471745
Ni 7.110785118410994 7.328249790264182 13.477781553825617 -0.84463438506561 -1.601183290046197 1.092392827665654
Ni 2.6973603087420424 7.229291985822497 13.609251800350549 2.044917900467672 -0.8794720615700853 -0.6492377438967335
Ni 4.566114556748577 0.6647399576650745 5.5260528267323235 -0.5804923589012196 0.10969585926594656 -0.4828323477538846
Ni 3.2250917404969357 7.371647590836016 11.201896617733672 1.5843929579617357 3.471120136886867 -0.7345903984316252
Ni 2.208372582892027 9.34810822203695 9.93970427868666 -0.4823996310918401 -1.1941691749742078 0.03235887594667975
Ni 0.18964456449327705 3.6439975678950356 8.722396438988863 0.26620687911321894 0.1419107534355943 0.15700004366854897
Ni 6.054044477407473 5.976883505103415 6.037466013939509 -0.1087761756651546 -1.218555317128056 0.33525436873018394
Ni 1.4819141069110278 5.467525954097826 1.180017255935427 -0.032743255869292 1.0039556206681677 0.7796045012484702
Ni 6.492247543013852 9.24057904885993 12.07390794051543 -1.5150410497304747 -1.1854145687100295 -0.10067257272141372
Ni 5.552773299300183 8.873978157117717 0.756863051541739 -0.5982995622859696 0.24716091822536143 0.47683113586512726
Ni 7.759896085227536 2.427814545465445 2.7379367393003413 -0.5103742619278953 -0.5517924198633658 0.3799439983280747
Ni 1.9144930861763767 3.9301171312180867 10.421181097852708 -0.8131404282223867 -1.2814010488096834 -1.4438022088891456
Ni 0.6326705406252734 5.7980972512539655 3.4209395882827827 -0.7058765754367005 -1.1180069286893328 -1.0039052270462065
Ni 4.024924490515893 6.91952887544387 6.838411456330747 1.6768202599552215 -1.668888406702655 -1.371961729908076
Ni -0.07452893720382812 4.5697147181542785 12.059506362208321 0.5533219691340148 -0.15551497448259022 -0.5829151094100993
Ni 0.8898610349533409 2.268381490882395 11.795159381231045 0.18811373435421797 0.2340945719597065 0.8437578959979275
Ni 0.4762248738615136 6.89643561212647 12.594780411913451 -1.2596420598660372 -1.5139262193997411 -2.328402335714416
Ni 8.183549275722791 3.222592146567589 0.4619706596741218 -1.5576378013550787 -1.2465191493308336 0.09280036906218857
Ni 4.109882703584631 4.783812399677264 10.370645464317704 0.8883503378963216 0.19213365414688846 -1.1526173196743503
Ni 1.2558314321074042 3.5085997877744006 0.1745332134323517 0.0211807478426732 -0.4576905583809343 0.5252002711971343
Ni 7.621075353718578 4.0489784186643485 4.707128961735827 0.4183621930949569 -0.3246241427098474 0.7734467091771906
Ni 5.288506529172877 3.218880063045648 6.019187266989009 1.213980296162864 -0.5496640606664533 -0.9305989621528876
P 0.12162669640167703 3.6734703918380824 2.198648416359426 1.1243992053689216 0.44486332470927903 0.3242685591426415
Ni 8.620801003341136 5.265935569064595 0.6798755585178518 0.15645394135709184 3.2417491956550752 0.3005393338465018
P 3.433565335678891 4.961544720265459 0.7962036753998943 1.7327530665670996 -0.6220033336608126 -0.4546414871419654
Ni 1.9334265775068782 1.758576251411848 8.31649036539197 0.4599839824008014 1.7016231779315145 1.1524926211710282
P 3.92753359570156 4.618400838718425 5.193916485317436 0.3524324231713672 1.1545595310023857 0.4613027012122249
P 0.9872276799758223 7.385031610569646 10.498813075729274 1.4051019641054705 1.0023558802812158 0.5876670222727879
P 6.4947005027281 8.96569833137592 5.685358103566 -1.3271229763268306 -5.839700073261433 0.04093299076893595
Ni 6.047515687293507 8.755667153409634 3.2044243890490254 -1.193325853137306 0.19269338330510039 0.4804931580977467
