# total energy = -381164.88104516926 ev
CRYSTAL
PRIMVEC
9.29673064406108 0.00000000000000 0.00000000000000
0.00000000000000 9.29673064406108 0.00000000000000
0.00000000000000 0.00000000000000 13.60670502552308
PRIMCOORD
 96 1
Ni 6.418741791069882 8.099042198149183 1.7926151405817474 0.6527056478406759 0.20564840080387167 -0.13042255029033667
Ni 7.680094324979168 6.759736577151965 5.211830912257428 -1.481224615401662 -1.0730625027681584 -0.3072853943210837
Ni 3.369693016802847 7.441967864314852 4.334823819777991 -0.3544530531458218 1.0524746513144778 0.11936269293174927
Ni 2.3322429455561435 3.478706481226591 13.020527842960636 -0.255739661033308 0.660096026767476 1.4207725807631917
Ni 9.102326783999565 4.397632532522901 4.828787942801462 0.9677832845126687 0.158211804588463 -1.0105875241623887
Ni 8.925103206282541 5.763880079146932 1.6437577476378535 -0.24185544685204802 0.7316297731414045 -1.4928259470860161
Ni 9.103414501493816 4.0348555063636535 -0.10884705294385424 -0.4317784665008629 0.4231778693160454 -0.3845503867518345
Ni 5.752491584014825 0.70851128556243 7.5765668613533474 -1.1292339077534037 2.1474450098993207 -0.6417656038894044
Ni 4.0139378622434565 1.6464881974503431 9.204418832402203 -1.427205223762413 -1.649375276370392 -0.5389770132662525
Ni 2.122220501858651 2.612567266958936 10.901814997602672 1.4140889980954292 -2.203236148727012 0.04820869849474278
Ni 4.566860921820649 4.376584734172623 7.406564984059687 0.9892676796386899 0.7983658410163734 -1.1852412763569586
Ni 1.652010455498075 7.0479910098589915 2.5505497059983058 -0.26341826062448825 -1.3709651703227614 -0.6839723191644415
Ni 0.6749240568168986 0.985025806716131 1.689068153821415 -2.8539250232479754 2.2701496227201097 1.0881625916343904
Ni 3.51168198509074 1.5980708238601282 12.91707661252672 -1.0547493062812674 -0.7038076087228138 -0.3332293678803551
Ni 5.61461177070521 1.7865620392098986 13.229636418028344 2.6589991510679303 0.6794109250460041 -0.13519143243388973
Ni 1.9159539373720738 0.8259643221338691 7.737806569943326 0.04893169270369638 0.05330308229851465 0.7215628758237056
Ni 8.313750194129598 5.556562984088985 11.361149728366891 -0.315745866383611 1.2566840056789776 0.5029921105312112
Ni 8.53320881950798 7.396822939938108 3.174743362621832 -0.7744139581864663 0.43847361913285127 0.7889257786493961
Ni 8.033425872726806 2.672559070295659 11.592450529336519 -0.8548185246874633 -0.58870291973647 0.29110981300248573
Ni 9.001912795491902 8.974403769291163 6.769757523195146 0.32776757343483554 1.3818897876550653 1.111445730532047
Ni 7.256293558373268 5.065518964184693 3.4336247746187434 0.5052346267084848 0.4260994138382146 -1.158171159613044
Ni 0.7379261415607863 7.509741031264288 5.083791688415024 0.5177124474605213 -1.147477941565256 1.0494669748364056
Ni 3.647739639179218 5.634107015025233 2.9075627591110984 1.310536275612743 -0.033046646042323734 0.057899957640577704
Ni 5.047213701396841 6.583321815007587 12.851342218624197 1.2451232974245716 -1.328209781633106 -0.4492583684531811
P 5.644073110357166 2.7934351631182346 9.469259448790693 1.4523195023315374 0.7969887581631887 0.3483644237495807
Ni 4.681266490062044 4.185137158453865 0.20443975690008 -0.8144012972126814 -0.4233388203739419 0.9472357993786202
P 1.5998279059662248 0.4125442850500184 5.567795294144995 -0.685527065246071 -0.1774889076505201 -0.8918071860966706
Ni 6.400222703475468 9.17855997590428 11.632372550394718 1.357921706875242 -1.724309306675121 1.1637167720216215
P 2.780559191070914 2.8686643081051812 7.223173955182957 -0.5638005000678354 -1.1577896079039092 2.1635306026072736
P 5.997274503874723 9.268180460045922 3.519428950799789 -0.6248323184691754 0.739912581975487 1.14484641747968
P 3.2693812923331045 7.974428819577132 12.868528155033351 -1.0803508088994556 0.04061108865314296 -0.9086291427500157
Ni 0.06495439819510603 5.513351779702019 8.949116661732527 0.5352214028785621 -2.084648386288074 0.9538435345031249
Ni 8.376438049375148 4.06538597004842 6.930017356367228 -1.007123219762872 0.765032002750934 1.6868899854863981
Ni 6.687631133686968 5.930589054419538 7.851640389245436 1.5497506852975182 -0.12825691009758555 -1.6941253268925727
Ni 0.9557875886014563 3.07088679472852 8.945918586364817 0.2969655004523144 0.991471372158228 -0.835999077988115
Ni 3.794367676096435 8.049332578988876 2.1700242912213397 0.6677802827856112 0.5918226963123743 -0.7449228907058849
Ni 4.190008645351191 2.989503214004876 3.4956441949255175 2.754415617596727 -0.9410168150521019 -1.9625335845324847
Ni 7.798339443007958 9.090519935985053 4.857947138705016 -0.8998400837034761 0.36285181873247835 -1.533637067565107
Ni 3.1585177784960634 5.980335860502724 6.0527118388316765 0.28391818035005295 -1.074365280739982 -1.3128824072474163
Ni 1.3322586991113918 5.522443982346264 12.8676431062688 -0.11020108103713924 1.3860140942360841 -0.10042394704571737
Ni 5.235760697130932 4.567679034124017 4.259524949310643 0.8291781984115396 1.7056040169561335 2.6296353531938323
Ni 2.0757461449889347 -0.11850914518124099 11.40991665903218 -0.9014125703969185 -0.048604391271264674 0.031489843078165124
Ni 5.100790760536704 1.4099328842777215 2.004254285751463 -0.8812144981824888 -0.9950863432029959 -1.3122812833283077
Ni 7.531727799417294 3.752560278048202 9.323600131214507 0.6192046878697529 0.5651647274052138 0.974166305220877
Ni 9.000304461077327 3.678521114593427 2.4529080025913723 0.8718042606121825 -1.9920989568944272 0.8613090175078134
Ni 9.4447346731511 1.7326874846869924 4.068568240973906 -0.9562601143644176 -0.23832686487349922 0.16414899600850438
Ni 0.6894883151629874 2.552361638815651 6.255219735088122 1.3451996313228833 -0.6112959745456374 0.1333214691046865
Ni 5.472064998574112 8.446563289196767 9.196159616830478 -0.29069046607688 -1.199711702058992 1.4374940072829308
Ni 5.651547681856116 6.955609396693484 3.6180635450476273 -0.09925280955575165 -0.1687677257274384 0.6579594400404475
Ni 6.934756829688328 3.442281890265288 1.4193969561507704 -2.290746215924539 1.4785136442284021 -1.0322259283677708
Ni 1.0630997513034242 7.576956394370519 8.29769566984908 0.3535793922916169 2.2211377115977813 1.2240446223774017
Ni 4.512633091530381 3.1518799127619213 11.283046963914366 0.5203056621089942 -0.03135048928682342 0.13891259003921883
Ni 3.9450676810690504 7.087399851381441 10.708572223181866 -0.48667768964190383 0.6804967019110151 -0.3301209041583605
Ni 6.610524049094563 4.495861789311343 12.581480437973791 0.18219942575231202 0.0744113250320396 0.06699446374267816
Ni 7.722385153024844 0.22869771636800384 -0.03890309937127736 0.5827351321888092 0.9009199470312163 0.8053900948530065
Ni 2.1767086406090828 2.725141379248473 3.543104005251563 -4.58545244493809 0.287077294804325 -0.7362898976212352
P 3.2600194844979766 8.179523995992978 8.751233889009324 0.3898532870219866 0.8490929350575956 0.445571149409581
Ni 3.360266131852678 0.7623374970855916 3.6131650976312133 0.8844183498317671 -1.3968284112427685 0.4158024027875807
P 6.444475141703084 6.720076723900072 11.169975476531304 0.002353587833841108 0.5092607171487423 -0.01322241222754497
Ni 4.715682987187808 1.6916981989421276 5.345734513838061 0.830164473584209 0.041918751720972966 1.0988588950059721
P 0.42472858033176486 0.3649236412825152 9.480444345520027 -0.127453954580316 -0.625079401482975 0.28898351068810235
P 9.179870814935814 8.280644536035368 1.420540454029341 -0.12498955220022345 -0.10563968691870193 -0.9882451519114462
P 6.283827634859975 5.601503380389887 1.2684933527753852 0.09863780167957205 0.3841714061458609 -0.5158892782088536
Ni 8.621174485581447 1.7827596763453828 8.32153434676153 -1.1387678153857677 -0.7675318863546523 -1.5153773500239707
Ni 5.509038096647899 5.567375081916446 9.52097902113268 -1.9165977412323183 -1.1597212777089834 2.563561087272579
Ni 5.075271234710065 8.722006826971514 0.05524954099640688 0.022478897828806448 2.04058662008217 -0.038035871726799016
Ni 0.663461187839031 1.544038224914981 12.692947309634567 0.05553068607745275 0.4573696847064058 0.5372080942912878
Ni 0.7356186929960606 7.712809520383155 13.128007346815565 0.24259978121724024 0.7602487224296778 0.07922982946660549
Ni 3.2364801623147157 6.2413136852770155 0.5542636481470293 -1.1603751092428982 -0.039270258354532364 0.5285936131493993
Ni 1.875513158739694 4.6895219869414815 1.8657246309645141 -1.1022581504955082 -1.0563130512239614 -1.918610400786973
Ni 2.2983563620814254 0.25435111511701275 0.6456895573945121 2.2306682767960355 -2.083528156640702 -0.7878988800467785
Ni 3.0325749674310405 5.03429124569592 11.300450443822369 0.07127200807210951 -0.27245028891976947 -0.07007901620527286
Ni 1.326187933951175 8.989585330557066 3.49784844977925 -0.46251214813929376 1.3286507258252664 -0.1140579928893842
Ni 6.877386704414669 2.149264691523385 3.21310074389984 1.0422522022555214 -0.6131253144448925 2.4823628212256925
Ni 7.490738513672429 7.143440544162128 13.58170918843648 0.13325179220901567 -1.2526448026125976 -1.0881327668377194
Ni 7.677881703067787 1.9253901190529625 5.877130993432891 0.6168544424700215 -0.3001500688278831 -0.9023193984819042
Ni 3.0814757710186997 3.779130334446212 5.482182630616782 0.11043787963829366 0.22789178558310427 -1.7204436530721272
Ni 3.136363669190095 3.8687601153185738 9.087047607061102 0.319214798768818 0.2404369692379666 1.5592257146674888
Ni 8.136991452948578 7.222964778741755 9.743367046360962 -0.8776005555789853 1.8655834549679808 -0.3336361164004706
Ni 1.2857099683959148 5.118845011595114 6.952971914188195 -1.026368441145729 -0.984515252555369 -0.680246533573422
Ni 5.275169538653382 8.482523043622065 5.753662972085555 0.6447252007383606 0.8214841722013916 -1.9029318137094517
Ni 4.314900925844844 0.15358292116891437 11.116936698100135 -0.6972587518607024 0.9424738592136027 0.24158136725505489
Ni 8.910312107706883 -0.17955984614698234 11.416501533401219 -0.404520145005542 -0.19305796573337075 -0.8145365372389649
Ni 6.363007890402959 2.824681475068448 7.398496351467723 -0.5461745594559562 1.5275047294151243 0.2392025826102332
Ni 7.070656439354565 0.8126830126271523 9.811849553864342 0.5292723843839788 1.488914527846752 -0.8717171002150149
Ni 2.8221062806589843 8.114604925374609 6.553941356912896 -0.7276445632414114 1.8922596787075863 0.1621396788879595
Ni 8.694172415195572 6.74861768721074 7.133641789983156 -0.15120657691522346 -0.5911619227999239 0.006087343844660484
Ni 4.692989667500075 6.995129798984576 7.3373480348294216 0.6589745115685232 -0.25716148108149905 1.3127047440189714
P 1.815893224631774 4.999112416651109 3.9781110510674567 -0.6774237194126462 0.5170519310583869 1.1916854893204056
Ni 0.51173575346799 4.053681386071831 11.148558597971439 1.0071360752786784 -0.1196534846992907 -0.7647013588843927
P 3.130274310568438 2.8758041972982085 1.545857595116902 0.533747646546513 -0.5801038652135494 -1.4421839565594325
Ni 2.759148820222553 6.082544118039365 8.409134651317695 1.070569818253292 -0.7867506253749482 1.4030036868155449
P 6.77417439996026 8.321745382548874 7.450378616597314 2.0617028332354947 -2.834923285334492 -0.8753464694374861
P 6.550253343836237 4.865285977935453 5.967547277724172 0.1959903088888173 -0.45683875190360035 -0.24102086676589463
P 8.403798327884365 2.278070895650195 0.6315510893154032 0.6032455934373353 -2.4646576906364452 -0.29638983045450246
Ni 1.3655131048971445 6.7950083735039755 10.620577737243169 -0.33850707133952673 -0.1305423636976526 0.4533747046143998
