# total energy = -381173.92639025976 ev
CRYSTAL
PRIMVEC
9.20640539300270 0.00000000000000 0.00000000000000

0.00000000000000 9.20640539300270 0.00000000000000

0.00000000000000 0.00000000000000 13.47450489038643

PRIMCOORD
 96 1
Ni 6.634752605366696 0.6511975982120217 0.1131881519573962 1.5875209620677564 -0.6485121785846186 -0.07221843114577885
Ni 4.4195901806547475 0.2762934343318897 0.05261736913921726 -1.0274069097125724 -1.1347895474643102 0.14658219076933465
Ni 2.419737960491794 8.07894301744143 7.991702198639245 -0.05474701383389281 -1.180344867496606 0.6324566677836527
Ni 0.3778667851579303 8.02123726800315 13.257659328824932 -1.6607477798733914 -0.015970150176011205 -1.2766501643882595
Ni 1.0035718466445847 3.4587728809775182 12.766743408432088 -1.0753366435143157 0.4379149184159039 0.5791283886741575
Ni 5.259380074123352 8.732008595321773 11.141178522983285 0.42398519570868914 -1.4664194320680293 0.4735614639749198
Ni 1.9368619939892577 7.005485346931818 10.828111943312956 -1.6631885281043999 0.7703457016543637 -0.9478194397962322
Ni 6.423714172952252 3.7547956422153166 2.206719230262388 -0.678856852314747 0.2565151057467518 0.40753450635183364
Ni 0.9289171047500362 1.0023105690962366 3.552297071507788 0.09321405956083947 0.9640456718471073 -1.1358724961158437
Ni 2.0726288553431735 8.095523753679203 1.0844657695209972 1.4714243414817882 0.6977835140159209 0.07398169369378872
Ni 4.149511070009973 1.425989348475583 11.633065719152412 0.3094620902574283 2.6951372915513843 -1.0579061067426943
Ni 4.11049432366035 3.950569854373114 1.1629172330282365 0.8831333124717564 2.6895315153288326 1.3355376827530872
Ni 7.658081398133578 0.6891648143389323 4.335057886339597 0.05467142340095101 -1.067195245354104 0.7217423388243634
Ni 2.118430722518581 -0.29237150083141356 5.735922033667762 -1.353894845104036 -0.4571729953145675 -0.006984144627317004
Ni 4.180729990932949 -0.0827315214067062 6.736080145166891 -0.29683668818393394 0.8263762101863704 0.8119764898212727
Ni 9.26735186655449 5.91127643850997 11.523167936507276 -1.7890638253436866 -0.5404433133991338 -0.0041199357056445176
Ni 2.419636690031708 2.7313379597719623 5.423852507709011 -0.3996725871052536 -0.00035224113309616754 1.1370441478264417
Ni 7.11488506304144 7.266072653544865 9.93487334229188 1.1830028739447433 0.9469066981739754 -0.001131028280649665
Ni 6.173603755755408 5.008045205000011 -0.02617841393231576 0.6626211071821749 -0.30906665459122257 0.11820492517822224
Ni 9.331888768845868 9.180111968392849 7.729002942613126 -0.6059766192152531 -0.6900092693871407 0.2982106857133251
Ni 5.766017773124326 4.959343320103951 9.06103908206389 0.4497563911355222 0.4784735565645566 -0.7758987702621089
Ni 9.354076206010236 1.7863832967064366 10.672926010917214 0.4387145314990638 1.5406335534875983 -0.2867062846181514
Ni 5.329385581259393 8.999528325248 4.790631336802859 0.06078422116690822 -0.5795145683689825 -1.9487815250537146
Ni 4.005826699958399 6.072130754748908 8.03413360077487 -1.9838038067651704 -0.5228631384235254 -0.4335846664716661
P 0.19149139233669116 8.489318540927618 4.713624358312669 -1.496070679275559 -0.6403877497052713 0.554294103239297
Ni 8.815565931298456 4.200744716408193 2.30753581455942 0.38557060048623276 -0.8975965390849381 -0.8498966619058136
P 2.786475122086237 1.1743322551610582 2.1059164555735497 -1.3478535240059626 -0.36796060071395337 -0.04617289901163661
Ni -0.12519882852363468 8.510005334001617 10.952562291072498 -0.5654956283820712 -0.8076552367380995 -0.9230386333071264
P 2.3918149327243547 2.8597304903505014 11.359734906098321 1.1859231329153317 -0.12467253518043689 -1.1338217842344023
P 7.5427251376897875 0.4872941204839388 8.898118848439191 -0.5436944733465798 -0.2602599175011647 -0.10941175236662447
P 2.079671755521905 1.0808043820686033 7.672463644746928 0.12524049186876496 -0.5195842105619374 -1.1447155483287705
Ni 3.3151345429532557 0.9523197874354403 4.248969709501303 0.5357469363647289 -0.4748418733492403 -1.3727194340097069
Ni 0.28760994792626365 1.4904433931177996 5.809924041415027 0.030138214146277126 0.040042874854498776 0.0011595675257399386
Ni 3.402540156413219 4.918614182338321 5.845078700673176 1.3864331840513735 -1.1417950322478658 -0.6582242636660599
Ni 4.920814513243833 2.0729326667234327 5.722662968520823 0.3812984554734401 0.9558073430977151 0.6438111735645234
Ni 0.3496031203883824 5.686916337391441 4.549316719384787 0.2119440040045963 -0.6614422563827254 -2.232373689522917
Ni 3.8602734295979584 0.4562455180620169 9.496534282854219 0.13845107702176798 0.6124295739294485 -0.7734042859750292
Ni 4.97253609913156 1.4161937330635963 2.0900031837318025 0.5781973922194559 1.2654774356008915 -0.49301982980984765
Ni 1.5980386537567919 0.2921339755704838 9.717408838864685 -0.1340058967662208 -0.6529686716940755 -0.07783192067781435
Ni 3.9051086241998147 3.2218460364028227 3.607192105358401 0.08039968140499057 -0.04405096757262736 -0.5514183243533987
Ni 7.082082640378932 7.4347340016159125 4.4898129589597 0.6078311559254888 1.1513001435248236 1.9009818890719328
Ni 4.068117239316953 8.56809775246932 2.2097518202217006 -0.28646382959004213 -1.844819740058068 1.5274527931312663
Ni 2.004657963814323 5.843959201768949 13.088271595362901 -1.0014040578909076 -1.0557250399309754 0.9089448742182218
Ni 1.840461722392536 6.388416814409435 6.11737103119111 0.9834870684011706 2.098576566333392 0.703774184381717
Ni 0.7023971809100304 4.389476028387259 6.54207448349842 0.07661578888252611 -1.304645878270237 -0.04571627109019224
Ni 5.629983926012001 1.5086996951497256 8.12499161628323 -0.10129400835549651 -0.3262807044766639 -0.18287408322183343
Ni 8.719800901678639 8.7512683955491 2.0613298339191783 1.2857503269173147 -0.8691866204836772 0.43781953048862016
Ni 5.287367546729029 6.386713629398892 2.9288991352300098 -1.011800056413251 0.5421559252148662 -0.21944776858080917
Ni 7.781658978655285 6.792191345179087 0.9639355092073421 -1.0655098872318811 0.1376164969356146 -0.9874432248354412
Ni 7.4554115882844485 2.720023287458681 6.537857029156098 -1.0273261770733082 0.22438171554731678 0.22427964275181372
Ni 5.875454314855797 3.519378648136454 11.391521862238326 2.481059786143553 1.1026867533924944 1.5538022296590726
Ni 8.10716985658913 3.0488668841699123 4.259183295721281 0.218611645832759 0.5346513893077051 0.012106039234914634
Ni 0.4922499285443452 4.153212045005856 9.657797363495687 1.389543190435265 0.34884367737884436 1.2357616537040137
Ni 7.833896123248905 2.848471056469994 0.26752985697223736 0.052597314480741675 0.8067453233293204 -1.0017516710383136
Ni 2.256931886294828 0.2613477557042401 12.103919040761607 -1.5439973277535086 -0.01572332427252776 0.2413566528387585
Ni 6.9232629397471825 6.646085690490903 7.8366377907956055 0.522390826772797 0.24201074148298968 -1.7151191555354206
P 5.943259491086326 1.994245519236356 3.838818822308397 0.6158856507988489 0.9907455497357969 0.4589995070003449
Ni 5.235682786463152 6.596389513804903 6.16892506049942 0.1756441411322975 0.8447889083656032 -1.3389258824990296
P 5.82361304569706 4.331696627705277 6.485561884208065 -0.520824767837258 -0.4729019760140501 2.5245677367285166
Ni 0.2826688701145971 6.8869712894144275 8.764801811578819 0.34346878622017624 -0.39821040073743036 0.7564236922566328
P 8.709305599451511 4.97772851181235 0.007689189842191005 -0.21387721647156713 0.2040304055844744 0.7184266441875692
P 7.55531029395688 4.617960599152939 10.144442432394529 0.5136339065157736 1.3535580305899078 2.5783354173682755
P 3.4238253658422724 6.147494389864061 1.5782688186668479 -0.05190645906130416 0.5328703861478823 -1.949157934556527
Ni 1.6961789359859059 7.656470277177658 3.3735574713770577 0.034250436542437784 0.635442489884854 0.7955036889772299
Ni 5.583279831101279 6.265069394024287 11.23434182241943 -1.2250774345172901 -1.4028728176646355 0.6523850312764635
Ni 7.586022862579424 5.965124704059509 3.057917701379991 0.19468341715193568 -1.3265439638949088 -0.4925266922235131
Ni 2.377434527392096 2.6345141935239704 9.067815917124758 -0.9694760988340594 -0.10012698463058885 1.8338550135164482
Ni 6.891611317767474 1.2614985020789995 11.170512892708109 0.1989650752464251 -0.29769800774296473 -0.26722992106109456
Ni 8.878114250009956 7.0615707690087195 6.500181656082345 -0.026099525300529246 2.120452283360561 -0.46577667782317844
Ni 8.153155851873786 4.742735012384757 8.134720024935342 -0.246914092321878 -0.06620899172690534 -1.6492585482868691
Ni 7.1607237558386965 7.656461070772196 12.233839834646906 0.43708753741860207 0.48530086389903526 1.1866026754808594
Ni 7.727930396376757 5.298240311580115 5.856949439876386 -2.1761261798840974 -1.3861940714573742 -0.7514848601941186
Ni 3.401398562135882 7.398672511419718 12.514082816922162 1.79084611405509 0.9360718123420008 -0.3701090145155239
Ni 6.456157545801726 8.51997587111739 2.2552949874036146 -0.26351004900734615 -0.06503271203061703 0.17317048278082434
Ni 5.200182887000163 7.162555830525713 0.4455559606796319 0.6721807258461521 -0.032905235368453 0.6493531864286751
Ni 4.779146345988523 3.1121425089129424 9.687589291571992 -1.385576749588349 -3.447797660110843 -0.6557642321613416
Ni 5.141114589553447 7.934015782652434 8.471407479100533 0.6616271187000218 0.9904434451143459 1.1857786369176675
Ni 0.5556572048854875 1.4403513409969169 0.8065299124546164 0.5657167432539418 -0.4022938267781846 0.11435572663546113
Ni 3.837957102757117 3.5172611748801037 7.692945134979115 1.207811705458307 0.7437540672087642 -2.017879665402957
Ni 3.4137627646718762 4.934872694384908 10.017297369756143 -1.3248506353528862 0.3998314812806211 0.106773543412829
Ni 5.550182803463974 4.6755098396983605 4.51290814770266 0.5650539128589623 -0.26028202898835173 -1.6225576419569152
Ni 0.03015558109206973 2.405210252672137 7.991553975511301 1.7586587306892678 -0.35084656674148607 0.03703725525895557
Ni 7.380140017223919 2.7080365475466444 9.211333651237464 -0.8195422179836724 -0.26123565115087266 0.636578146151194
Ni 7.572471033738781 1.6409957416443195 2.2138339404037257 0.04385144996731157 -0.19581238855005634 -0.20040386457548068
Ni 5.312620716912375 2.585066589785455 13.4755832318847 1.4886178225419395 -0.253774309776821 -0.7471371247483842
Ni 1.9761089004754409 3.7879663210963206 1.8142207049030759 -1.23752980134803 -0.026624030345431565 0.7368066893566536
Ni 2.8277198185577594 5.492559911674854 3.4817585134954756 -0.25862238189774167 -0.3931864651602777 0.7911299853895665
Ni 0.7335037836863654 6.2055960147372256 1.6551809711807752 0.15762687861927047 -0.4631942618079829 0.3249061927266404
P 3.87351224065288 7.257179265868192 10.250258094857639 1.2034264319064176 0.16341263206311213 -1.1097922540890244
Ni 3.9530739966588846 4.571597141244325 12.292548161640042 -0.6171542330986274 -0.4473719500637456 0.40730773505300827
P 1.8537833910966193 5.315935022878835 8.151388222025005 0.1967683247054224 0.14402471445480358 0.3515034835991947
Ni 2.9158527380492516 2.2673351244673325 0.23258326247753808 -0.38173400034896193 -1.0331404697622402 -0.9466120497516922
P 1.1768363974468292 3.612814457174285 3.9217004081241402 -0.4345627141142194 0.5795145683689825 -0.14521436388753056
P 8.709406869911597 0.8316965424266152 12.403941985172818 -0.4524128549217628 -0.11128171569582772 2.273548621099329
P 3.503773790877697 7.293397264957249 4.683509285404634 0.9137353536283295 0.3585591048943954 0.5789682089472094
Ni 6.635397053749064 8.962794767453053 6.719304233133318 1.305183753051578 -0.03140191135004915 0.6420815924679264
