# total energy = -340855.14142175636 ev
CRYSTAL
PRIMVEC
9.38507366710141 0.00000000000000 0.00000000000000

0.00000000000000 9.38507366710141 0.00000000000000

0.00000000000000 0.00000000000000 13.73600396958673

PRIMCOORD
 96 1
Ni 3.230530062115379 4.037148989686788 6.21842593736805 -0.2148537214522235 -0.2672893135441203 -1.2699730094783999
Ni 8.653910744774144 4.482564586537627 9.352556276672363 -0.16522757378466382 3.415801823930536 0.09705580190443285
Ni 7.689463033126869 5.783673661232379 5.078873398014842 -1.4131932257540372 0.9619157699882981 0.2932885658213594
Ni 4.298664067778836 0.9200375429937098 4.8326972843453175 -1.170081537897385 0.13770828531847248 -0.024360688232551594
Ni 4.352581316070199 6.7523728112566745 2.7062535681465825 -1.1833707988071231 1.6376549026096698 -0.4693854782203593
Ni 2.2143799795652117 1.5523568821809262 5.9280611427838075 -0.33394619144172166 1.4845691063938626 1.173527073243824
Ni 7.85725876545085 1.2236071362456533 13.418990450270096 0.9512626611498263 1.5863534241222164 1.2161225393168476
Ni 9.079045197402593 0.7452001898876556 3.071136786257064 -0.2637247361213136 -2.2818298872715155 1.8998768289332117
Ni 6.830419083979211 1.5609160693770485 6.857356122455429 0.502235949091477 1.9973859163249794 0.0672896263855938
Ni 7.941302100254881 2.4940645603016605 9.271156717123977 0.17894363781917572 -1.1487251837087957 -0.6266806845318239
Ni 3.317276298139237 9.13422004556707 10.383512251460033 -1.5200696132933176 -0.5774587142812184 -0.20161665393665923
Ni 1.0113543098997078 3.2173721888160767 7.277939752856465 -0.24293351040757516 0.49026206455905247 -0.6632127180195869
Ni 7.1076823157062305 6.573296220369383 2.335944838941717 -0.32156170173443976 -0.03391542180052223 3.6148833701501677
Ni 1.8441012825961218 1.155358880444994 8.560153858711356 0.7901519377470134 -0.5657275418872192 0.004818504434565895
Ni 1.1263590027739214 3.14613009451151 9.683552809246619 0.5446172422711654 -1.1188211970605118 1.1435698647601016
Ni 1.6994866822616386 7.679148837152595 8.449688725976138 -0.8367755511428234 0.32021110124381624 0.6217541937644842
Ni 2.251676262369368 0.37404774255896134 3.9631664538676734 -1.9856256904652576 1.2828976879598681 -2.044075349961718
Ni 5.152161438381639 1.1409527923462572 10.120961999741086 -0.6159753822991779 -0.2399947394942254 -0.10054298912208491
Ni 3.398738737681278 6.0438279036408336 0.20536605927959195 1.2119951474120352 -0.16752022647358245 0.028582182513066903
Ni 4.880003686736517 3.4699620618384848 0.32051997482531697 -2.593397711018037 -1.0279247298892555 -1.4367656137573386
Ni 2.6463186106116305 1.3986387603768828 1.7697470978592813 0.3125731250825843 -0.9342208751761911 0.2431924204959167
Ni 1.0923944211261511 7.715534767809795 4.434929706567629 -0.28646794335510023 -0.7981059024867675 -1.2612040050365183
Ni 3.0642453266538707 8.80263600738045 6.660340901736264 0.2738721089679606 0.5861922374994744 -0.39761261925243135
Ni 7.151285368023319 1.4544048681831974 11.347642747616927 -0.027965631974990548 -0.25730649129979555 -1.5823993245704748
P 2.8282201086765895 4.873997239581343 12.210757941726952 -1.8601406866858545 -0.35073086709922824 2.421023755996579
P 1.3031925610517032 0.9398963589005024 11.478450966060821 1.003242396651227 0.509558193784503 -0.9819053257363477
P 9.15928757736624 6.516788691742352 3.0440636642124876 0.7660167352617065 -0.29645616491606364 0.9227339575825141
P 7.326485923480788 2.4603064502748495 3.732539530271105 -0.34968674210543 -0.7270645223682253 0.5009216011554276
P 3.3156714505399636 8.209921679122658 4.503404142643975 1.9052195813023636 -3.2389094122134345 0.5138894741700053
P 0.6188461274122676 0.15531827686647628 1.1776794011780396 0.2927607183423474 0.4811649873537906 -0.17976716216173558
P 8.705369103761356 3.20748970623108 13.531516545185431 0.7842659112798815 0.8609246375852012 -0.5922939795218379
P 3.9857938665100536 2.6340710894592845 3.4467621597016262 0.9323496262954071 -1.0873766053979852 -0.11218700111891647
Ni 7.850623518359121 3.7076015124887185 11.392930420659566 0.3427383358120549 -0.09707045719245218 0.7804691632416108
Ni 1.7327943087518118 6.548322539307013 1.7629203952644794 -0.5066289359528501 0.8876656531244712 1.9604224517267528
Ni 3.146880900405907 2.8770881873281344 11.370196956684602 2.595619144149388 -1.5304131613111709 -1.7779049805133897
Ni 6.138147894124418 7.563168096615666 5.836002016549725 -0.6373633610566507 1.6559405882927354 -0.8226244564534221
Ni 9.344642782545423 8.998586960744307 12.630750312486148 -0.7829492493509871 -1.119391467741685 -0.4718429386219164
Ni 8.369299000355717 4.345289113820871 3.439495297151235 0.6971847040896573 -0.10942975008875348 -0.39662454430754923
Ni 0.6851000550559361 8.478850965421875 6.5119788414813735 0.05532396938328536 -0.1002650528703499 0.7178836271999055
Ni 7.996767885703436 8.880569659218827 1.314550377219189 -1.3310171691749142 -0.7675689102401748 0.04796470080473675
Ni 5.6989170608286726 1.3264769288516804 1.421758889387461 0.12956328761383493 -0.5395652816695546 -0.15997378158489226
Ni 8.731703620507322 5.861147444460438 11.885571708267957 -3.3996702084759964 2.1659942336564177 1.2705335099675603
Ni 5.035739599381752 2.8325184724220107 7.717354533596339 -1.01366564886708 0.17261203917419304 0.37539237440165024
Ni 6.001182128839101 8.70229079959433 3.1103532551361397 -0.1849348224056041 0.31730935421598905 0.5452373923536675
Ni 2.5330032309998094 6.552874300041793 6.298245989016098 -0.2593559176296566 0.14706041595733382 0.48828977132403006
Ni 6.282753109385221 3.9086673310081532 5.497410143846279 1.2835666890024346 -1.877799280307882 0.5784246777389135
Ni 4.465333591261223 7.995144267956804 12.373832043482546 -0.716636899276998 -1.3717244170862892 0.26010590842180364
Ni 5.478527375602202 4.078396388510206 11.730410162131935 0.8862062949701254 -1.4864331561857949 -0.28819289646600693
Ni 5.839327148154534 6.551532234505559 9.672193116064397 -1.2360331621978455 -1.0633419330462848 0.581159045950941
Ni 1.1338764467915683 2.354161266954516 3.583435110688129 0.2275174329628211 1.9562086707557216 -0.10781792551694333
Ni 2.6599269674475705 6.002214486943897 4.044703973999154 -0.09833903949223063 0.8822802204428417 1.1779270020837325
Ni 8.081590181622904 8.054204536624784 4.320014171893375 -0.2213195316822253 0.5774656562597539 0.20270474479451545
Ni 0.41116570896319793 5.471910898657832 5.680236071668714 1.1728179629919415 -0.5645962564962534 0.4949101048540251
Ni 3.8984657559180382 5.102664559793537 10.617532817699274 0.4037734966475046 2.015855178773761 -4.209281540499203
Ni 1.0141322917089757 5.824620737698039 13.497409310417725 -0.13276945325595843 -0.9208807064238591 -0.35599442949101273
Ni 9.121906828898965 9.253504332039345 9.616837135977898 1.3391858210286356 0.5987482197876139 0.7583088250944875
P 3.53235403166285 8.232549091765039 0.8195121417929364 1.4077417157211625 -0.809861757471115 0.5874626195714656
P 2.594700705371858 3.0687126217255307 0.5387792483264362 -0.2625122038704511 0.8560446837850805 -0.05086336250877046
P 7.96183664146663 4.331136422711493 7.413074490266823 0.4364103088459194 -0.7819071812397179 -2.255898512117734
P 9.733166062748353 0.709872895541555 5.239447316142095 -0.5470597902743869 1.1195143664727945 -0.8131093178741352
P 5.0432195031046785 5.523087705434647 5.8990912973485115 -1.337721320667967 0.675871544434178 -1.1745326316902032
P 5.984260840994136 3.101438373647547 9.74653228468335 -0.4263426401972722 0.5468939541204839 0.9271590832334033
P 5.307409327195516 5.321899880957372 1.184424453631826 0.2604247252138031 1.6478554972917556 0.9407689607073539
P 1.7575896734142626 4.136001970757793 4.513224683742684 -0.6302241789087082 -0.000579269542237712 0.8572464174026657
Ni 8.208823625502104 2.2215595609303804 1.6683197910778638 0.0642410693672571 1.3940495629460508 0.7359618248578551
Ni 8.454656245474942 5.395873031702806 1.18169715122043 2.9615444596008675 -2.0443358027119567 0.48085594075380417
Ni 4.01155589376154 5.542899595973039 7.8362258768266955 0.06714770149109081 0.2197167059714797 2.036719166706963
Ni 1.2676137467309796 5.2323287377558465 8.32134033534376 1.0914962839933138 1.3072025832538197 -0.12185383478471916
Ni 7.102623760992733 0.4965989731792299 8.750040177463225 -0.9655513098583564 -2.650222947537197 0.42468530709950725
Ni 2.1831276842109495 6.894847614792128 11.793554814865434 0.8557166110217005 2.4017083434974182 -0.7316981644854946
Ni 0.9182534404871496 4.113046080536614 1.7521510232167266 -0.2448602951166428 -0.9251438525755874 -0.9771361864824785
Ni 7.938045479687935 7.185831824239246 8.837648901758271 0.8568589521562597 0.3741749570547814 0.4903847061798457
Ni 1.3631068714245593 3.1943693732264977 12.440726033151185 -3.226721611897992 0.26658071751286994 1.3256692745994396
Ni 3.7935406321761 0.7018937058988541 12.496906961214155 1.492169801559256 2.898382996451034 -1.3471220451565766
Ni 6.4028257420466135 0.7666460217537291 4.912420669734463 2.781397802612526 -0.3471182100473054 -1.2401762378319416
Ni 4.915038166783803 4.908646931607751 3.708006947671693 1.2215041153437352 -1.3874526264548235 1.6836251986921973
Ni 6.255029601734624 3.5828551131347077 2.083957487649562 1.0747933694163363 0.20338145914656588 1.5324278777483544
Ni 3.02130861456806 4.340671657570331 2.5935500953386947 -0.26236667943152236 -0.9560402850441279 -2.127204771593046
Ni 0.9603370493754524 5.219358565930143 10.798188916486904 2.6669911681344716 -1.3958611622334929 -1.2972130761412757
Ni 6.2074285080298734 6.421971292353729 12.164178882545947 0.6098067915946207 0.3809701255997439 0.1297643478810475
Ni 6.433899721000957 5.93118824933397 7.42904882417748 1.1417266409037756 -0.8095051454626445 0.7689858451923596
Ni 2.1237858633325706 9.192679669519533 13.364252946539104 -2.257681829270402 -1.038017081128251 1.091840297596294
Ni 4.821515907563015 8.165586591058533 8.099242566707538 1.0814664105611373 -0.3507465508285121 0.9165568822375247
Ni 6.569607886413159 9.007568476256026 12.81023890810799 -0.8999660677583791 -2.3733668162402477 -0.8875697509765552
Ni 8.826755646737942 2.8340951648002437 5.54577424404121 -0.9161285364508546 0.3492077455864825 -0.7180278660872538
Ni 5.696392476008763 7.550920575463319 1.1538779158182964 -1.1561194192903381 2.1087545353076584 -4.777332845423591
Ni 9.126524285149502 1.3696013424110909 7.491905355149003 -0.3039283049233927 -1.8023381738550897 -0.1116136451139497
Ni 6.990359509633067 4.630435807439056 13.534057084630595 -1.0653324811137523 -0.4731904537887463 -0.8654657199886643
P 2.8500591751298536 3.4479916043537013 8.319759888936055 0.772387671785057 -0.07107557579058728 0.53832832393866
P 6.40365162853045 8.445149165837144 10.355120526563423 0.000903742761191992 1.0496063286277473 0.9064059098464519
P 8.106836029821993 7.931738710175003 6.81790690374909 -1.7158591190252384 -0.5503983677293166 -0.3881401609856219
P 0.36861566191300127 7.303717734733207 10.281316307144227 0.1051267518380254 -0.6052243144302609 0.3272785496135589
P 5.584738254438295 1.7214571397464218 12.8875587761277 1.1438801969116688 -0.017173683565809134 0.2576283934155886
P 4.898717523654355 0.608344229964394 7.002655833168549 0.20104586903485375 0.8344939541974982 -0.1678210455434529
P 8.112889402345566 7.043816889314112 13.801937119692393 -0.9530128110717137 1.4566968054636267 -2.4873739012870386
P 3.4187289446195903 7.1405676138808065 9.476221515538443 1.1992833562723217 -1.1634303511294544 1.1123746701042196
