# total energy = -340860.33725958393 ev
CRYSTAL
PRIMVEC
9.37403990942333 0.00000000000000 0.00000000000000

0.00000000000000 9.37403990942333 0.00000000000000

0.00000000000000 0.00000000000000 13.71985494991597

PRIMCOORD
 96 1
Ni 4.362256293915222 3.053921558193574 12.7484204141804 2.552496859038617 0.5972284407089778 0.677533248407317
Ni 0.3573796431793824 5.086391494887936 2.5983760327619123 -0.310441166341246 -0.4589185172507645 -0.35251469847252836
Ni 8.742313889422014 7.688212487278548 8.981400649481682 0.47972388403189004 -0.13764760728386616 2.52757669875817
Ni 5.438536674239654 2.4718218083611805 3.0329518311475807 0.8640606121110217 1.1794046150705235 -2.3599199467067224
Ni 0.3249717127621231 6.487060522698559 10.772596862629639 2.529538450470231 -0.6973765083854893 -0.0690217785853521
Ni 2.290724733349312 7.09149860938862 9.016977005353365 -1.0130385568060425 0.18786665134041838 -0.6764898947444672
Ni 3.7568339330455323 0.7988697333259471 3.4678163499592736 -0.7673776201649752 -0.426226169224066 1.3848465562905439
Ni 4.013832608366481 8.737486258921932 1.1945245184371562 -2.002011073801817 1.9774557530599557 -0.8444762622211909
Ni 4.437126749845643 7.778878200282057 10.037624334237224 1.3018521175751836 -0.7108755713131886 -0.07032892743254986
Ni 3.626319176826771 3.5049628574984593 4.351155555976972 0.07450902695216845 -0.7170174225448683 -0.037274310970426126
Ni 9.26124198500186 9.360344333830756 3.0545064982774677 0.11201936519280062 -1.8719178818264406 -0.9594899341556249
Ni 5.152619086117236 5.252283877334493 11.60076796958114 -0.9604175881762169 1.0761293146189403 -0.10689129993761592
Ni 8.12194930910158 3.333183578053742 0.36459109200212847 2.618086214903652 -0.9025659672750713 -0.43554050464645633
Ni 2.8886291142946 6.100193899905463 -0.03377372801699166 -0.5820175372964944 0.6646054846020555 -0.8794556065098531
Ni 5.749764169838239 1.7000289890148277 7.48696591370371 -1.9193843028385202 1.6791067419965533 -1.4401882662856424
Ni 0.36463889960513896 5.09920580730272 13.587444784419274 1.0581827574428486 -1.9556142317048324 -0.5626607300364374
Ni 6.858469353851582 5.742761762103166 13.343012009458253 0.2515402782399797 0.8983730122396463 1.4374353861308533
Ni 0.9683851821575185 7.27408615672964 4.108506660791029 -0.7084687616439089 -1.7928207212829574 -1.5509724735197612
Ni 3.7802877806401125 0.42583919328648834 12.048488046582765 0.26855455340978907 -0.19389614536394995 -1.0483560011604138
Ni 6.1775953465835 7.910302238362 1.204311015994607 -0.3593252936364586 -1.146606080483264 0.4869337715167679
Ni 2.8053970148572387 6.411393273384629 11.224282158469196 0.4661898541011971 2.2851970039715357 1.8085720705799433
Ni 8.582589625167797 3.2360029073850716 3.972021578619835 1.1289855391880235 0.022614909186038472 -0.8297332995840614
Ni 0.07108990567666593 3.8214679375078147 6.378291664021727 0.31272482016910014 -0.8910651657243235 0.5068392521914433
Ni 2.7304046964093405 4.705524257570672 9.926479156469576 -1.471281388146021 -0.3887320289333499 -1.11688207105627
P 0.7870959393296271 5.432949746515287 8.61996485927825 -0.32490053629968557 -0.2394625211398392 0.37290277521057713
P 1.936892226832515 8.515340263599644 11.162954377846486 0.9999536985976261 0.43160337437557933 -0.7230687709452708
P 0.5787550924296174 2.573202048862933 2.039442347502055 0.021483880905388806 2.33672422531655 -0.5719555250748021
P 2.247632272361188 8.739670410196727 2.8686436614282353 -0.0867986429527989 -1.072006036479186 -0.0778900276092594
P 3.9084777749869892 3.3208567157088686 8.973210550903191 1.01628097500274 -1.4592098016934676 -0.6621529092965047
P 7.382684407882004 4.7652556392144225 6.288879260140279 -0.4078435529518202 -0.26872758865254365 0.14185933137236859
P 4.60600945099031 1.2866900778096235 13.976279018167649 0.16843939585374218 0.11341290310621757 0.5672046406533781
P 1.8027778393282545 2.381343576153791 5.333785529023669 1.350367291566752 2.175983483658646 1.9936624447268052
Ni 6.041259311645221 3.837525667695471 0.8447762810638281 -1.0215404236294665 -1.194833548031084 -0.32032602955512574
Ni 5.679074535661289 9.51905620178593 2.779093459161638 1.8367490472347914 -0.6325967929059428 0.20755255980511994
Ni 5.486325529170578 6.379990240034572 5.612627591900528 0.4949638409100959 -0.3896522267547741 -0.40342382661756976
Ni 4.210678070252408 3.6861349248287762 6.854274471038402 0.35257511939681857 -0.9123279317578417 -0.6508387698352662
Ni 6.87108681143044 8.282610977336399 12.857507052806657 0.05197485040539435 0.6105706663438388 -0.9826041515755852
Ni 7.3779973879790095 6.574445321769972 7.684408501925279 -2.9581493178763894 -1.9319986491684213 0.4424351748837606
Ni 7.3253809025480034 2.2573531516399967 5.990458577724634 0.7565031393443166 2.2258173764616376 1.2073915872017529
Ni 9.00917405461886 6.235264439469933 6.152531976354232 0.7944953023173736 0.8832094171253305 -0.8863065679934155
Ni 7.674723243997732 3.4870021972301877 8.090831246561626 -0.023749279900797806 -0.6911752646707839 -0.1725153656953287
Ni 3.0260900340095978 2.5766610695513426 11.059451854732655 -0.9089608150578218 -0.6451761722328502 -2.091554369379288
Ni 4.116468970202235 5.771408827750264 8.042441515679139 0.7854640453530408 0.5690506927231813 0.044464915181594386
Ni 8.353085008597809 8.433861109606003 0.953757930444256 0.5305504797654541 0.39918690571808674 -0.9178000106160065
Ni 4.085290913807522 6.630070873978702 1.8936141598562328 0.7859669531313883 0.8376510117692413 0.9865322829853977
Ni 8.202922264945698 4.787303380838105 10.123057458221032 2.279349544051823 -0.2643561990577254 -0.9631812669642831
Ni 7.958606665482252 8.713807434372006 7.140992602160252 -2.1019503679016314 0.8821966595901 -1.4750876492659883
Ni 0.7483314725199278 0.7444684307158804 9.62550686041874 -0.15254277922814374 -1.4660702762587265 -2.223920159438925
Ni 1.4950656086569152 1.4547291153717519 3.520939970943784 0.2084982115478409 -0.11743667955363 0.3060980588812019
Ni 1.9693264045612309 6.687927447661255 6.286451383830528 0.5054246312321038 0.05937268553136226 0.8594938186759455
Ni 2.0080786851191825 9.210350322895154 -0.3648291926132005 -1.0795041446284441 -0.9414235635722172 0.23344408285990118
Ni 0.5832986895235794 3.0432070306953305 9.095165871375105 -0.14323795688745009 1.0051275294890818 0.3913463266277454
Ni 6.316134280876186 3.7444227043424054 10.052853399306033 -2.0392807567865523 -1.0977072979000322 0.3709312533065031
Ni 0.062422668472050066 1.011543261424284 0.760796133249949 0.31342313178770537 0.5307111737130343 -0.8056603177952577
Ni 7.5261634611524455 6.57632012973117 11.302539454981519 -1.9836780798205835 0.5164798606050008 -0.9463647096275765
Ni 7.808387677591306 1.4896849098082785 10.32550765850696 0.4872762424578512 0.7978230811390259 -0.5390878278125039
P 2.811208919536951 4.481840919720202 12.31164921567217 -0.32769429699473884 -0.5715361781491963 -0.5070400553483397
P 7.3647799918525685 4.495602010155392 2.2175678518954256 1.990266788781695 0.09227355002444108 0.926708883069862
P 2.4322071161410785 5.382489290239657 2.0478667970756956 -1.7924008601367198 -0.22241430740830084 0.7139747790638027
P 3.528688552247413 5.344871268498229 5.584804504352378 0.8350930212340779 0.6509020189730339 0.535511166204839
P 4.746807528876239 7.2253598978181195 13.33159630378252 0.9264862255360946 -0.06887034060915236 -0.3035403254563547
P 8.286407463457822 1.0263354962381321 12.576345852481795 -1.144684437980519 -0.34970782515135257 0.4500577244260249
P 6.625008892483469 3.8303264051244725 12.413725009927525 -0.2897450714444752 -1.0348471680407016 -0.9684949658677128
P 8.825724095615689 1.202089368560588 7.757631001657806 1.1003748174298662 2.0319153175604163 1.4959074142248172
Ni 7.714947248805224 1.115726339828027 4.187107984564233 -2.857339705356479 -1.7455769578046456 -2.4703575692347
Ni 0.031252111309181076 1.2612864299353979 5.592555897867949 0.05454415379446736 0.671190851129057 1.7274095428669993
Ni 0.858793282785721 8.70728310266704 7.585090550180842 1.420873110896798 0.6367203281560131 -0.3389868391894227
Ni 0.8860783004490083 7.112065252722957 0.9734912216398399 0.7027809672305122 0.5388199188630979 1.434159543593059
Ni 7.587722780558365 5.32688248611054 4.172729144905829 0.03865987846404309 0.30757901430210255 1.6998079790996468
Ni 3.699689786388234 1.2113602939287096 5.927210056345676 -0.19527682776156044 -0.3371762683432451 -0.5710728653595326
Ni 2.28633768272011 2.3129693298089196 13.546244004664 -0.6895469850387415 -0.0318809078689967 0.04345524297015742
Ni 6.047549292355038 1.2434288841049919 12.070330496734696 0.7400372804788093 0.5224270793273712 1.029357091460408
Ni 5.473201873442196 5.216578159713487 2.999104985620102 -0.1919441638439017 -0.8217268843398169 0.8482730102594616
Ni 3.998281076328347 4.296253679641266 1.1312188154153822 -1.738122044188497 -0.03789471816324441 0.2299802926810168
Ni 1.5852532456303192 4.7904249360934985 4.823091590009403 -0.532064088196503 0.0689328184159716 -0.8418766198148148
Ni 3.036092134482586 0.1555059463415234 9.222829044684886 0.1298275970188151 -0.22719270263355065 0.07102801038210348
Ni 1.6485842585595694 9.069036672819896 5.268438160132152 1.7843931593408946 0.7213769850651447 0.4783110628447634
Ni 5.03412184892975 8.182093148496795 7.386262478875949 1.497314321874673 -0.03323690767625889 0.5224394206225454
Ni 3.735676725203419 8.010126388255959 4.608362334981614 -0.027554255469184802 -1.1605502013681819 -0.012712562470661977
Ni 5.2688478056716725 1.552912808299663 9.760331800140294 -1.3536271932649464 0.24895811933510026 1.352783100097096
Ni 2.5423052136623987 2.000579453274393 7.697936178769299 -1.0136846750304735 0.4331720044142798 0.9904652994912168
Ni 8.010295120972467 6.9664207962573315 2.672257527492801 1.3656301312630932 0.11202039363406516 -0.6292826409310452
Ni 0.8283426518799518 1.5732451006388495 11.605501859683164 0.6263202158686116 -2.7963554523636227 1.981161484046317
Ni 6.82850054859184 8.735124000890822 10.576059806653328 -0.6776024110823555 0.1650223997523932 -1.5757136850201832
Ni 3.075388109349285 2.39244243928408 2.101977504451777 -0.2003987223691581 0.7756959102226834 -1.4283899880991333
Ni 5.6362914179867625 9.311346227764862 5.2111027830628105 1.0278154580049008 -0.063159149156988 0.08949727283088457
Ni 6.964405377699045 1.2917239371854388 1.1609851414153143 -0.5225206674824421 -0.4664263955920354 -0.7409240539591369
Ni 9.171635538496428 8.640455572890156 11.479540074598171 -0.5971441085252877 0.3321705875985376 0.7270763494427671
P 6.390864126209517 0.1840827066900757 8.571616374170908 0.7582571459209457 -2.747671099784042 1.5491829857195063
P 3.0301208711261722 8.419087622871766 7.032824619434985 -0.9463521112220862 0.8922967241385793 0.15508174359991356
P 8.942327776762365 6.863362602630307 12.972109376454753 -0.9901421118238433 1.4910434012642966 -0.08259797460789002
P 6.058366934291147 7.38260004152375 3.2680283769782466 -1.6922445649300921 -0.3937353956852122 2.4176658952679393
P 6.076036999325433 5.891602766142634 9.382679858476482 -0.3549616173511242 0.33383126313041217 0.4821995992658921
P 9.849022402956681 3.455561667720906 11.663646216387761 -0.6482427269733159 4.258864750743968 -0.05657198285777354
P 8.847368753527714 8.490433439835135 5.2294046583800196 0.24913578256354513 -0.7842414857998493 -1.4639046360659755
P 5.490037648933749 2.2116453335460027 5.010490831982837 -0.8968200659302297 -0.7184744667063692 1.8388501527381944
