# total energy = -381163.22206056607 ev
CRYSTAL
PRIMVEC
9.31769081289245 0.00000000000000 0.00000000000000

0.00000000000000 9.31769081289245 0.00000000000000

0.00000000000000 0.00000000000000 13.63738235128896

PRIMCOORD
 96 1
Ni 6.380726775338368 9.001709366327676 9.727654391433397 1.9019609651557499 -1.1157916662055687 0.10780558422176917
Ni 8.895087029357454 9.249839474998216 2.1203542401542426 -0.08930932518979458 0.20555866930354277 -0.9492870254806941
Ni 4.564401335102745 7.505875222293027 8.535460499606831 0.4745911907910149 0.010524296570091553 0.3875261815507068
Ni 2.7183897316592978 2.6751276928099808 8.921562316281092 -0.12487205278575268 0.19132067132728986 0.588892667149773
Ni 7.879859381951665 5.34736690144092 1.9553957039964682 -0.5050250818008399 -0.7713535740935877 0.33169467640338357
Ni 6.518563376824036 0.10039905121802292 12.071538172743649 1.1219018928683646 0.9014837899544861 -0.5701446971183084
Ni 3.3827504105296797 6.6296582054263204 6.586187450300841 0.30220515158469885 0.2688435454051176 0.18297127092133003
Ni 1.2639074998394388 3.780858071928762 6.620621908791373 0.19825056567790372 -1.9759146338250808 -0.23658957046741833
Ni 1.770463765625169 5.526154754432671 13.035156062022693 -2.3641987765877346 0.8877839238698904 -0.3113603357214057
Ni 7.909825075886492 2.77041039995474 0.837355723429521 -0.2332293957459338 -0.453487061822548 2.348311415933517
Ni 2.6041548412236675 0.6317729867162569 12.888022268556874 -1.4350098074084965 -1.2646724232010929 -0.2954945723337427
Ni 1.6615492766935143 8.118625211267572 1.0453275160895794 0.18940417103086735 0.6545678978603953 -0.2544386828336973
Ni 0.753761127749888 1.628601921670644 0.7057712925378431 -0.7482267582681372 -1.1690024459005932 -1.3299360202955934
Ni 6.992759302113603 0.843302273761986 3.3287897989888298 0.4514309506244677 -1.007903292462006 -0.03786360781499285
Ni 0.09680801314511168 9.309491332140869 4.7453862996087475 -0.9652150095648603 1.1761904790086002 -0.08088973366753166
Ni 6.987224593718924 -0.03715988307882036 5.612601495296836 1.2950173540415375 -0.36021566666121185 -1.3699580692144857
Ni 9.017502852403402 6.817391041682201 0.506776163290973 0.07641395728436517 0.46219307423697825 0.5608969532677952
Ni 8.43104738714903 1.8692499245483787 12.239605090585709 -0.9132165050103821 -0.0655001385853388 0.668069531891256
Ni 3.337718010409337 1.2920469263578407 6.951792210532989 1.8830687562369375 1.457457080668419 -1.2810953446438065
Ni 5.072550926032397 2.145323788228419 3.0881035935784045 -0.7106081765844149 -0.17758532401906835 -0.700800960686006
Ni -0.02007776035160656 2.1776189048882797 3.385521491803379 -1.9153227311746368 -1.5208697405971097 -0.6140573393408586
Ni 4.24808436442503 4.450846636102824 5.961295578314332 -1.261173666019215 0.000789071560198641 -2.3465928905805136
Ni 3.247382997132548 2.6834111200201987 4.818823680438147 -1.714039035097364 1.1144001851746808 -0.4943424052760131
Ni 8.810314677548044 4.994571170889185 4.470279612244141 1.9057718542614082 -0.8200890916260779 -0.3810140914638019
P 7.501002069952257 6.966073435375622 9.583506917901069 -0.26929657378213623 -0.18018779463892196 0.32815606712250583
Ni 6.440686116280723 7.289276179628535 4.021964505198783 -3.2400016168363495 2.176199456324194 -0.8885776234157793
P 4.239549359560509 8.696284776312217 4.439104482030476 -0.587329179317395 0.8793067396368147 -0.8244993048786317
Ni 6.73955105190249 7.832106216088483 7.616451055512175 1.6540094327082935 -0.14920548732479463 0.7565987843819163
P 1.040049975963744 2.0323840568279072 5.273889454540651 -0.19923889773310202 -0.20964209534429698 0.6665646652109553
P 5.438680272262223 3.4519342654631675 7.233799579778233 1.351613762379343 -0.9353452185886213 1.0450734737544
P 3.7137147913024036 4.6768938173400505 3.1945023059670232 -0.6802226223140221 -1.3011946864968431 0.49640700111452574
Ni 3.259393500702819 3.9818406646446305 13.221878860584999 1.5467586925487296 -2.674152718879917 0.2555748533206695
Ni 5.21145906197158 1.8373088801427229 5.233768409293768 0.5211687814402378 -1.7844047293051204 3.1680757772303245
Ni 2.280225317080544 7.6184701991302335 3.38066604307532 0.23508238979427257 0.32056822747291885 -0.7018993359565073
Ni 3.8045436421969 1.4047257624131488 0.9761977037633127 -1.2633202800485728 -0.8930348878561846 1.8140310368119856
Ni 2.6987480392418175 6.251592897153426 10.263344281356572 1.9281126838504536 -0.04819815697178151 0.36456803009263666
Ni 5.8069899581626805 5.271725886713639 8.855679719233521 0.9796340132036677 0.3565143065502247 0.4616834815904114
Ni 1.5366829009408323 0.7744538557009033 8.037696406954467 -1.889680090905868 -0.9844525176382335 1.1422873985032522
Ni 4.291821605510255 8.5198542991182 2.148570071738025 0.09557664625574508 0.3962974999854336 0.496243478953468
Ni 8.943045184420438 9.01945024980153 9.26688805403819 -0.36013313424973464 0.2569012854415769 -0.7111488795792333
Ni 1.4706577432224899 3.7623810908737982 3.4568307120311874 1.974204850222826 1.8413860317861708 0.13663047887326144
Ni 5.002174406663693 8.505560961277395 13.352169995979738 -1.2497816221321896 -1.2517024933039862 0.7630923625260599
Ni 7.594840535007497 4.257746809888468 6.686217520959219 0.09422116066911515 -0.430825101448658 -0.13613477018376555
Ni 6.826662144127832 7.692583112549892 1.679197915027456 -0.186736137280401 0.5488623907007644 -0.8159773834505496
Ni 8.15913853130135 4.850202868082524 9.007641008354701 0.5296829895588362 1.284417467038504 0.6269899882421266
Ni 0.5348196175931031 4.912361184077311 10.994361857388325 -2.4785773860413314 -0.18883672856317155 0.02854310174501536
Ni 2.359518866640676 8.758098337743698 6.0363281478258335 0.11513194267985333 -0.2821891134740882 0.035370409079493924
Ni 7.877669724590134 6.936974286694507 5.564733721835583 0.3391521611226933 -0.5739345031780437 2.6518411998669102
Ni 3.6836652381494748 4.718255047245742 8.191511916564773 -0.8483596564359971 0.6359459118838338 0.15892142906097792
Ni 5.052256995251907 8.804891781444168 6.402696958711792 -2.4704665840087388 -0.6975693411225857 -0.08374340106624287
Ni 5.511414167428661 6.553998555317242 11.115284986352071 0.0015174650857909349 1.0177092228088342 -0.7182173563902405
Ni 8.564439450075335 6.708728130404849 11.90188911098675 -0.5513843857916697 0.2008545789596541 -1.552451886278765
Ni 6.844710511401391 4.62572105891652 11.202304765206595 0.4048266205023673 0.3930427404935618 -1.5470836799883163
Ni 0.5322749562082768 7.017674807580559 9.834366178236259 -1.7039510547337429 -0.5317905228201423 0.6065489467789554
Ni 4.774394134919042 3.3802812224411447 1.202745245001876 1.1982813973703683 2.4617168628405666 -0.14181073752262027
Ni 2.1997950092305962 8.51008004136396 10.638208031036184 -1.557096584139628 1.1546124957275083 -0.5485255761866359
P 8.260272748331394 1.6083079908901545 9.899607718149902 -0.31348663803578913 0.1199789863595095 0.5553410564465726
Ni 2.9389394752654456 6.001040188848849 1.4939752647000726 -3.0490673823142003 -0.4452708445603428 -0.7605634254566193
P 2.334137476628714 4.255836683253941 10.621966364028161 2.931861587824454 -3.24768150197911 -0.4879915233573209
Ni 8.125958234005976 1.455879885454879 6.739184866650114 1.2813866506319802 1.051021463807719 0.8008294720655177
P 7.814859170232337 8.930680608595962 0.09028190243865854 0.13241952611570743 -0.014542159480233019 0.9295761773153282
P 2.016199227734376 2.016115368516275 2.2426125942239774 0.739550827760694 0.23624812796759959 0.38303446432794036
P 6.587728596375722 3.5871339604240973 2.5339348590620854 0.8484092787270098 -0.0939023438771157 0.2390254336024206
Ni 0.9136033198343992 7.218051750387919 5.10985896039653 -0.48701553259729674 0.07658699252711972 -0.26956294006964543
Ni 3.4467722647044936 1.6593316662592825 11.039311330059657 -1.0212768855554346 1.3790052670184185 -1.1725405409608385
Ni 4.591599674840233 3.847377067264811 10.31785277312235 -0.9666057192647999 1.2408596370522114 0.6600708299564956
Ni 2.1273779155547627 5.341403579264835 5.102031168271328 0.9939254901256752 -0.7722565455238313 -0.9802539061758537
Ni 6.145771881600615 0.9057857771691877 0.988067510200992 0.5976333894568805 0.26552425122389756 0.13832612140812953
Ni 5.806617250526674 1.9581313780447474 10.528672983890578 -0.4220938922232472 -2.214642590791741 2.6575133105510234
Ni 4.880830118071261 6.199618817312483 2.1932316277605426 3.928619405192602 -0.36847096469146867 -0.9835302629342803
Ni 5.816652403626118 5.941304472488096 6.532142979541889 0.1841856029444054 1.1121121604714523 -0.17622623888801262
Ni 7.150964375906961 2.7011147327304514 4.71967972218437 1.3409755659392066 1.2340598405215584 -0.2284188617311679
Ni 2.240354917718875 7.587908172977798 8.345205364424286 -0.8227059604236348 1.2760169016796346 -0.5085156114526017
Ni 8.38471051030267 4.316345767959405 12.933488873073163 1.5916498966344654 0.9113437134677014 -0.11659284349609597
Ni 5.532528055008362 1.0423048571615763 8.139430683278478 -0.23184999889990393 0.3973251699189996 -1.1311529791529873
Ni 1.5411088041183951 2.9299572212377174 12.409500139382372 -1.3723396820727851 0.48969359365009213 -0.47029796273229973
Ni 4.376006942792956 8.835668114487307 10.693235518185098 1.1061952807663853 -1.0050473110704496 1.9929906154707613
Ni 6.423513611951779 3.011524287377482 12.699267281609249 -1.686185760330522 -0.4348475923444899 0.5621087141877095
Ni 0.7443949848570743 3.932158736765121 1.2300684417974261 0.15356325007285812 1.0892406551899176 -0.6131975624437246
Ni 4.21588242467417 6.558676036149109 4.327509293426854 0.03792711406307662 -0.9445839635780701 1.7461976221077795
Ni 2.947139043257563 7.522507300549765 12.718550242927074 -1.4675879984548337 2.2784105771773215 -0.8394795803375479
Ni 1.1473990928241762 5.348019139803929 8.346978521002582 0.5633143044600363 -0.062258491719589554 0.5009434555322986
Ni 8.511319294253676 7.303821095123642 3.4045724426177912 1.9994134882779697 0.33231662625809866 -1.3373593093428582
Ni 2.305317858674602 0.6896200071315526 3.9812704219615425 0.7123472707627087 -0.42079008581015914 -0.9005993304670039
Ni 6.8169810632825945 6.065099313787264 13.182970978693314 -1.6405425085701102 0.10658431022015838 1.2460152131112219
Ni 0.8202838501622974 1.28428528983803 10.998358215015392 1.2556702197024825 -1.3261058479162258 -1.4623444906677072
Ni 9.264263260511623 8.281274823620294 6.922321285984958 0.04134565282632234 0.5788404251200935 1.3122301183753982
Ni 4.157982293420744 5.887299136030926 13.035156062022693 3.5567823522423776 -0.5390821713855489 0.41938369238093576
P 0.7911958827102622 8.134362791197896 12.229541052644475 1.1541957199050639 0.44321781868605603 0.551914804373843
Ni 6.588734906992937 5.096124684009734 4.3697855205789375 -1.3848177599351377 -1.2255734003171024 -0.5816845794371079
P 0.8912026591413896 6.177862009060672 2.5173521645671184 -0.6305949319845656 -0.9588828966992453 -0.5832997464430276
Ni 0.3304770655386467 2.996122144319562 8.719742063153301 -0.5083821711985309 -0.625379192111581 0.42448887481798503
P 3.645583835440631 0.44930185051168264 9.002813512699342 -1.3386638870868945 0.37221500511493316 -0.9350582834758219
P 0.3366938289072154 5.712098594035725 6.420343733507554 -1.1356274699845732 -0.10495371659527086 0.8279219574069354
P 4.734169663303168 1.556007791867708 12.725068899480807 1.1834057658101167 -0.2862128899215006 -0.2186173022597138
Ni 6.768529070601903 2.834189994166151 8.920280202013235 1.8900966096179965 2.663485726084374 -2.4460598730296
