# total energy = -381160.48998837336 ev
CRYSTAL
PRIMVEC
9.36437339081582 0.00000000000000 0.00000000000000

0.00000000000000 9.36437339081582 0.00000000000000

0.00000000000000 0.00000000000000 13.70570702283503

PRIMCOORD
 96 1
Ni 4.464727185586587 7.358768033216226 3.321112457531651 0.33497360426497147 -0.4368872484823379 -1.3390163853303068
Ni 5.127490707728739 5.146378648727124 9.54100881778252 -0.8838239107808779 0.17468434832218946 -0.20966163572832278
Ni 2.548973054942727 6.457709303049329 1.7636233309029243 -0.2610453895169375 0.23709247824576585 3.0389223234603984
Ni 2.2386658160416393 3.1356604081850854 5.282220121067619 1.9400976241264714 -0.8401364971952564 0.40385500061771734
Ni 0.8132031160604261 1.1686456979551265 7.063469075444593 -0.013177417922222467 0.10848332701508415 0.34518216936685714
Ni 0.7024834480413836 1.4687644986776107 13.234216522294359 -1.4917445410963792 2.06834373559078 2.6077575792841348
Ni 0.6223571876781293 8.353470496642345 13.426973719272477 0.7032327100559502 0.22004555006580814 0.7759537918697604
Ni 2.6930813960553452 8.058445915009163 7.898434058677131 0.5533098849491568 0.9324293304934071 -2.0171731262542356
Ni 7.679216888429287 2.9736754783932815 2.760631303041886 -0.4602655181969622 0.5079512543086994 0.42924001634972525
Ni 2.305714729055243 2.9315826202932604 12.32968173674888 0.7410590368751043 0.7113789933121685 -0.21784802819385707
Ni 4.207403570963568 6.156916267447379 0.4236199018940779 2.390506047023696 -1.5520353675666367 -1.500019636620978
Ni 0.32095734068465903 2.0822995102453885 4.4779421892241285 -0.4936541209597369 -0.5542840759369679 -0.39593883109443423
Ni 8.797519715384256 5.199249900525282 12.687167624903298 0.12322551832126521 -0.6134230481909694 -0.7836596451544504
Ni 1.9998087456173388 2.49722552794368 9.198941370309234 -0.5244626217001612 -0.2999544078773092 1.2819726050424372
Ni 7.818062451732737 9.200431242105388 6.227023584789229 -0.1257685964580931 0.3892603906329941 -1.4927123043262873
Ni 6.259409333499598 3.7979838047809187 6.783187763175743 -0.1899857545659502 1.230337654474965 1.8822927973028616
Ni 7.594188378629911 4.423008902419603 4.802177997010193 0.5833354847769695 -1.060900670594644 0.8482064186875845
Ni 6.41218908431202 1.8620588139930216 9.263783100529917 -1.3739281096058273 1.055518580347124 0.9061174320717555
Ni 8.52932406332984 8.809140902681724 11.621617122205247 -0.13995491526080414 1.5070243500735852 -2.2976002627318945
Ni 0.7282776143676365 7.713733968508636 2.227985748263425 -0.5670493460224364 1.4677828880744592 1.7751212471206652
Ni 6.004314439728148 7.720747884129752 4.997663035938151 0.21999412800258242 0.9830942038381262 1.00599167726159
Ni 5.909060034256866 8.713071796731088 10.373013722606732 0.21532397622042274 3.511879063971784 0.7622045606044681
Ni 0.8613294398943385 7.220175307992575 11.270065437427467 0.6620683200024985 -0.4928748195915512 0.3095698194798862
Ni 1.6783204449651001 2.742057068549919 2.587390396512323 -0.5593512060472303 -0.4972721773282984 -0.22416985664682684
P 1.9421429346763093 6.513942364871492 13.39016049485361 -0.8826558586147057 -1.3264205509431672 -1.098306879157244
Ni 1.2767292948829216 9.271769038102263 9.42922442051632 -0.40047708528442 -0.5635480177373972 -0.9380119667875071
P 6.764364436353306 6.575382018262868 6.967008538688933 0.4400998418823646 -0.7414087069050393 0.34660681762852563
Ni 8.34346934593026 0.7918935481199572 9.374648852772845 0.8230129501410922 -0.6278083703783639 -0.05795575057917761
P 4.665461892201058 8.852844432993804 1.5526505549312228 0.031959069405099794 -2.883844693625543 -0.8992255900479288
P 9.288446986995732 3.502612741334677 1.4891938155254427 -0.5645121814228794 -0.3834599819011332 -1.2121676684341576
P 6.22658720499224 5.122078099946355 12.830995034816137 -0.08851305454074433 0.8330703343770942 -0.2889092058067412
Ni 6.033634292611611 8.58319730307387 12.650435870532366 -1.8280864864637871 1.2039913032709522 0.9530338941176361
Ni 7.202785666726338 5.139861044892282 8.63046959606046 0.08598257480940676 0.29215676620976133 0.6395469989715309
Ni 5.087261359920577 3.1680143180261475 12.609593156271355 0.5295415788849654 -0.22055102894731693 1.4948638034516513
Ni 7.1657776633422925 5.014827932244568 1.1250264470029803 0.2292660402228116 -1.073423742762319 0.14341202057146912
Ni 3.709827594290686 0.6169867195757129 9.328912317011708 0.6419669212669331 -0.4555632276252864 1.293842617007146
Ni 3.3467427473247007 7.603365464489316 5.336467935744686 0.08751032430784284 0.75238731740373 0.07208370534012747
Ni 9.052577151662401 5.585811231419354 7.3535502043990215 0.2868613221387769 -0.41227870590503835 -0.02455789184502222
Ni 4.527449758123615 1.411960210082566 2.046783251532163 -0.198405088977897 -0.5623434559063348 -1.1401904067649073
Ni 5.849184231210919 7.534181474357402 8.626988858495213 -0.285019898054664 -0.6536903803514484 -1.6594000075962454
Ni 1.072389304537971 3.452625716520904 7.314242310926129 0.9502784428596859 1.4667598461265836 -0.18950110162004782
Ni 6.665036528485249 1.6364336030782496 1.0773168377820714 0.4794107236668453 -1.1421984383338717 -0.9246460870035623
Ni 0.7167004396247988 8.823028268324068 4.787362621971251 0.7595139011461822 0.24671997403320087 -0.6661828563915043
Ni 4.154335667325567 0.8027421746180381 12.89183443187732 0.2542319661395299 1.4459647637581032 -0.639133565583196
Ni 8.028732758446012 8.688209385550763 1.3487844018765638 -1.3702930839564011 -1.3063420350257373 -0.22213817092877872
Ni 5.296555103754939 6.7363649601088 11.22088936734372 0.8836439335595879 -0.6559115563724832 1.9236106822150416
Ni 5.516187115741121 5.554693418857314 4.3537275228051 0.20604897867639999 -1.5148199348586042 0.4996717879087265
Ni 2.937678827328436 5.352591513737258 8.446142207950336 -1.1737510163291722 -1.040046452853454 0.3427087681257001
Ni 6.154181870436209 6.911244631970399 1.6882551086265711 -0.23542048985998165 1.960878308317249 0.14011843742186192
Ni 4.628819099376724 6.040048888339868 7.0992681382322615 0.2698825281925933 -9.255971380629221e-05 -1.3088372906437653
Ni 9.45361580371835 2.8417127294843842 11.07267662140235 -0.2818499849671146 -1.4096949827927916 0.386152955352264
Ni 3.2273750805391686 8.239131498332833 13.591497330672938 -0.14782043405180992 -0.47023882735959016 0.5742553768525723
Ni 0.5350812282805334 5.183255550884606 2.8671379395015957 -0.6623280014217883 -0.7054973377204108 -0.5703596413425919
Ni 0.3382336730336531 8.361505128955987 7.0113048338325425 1.8121693010128983 -1.6701749867245625 1.0362396775128542
Ni 8.344536884489415 7.613132505868252 8.621150171726502 -0.3022583734201375 0.7610123400685797 -1.1923287793313595
Ni 1.1324898525437406 6.65855638214371 9.000565549335564 -0.20155057658541417 0.3699796880265112 -0.011118478510664723
P 7.558004440098548 1.498393375880829 4.360867857466116 -0.5692185857596133 -0.5839592344038975 1.035563734491752
Ni 6.233432561893489 1.118948968714457 7.1155368640113865 -0.974224155042006 0.7426587772620564 -0.07879505592203204
P 3.5555870012394197 2.673322568337649 0.4433478271797984 -1.8090191854196909 -0.5436201684652185 -0.45493793533646165
Ni 5.131395651405648 3.592276615930383 1.4799146579967863 1.279516687302777 1.2214056420926578 -0.008073778147069966
P 4.027888534305637 4.008148435334593 6.3397388007640245 0.005096697796617029 -0.0752001394819221 -0.5183282266676492
P 4.862169918285382 8.877163710521225 6.529316792997991 -0.8600167810589511 0.09959296650398977 0.8859052187899388
P 8.206262547958847 0.5382800982086684 13.34739902049812 -1.990916249440236 1.3231693909957212 0.40703134146317
Ni 3.2228708169694 1.6182105325860046 7.337308635302541 -0.5528738258530027 -1.4592694512868094 -2.2612734032764026
Ni 0.6967945912458858 4.777890558352081 5.27808106805756 -1.5120691115863443 -0.5945061566818084 -0.8658079338194316
Ni 7.620642733275643 7.252594768446918 13.018681423638268 0.22044972748276226 -2.065459472064449 0.14485543788621505
Ni 7.585404596450196 7.004157944110199 10.48812809102763 -0.23601210069739356 -1.8754660041890152 1.7306851282944775
Ni 7.508054872778079 3.268831161253027 13.333774793746233 0.9548210679250458 -0.7366066575307056 -0.6380524167038754
Ni 5.601543378606904 2.6013199018346325 5.0613398381170915 0.5874325376644787 -0.2068102823224567 -1.4332511728461768
Ni 3.764899473820435 2.8192663266221487 3.368931629920473 0.22040730428060107 2.754620791628998 2.377439186537409
Ni 1.7734062917165152 6.342883357326869 6.422042277925557 -0.09136106551250071 0.3622077573905762 1.0419135879691799
Ni 3.6891510579870492 7.2600019877477235 9.679422683475646 -0.3192798476787985 0.4063314871826679 1.0926679357039117
Ni 6.65159865276255 3.974286861388058 10.896324870053915 0.9778733217588191 -0.27419478241470197 0.3046394720578044
Ni 6.325990027846905 0.07599376241452473 2.919246931311023 -0.17315454194122437 0.10899549076481228 0.7951033682150177
Ni 8.181793440458211 6.823116514600143 5.507967068835628 1.3681354141834503 -0.4289538525678742 -0.07760386382740829
Ni 1.5084788059528473 0.794243069387431 11.494153954679454 2.108689486397678 -1.7210103242088748 -2.619500578752676
Ni 8.407605938839502 2.7185805846218316 6.419725531964723 -0.9663653211192196 -0.549319532842841 -0.9329898309825674
Ni 9.224244843473208 4.922195551304545 10.427534976984917 0.1265018750796918 1.4747837448723247 -1.4584577540187915
Ni 0.1999078324497917 0.8691318357494969 1.8255724062032306 -1.166446769358275 1.1077248300370341 1.1355526508825797
Ni 3.791953148359025 5.093207736982538 11.916563979539823 -0.5591791992457402 0.2117552850325579 0.792414508528945
Ni 8.062322765566094 8.193845388928672 3.6656595910616407 0.65892026129182 1.3007964226171598 0.1247902917052238
Ni 4.183037471569518 3.2805553566570813 8.358521639614347 1.2466597886737563 0.4653457609333469 -0.853622190386517
Ni 4.226282147588628 3.061700587656951 10.539003794870032 0.14860822006042793 -1.1453768360618533 0.4413311431863045
Ni 8.624269444481365 3.20815002210105 8.63732244446037 -0.7571975943081798 -0.362971117919162 1.3326868435678532
Ni 2.7036444091669853 8.71228518937171 3.026069147151817 -0.39772780467405694 0.9196393778175904 0.21428525054326325
Ni 6.601461797975562 1.3885211836477822 11.844964917527154 0.6180721169272065 0.21389752818654129 -0.3243660039524543
Ni 2.258246720666143 0.7022034532789385 1.1330123845753268 1.8755392806291118 0.49456531992009667 -0.579055369344377
Ni 7.747342704375371 6.0295982477081385 3.2646995997416295 -0.5327641995873212 -0.062348480330234546 -0.8512431486313792
P 3.277586850312764 8.556059349175348 11.430984701534781 0.16345068438989915 0.7914824836329788 -1.0804567383497004
Ni 1.7471111314173255 4.501744553343959 0.8685184692966491 0.2795190228410928 -0.674817906358683 -1.8200286491563171
P 1.8141600444309292 6.271798399409793 4.073514570461528 0.6651641853190028 2.0642027168392127 0.9098738137903942
Ni 4.440276806832604 0.621271856809655 4.622359554656503 -0.13324279334795117 -1.0140076055875311 0.014070619160453188
P 2.354456292216669 1.0270189157738776 4.3584284382147125 -0.9915292219793569 0.9657174031225756 0.007205002388871463
P 2.4759684004938367 4.361719079001442 10.448120678867292 -1.453728209753606 -0.23087529369146045 -0.8816880953847975
P 4.2385869341388895 5.1673173874838865 2.67543610739731 0.07677802549200326 0.20182362774114274 -0.5573393178235241
Ni 8.952827846994676 6.430458976670895 0.8736754296872346 0.9333371870196571 -0.897042723463997 0.8090919691846258
