# total energy = -340857.9093860365 ev
CRYSTAL
PRIMVEC
9.40349734727504 0.00000000000000 0.00000000000000

0.00000000000000 9.40349734727504 0.00000000000000

0.00000000000000 0.00000000000000 13.76296888781549

PRIMCOORD
 96 1
Ni 3.058901320203546 9.11076663604496 5.325856065753706 0.6792314620453463 -0.8536977808194588 -2.1978445453977953
Ni 7.943012104308019 5.359739688344622 3.297125764815216 0.3376141272116121 -1.1565107411914854 -1.1462330134145615
Ni 3.651284049573109 3.6269760085003373 13.64562588039416 -1.348720242881632 0.7626552749886413 2.0265486539318647
Ni 0.8691492892404085 6.793143024842029 2.673635325320765 -0.886399641927854 -0.0867186816444829 0.3824114860319608
Ni 0.6688388062540026 1.8533071144716973 9.989286510557717 -1.824107190101065 0.19452452297656822 0.38450153579177004
Ni 2.3758030503198526 0.5127304036802353 10.81200979222351 0.7165474248869852 0.2815237119759474 0.2816656368704504
Ni 0.8652054623831859 8.899799169326341 9.058704172060667 1.4590100269778357 1.409395963495134 -0.3308580394347012
Ni 5.807129889551298 4.424825158543038 8.477190945467125 0.19215859384755293 -1.233660805310927 -0.5203537417381103
Ni 8.003702277261082 7.571987706409653 11.082988499374705 -0.41670845954161784 -0.7928071159816733 0.12959131263829296
Ni 3.3775388334533973 0.03954922984288697 8.245973046852873 0.021624006027678888 0.8486368213567838 0.4251589043018162
Ni 9.409891891954 4.668986971484823 5.236479583285519 -1.0202713271090558 -2.7875409393957864 -0.9780098473366835
Ni 5.841132936560637 2.2922435714136054 0.4125887972584272 -0.6563787258168889 -0.39879429826535834 -0.4243996575382884
Ni -0.10179474128470684 0.11122362824163841 2.621254082770758 1.2622067352694197 0.483529116710593 -0.26848410518316984
Ni 1.020448743185698 4.282080066285911 9.813395970264494 1.1303327972445372 -1.3105853836831234 -1.256274943166017
Ni 8.014215387481336 5.269080568815575 8.472511765104336 0.9745491424815927 0.3719321837671917 1.9755641924641978
Ni 5.934274579433288 7.153024278186726 12.327422911236914 -1.571980957450628 -0.3108126907480518 -0.42738933629423165
Ni 7.166113946725719 7.443836842293702 7.022788658672 0.6940150481124241 -0.22611541040897187 -0.3398838970823953
Ni 7.9187604842203285 0.6465600399446755 10.852170249404784 -0.15220390783148627 -0.16633931879160385 -0.11527978111162727
Ni 8.183017571348774 1.71659906761833 13.29311508840066 0.53998797102927 -2.8187903843283713 0.2846751131207355
Ni 2.3549460928345884 5.013032735016542 5.737603249984662 -1.4743379155841576 0.473479702894391 0.3644237912052885
Ni 7.9797891830838825 7.406796465587456 4.134616298976437 -0.007216058132464992 0.172687886717451 0.6629957169127743
Ni 3.332655939820771 1.323053293174785 13.106599536266769 0.0687430710026687 -0.48034506255565657 0.10400369397717574
Ni 2.3704618637321024 7.268546245141851 6.640742421337891 0.09725891905417443 0.9269361685893197 -0.00788711605756061
Ni 5.655442071158695 1.7914697148219696 10.694006242274533 0.028833122181608408 1.6520384250248514 -1.2577294162243564
P 5.195564025253899 5.210017200932371 13.86509034746611 -0.13395138937920156 0.8646123708494335 -1.9285346018792204
P 5.3799384010039315 1.7256922497140248 8.287234653592995 -0.14106408916458288 -0.8260561078427903 -0.11429273460800962
P 3.040620921037021 6.78122879349224 2.1939685592482556 -0.394754580978346 -1.5426966066642143 1.6211749026767759
P 4.375795322506893 8.89520085904217 12.680786600454903 -0.28486563186498687 -1.0175022490043508 -0.5822497079119585
P 5.232886506885555 8.46165260617558 3.9378057977646095 -0.33021937740943774 1.1797342304958005 -0.0808326551773511
P 0.36826541172786276 0.4173704757441155 11.991124689306687 0.7270771207737156 -0.018913291964735172 0.19247561086733947
P 0.33477015358426027 3.095170610113674 0.5731450541561485 -0.08756894545992015 -0.9124567440262221 1.4515173181452163
P 6.982905604667379 2.9363455371082146 5.544494905743957 -0.2537048899914663 -0.23059118679213836 0.6887466006246332
Ni 2.2813543212928047 5.3716445161968975 8.127322536274958 -0.13812326136870406 -0.5343857943511442 -0.30293585910313636
Ni 3.932580274196277 7.159531498466167 0.3098856781139022 2.690676170456237 1.7277517566977665 -0.9134080521958979
Ni 7.335433322956406 2.4922841740213695 7.542850029013873 0.4409835300388987 -0.014096330192066044 1.4774309526871847
Ni 4.92943564212024 1.4001713762841854 4.419069277714935 -0.36035373490097294 0.11535717131678197 -2.1654139356729156
Ni 0.7936373235063385 8.690750016100505 4.766749493035679 -0.28869451869277374 0.07307975070480961 0.10107135082172916
Ni 7.768981575822996 3.8252675605705635 13.354786986494146 -1.1532133013871366 0.7180201527777699 0.1758745119755487
Ni 1.9586733041120863 2.3676502179755228 8.119559949077445 -0.376609534638203 0.27474576982216553 0.15817863735768242
Ni 2.2210684987328286 1.9654626293169377 1.984909062175155 1.2623003234244905 2.8007453539012026 -2.018038302468008
Ni 3.481325235511494 6.54234234265561 11.976673394327717 0.25662257785889353 -1.631518707804945 -1.7151178699838399
Ni 6.594080385975683 9.225827831621919 8.528471978808037 0.4215683587370804 0.7006119846036516 0.28332785506422176
Ni 0.945672130957195 2.5870902359539354 6.083479874482289 1.2438644853168062 0.11304729223668274 0.8846134965617087
Ni 6.296177584743418 0.6750169041204672 6.0840309194365885 1.6827541089411535 0.37347921653933747 0.37068597006491644
Ni 3.6962045571957898 1.4880094465591407 6.401101810000666 0.9562984238015206 3.0189710771494522 1.6731566950607055
Ni 5.05637345505693 3.8444318885033715 11.917988047044563 2.877181679783071 1.8435632419431474 -0.9878188630073053
Ni 4.105595224949826 5.495827104362089 9.527635905371598 -0.5403013885046308 0.08224470503352932 1.6569230068106626
Ni 1.1542605128048622 2.450034259692564 12.536729720294623 0.20632897181066398 -1.8367058527016822 -1.4994905035903852
Ni 7.824123685243008 6.019611319369614 12.970152906644282 -0.24932475864589962 0.5929827780587466 1.1398708186419595
Ni 3.836109793203796 3.0900457039687375 9.16378355502689 0.8197378789342462 -0.8996271963617217 3.4908394696926655
Ni 4.950696949998591 8.312071171226034 6.815780064406625 0.14207299004507143 -0.38038957050592553 -1.523827280563537
Ni 9.085593473200934 7.980155919486915 13.174381827044623 -0.268128521615964 1.822895686291467 2.030583743233187
Ni 1.0164710637374261 6.723999107624199 9.886435756502229 -0.1555849084885772 -0.3630523647790586 0.21451536427619827
Ni 7.564239224458409 2.2796993057304036 2.065491393768582 0.8983071919987174 -0.03637699596713735 -0.5559570927640167
Ni 1.5502041791143868 4.525734090361959 12.175630714021908 1.139654074645463 2.225642284336354 0.26421118883942885
Ni 5.309891748024792 7.01332591912402 2.092659038435253 1.831345359720717 0.4577959736105471 1.056308166127955
P 7.820211830277333 2.60343351463265 9.785732761278854 0.5104922755629983 0.5507033005642451 -0.12487770921270752
P 6.660882832312615 5.547734410637408 10.823735953623023 -0.088578360561041 -0.8197684750618657 0.7268009842941935
P 2.230001821370791 0.6843310684077323 3.403637300452767 -0.19805876138207182 -3.197945053985931 2.355677883600917
P 8.445093047054051 7.900846821456836 9.111305456452493 -0.9217386835487804 0.036465956136517846 -2.702383431590836
P 5.9148751640626385 6.422739257779562 5.354854571386284 0.039979625716731144 0.5205848839123098 0.20507144525447907
P 8.059549648994617 0.05649433236247475 4.610595013324094 0.2724114652620341 1.2446342736032951 0.7306031316491031
P 4.819095002295133 2.607693299006331 2.434297506603479 0.043594339651182985 -0.5982399126926277 -0.30171844175626744
P 3.8062818990905147 3.735022194932115 7.2514328200167695 -0.5042828043181766 1.1699321568037142 -2.4438610656060686
Ni 8.787352146058177 4.80200884731284 11.183733810336891 -2.0642222572232383 -0.41028250141061606 -0.33936941933982195
Ni 5.951247892445417 4.597116039988036 1.9269393210527894 1.420022847081361 0.7101659468406737 -2.0715385883789934
Ni 1.084204456328209 0.8063169995537371 0.4626962741096344 -1.7625884047609772 -0.13866550702541924 -1.444638331637196
Ni 4.198398341911986 0.2765512197777831 1.7152788165674144 0.714045484400738 0.685255299641923 0.5466692397041876
Ni 7.2153318527121355 5.086887804488708 6.396064356382607 -0.5618585458501162 -1.2365669232141283 -1.395353369359139
Ni 5.274130246980401 8.969667155852722 10.524404761118436 0.8496547210983368 -0.5838093390895945 1.1627808904709136
Ni 2.024084032816999 6.178267129419828 0.2596136400562062 -2.5896783531849206 -0.7866040724947551 -0.8040662338352604
Ni 6.111511700570464 6.787350470373624 9.194998465023433 0.2739623546889217 1.299601373867794 -0.2591224614626118
Ni 8.856007081405298 2.2566325263294327 4.644094032866702 -2.696950690611039 -1.9476145013288069 -0.6849040869500914
Ni 3.851710195578933 4.595404603440552 2.7978602292247685 1.4962159466041716 0.2851520527571541 -0.16006865529154368
Ni 6.7081071968261385 8.62468104256964 0.3579958520932114 -1.1305084035904531 1.5187789195063521 -1.6409672548123544
Ni 2.3716749149113623 3.489073717462737 3.994495722875368 -0.1928211671322163 -1.5653498252873557 1.311840082025831
Ni 9.155734161155209 4.9950720547654806 1.1059519250280152 -0.7633641281302078 1.8517717458958687 0.6565731012158822
Ni 1.9851629566080233 8.157571707076851 12.540115919749287 0.18914063295683553 1.4026923262227133 -0.15022338706634775
Ni 0.36372916452728055 3.3034862905334452 3.003974550876596 -1.0270230440105927 0.8347963159292656 -1.8692760733282194
Ni 9.46809954156346 6.382840217829168 6.700790335410772 -1.1133306062595858 1.105585157986212 4.293152468282245
Ni 8.967052983543928 9.244305704236229 6.941119282765996 -0.2553809921423086 0.11164938344789159 -0.2996096229433808
Ni 1.9655754712871014 4.449283655576028 1.733143581143837 -0.613938297264491 -0.20352904046802367 -0.4674160131988144
Ni 6.990381385190726 -0.0989426604888184 2.6021236074289993 -1.3737563599146534 -0.5477982111023082 0.8940579298040603
Ni 4.376500584820417 4.553361566057046 5.183437274860303 2.6255971785687167 -1.5256185681360048 0.6097872512105951
Ni 3.4819928838349625 7.884484735783094 9.88885809746174 -2.5434116089078973 -0.3348139387586556 3.6915716641418426
Ni 2.145097642320093 8.442215576814876 1.323355145444973 -0.6089431580427448 0.8847448799332506 0.6179160509653164
Ni 4.000605175209983 6.556372360945969 4.138277080558498 -0.2506005400345297 1.3120570831326435 0.6649500124256678
Ni 6.482799396399211 3.5233024484124043 3.698660750746354 -0.5355710729084969 -1.0101977449231379 1.147871834569565
P 7.6345303683729036 7.193534545475507 1.4369089603704925 1.3482433032452135 -1.864961762223582 1.6040652395796826
P 6.318078330452697 0.8227054150205172 12.465836752539255 0.4889011796557839 0.2347869700410408 0.8591536617277075
P 3.1796704387712853 3.1312236195809873 11.533023904431971 -1.6603063214605986 -1.125447701238094 -0.8322509237995925
P 0.3030333494757093 4.219368141367414 7.595466359001721 0.8545398171047799 -0.16805655859302668 -0.30236944507670505
P 0.6107449389644569 6.495400083067496 12.028477262130385 0.4021243910798558 -0.5737015612316313 -0.18562619204567385
P 1.7233413753356135 0.5251890975360631 6.929971436463569 -1.2951772766581695 -0.5465805366451232 -0.2420523933542025
P 0.7615262601967445 6.520516824926441 4.893272611732017 1.938156441239701 1.5044594175598864 -3.5730638630112206
P 3.9573208761546765 7.153597891535058 8.176868624324602 0.0009091420778306923 -1.773799185875132 -2.0782864486257884
