# total energy = -340863.4505444887 ev
CRYSTAL
PRIMVEC
9.35366640735699 0.00000000000000 0.00000000000000
0.00000000000000 9.35366640735699 0.00000000000000
0.00000000000000 0.00000000000000 13.69003627025866
PRIMCOORD
 96 1
Ni 3.0830152412827103 5.45723769744784 8.478075376148361 -0.7105238444007247 -0.22764290279709182 0.8594411110611393
Ni 6.258594366085797 3.2345820529807883 9.230424444612847 -3.66638153802946 1.3258649355500132 -1.3879563055641193
Ni 4.967601318037861 8.020769009571833 9.758997331493548 -0.39062924595606274 0.03315566081636225 -0.05871551156333758
Ni 9.371157839789776 8.29799297680879 1.448871713889056 -0.911879017145881 -1.393148134177704 -0.03043826188519919
Ni 8.651870240877747 8.513501452587839 10.546653684833172 0.19774123014165298 1.5913796736922141 -0.18367626740815463
Ni 4.4605297043027035 1.4282674573592777 1.0964901010908046 -1.698484375192217 -0.5156283112379829 0.17505741539089206
Ni 2.788842430377714 6.619683307013506 4.552730665563521 -0.666374146466704 0.6649988633857321 0.8156387691642082
Ni 0.7097618249652671 8.598975256913748 5.322083764328299 -1.2477216542793672 -0.9238737276139122 0.502296112905451
Ni 8.191043154236842 2.4581435518547843 9.510413355662315 2.6976705994961994 -2.2529160324506425 -0.7989749353552821
Ni 5.19576530456904 1.3199800604801952 12.21018456158458 0.024619598320893082 0.20644518567355413 0.02910205957227891
Ni 1.119979963730732 3.5018724264123042 3.6100625451599586 1.1823894087304605 -1.0052172609894108 0.705305790534895
Ni 7.974552543477029 4.791312765823984 9.807007830819883 -0.5603583071555059 0.755240470581809 -0.37546436529016625
Ni 2.1960257559886256 7.471858445656132 6.634369498759196 0.22418913992053646 0.0531272188422827 0.9921799681894782
Ni 7.483821785088485 6.821984405717903 4.290224692538298 0.5165557081482587 -0.027813165557526293 -0.20163516587942046
Ni 8.75246892390742 3.722291577095173 2.198728965602347 -1.320565634824287 2.290644657349668 -1.7599838772585945
Ni 9.227148790610338 5.850858690405045 7.67978203328374 -1.7394271361531657 -1.8536478798726592 1.4452371415634593
Ni 6.49338074848727 5.237847450078153 5.9235694168142645 -0.6718837634310234 -0.7370026074175436 0.501636110723949
Ni 3.074849490442645 6.253730459514395 13.264851613727863 0.7759306519413088 -0.33300285369184585 -0.27758658170507033
Ni 0.6033330016164493 7.743227017674439 8.331413627154213 0.9548560349280394 1.9628891680996903 1.9140502922201166
Ni 6.64274009489525 1.6579093231948439 1.65973890035901 -0.31911169753205043 0.5890777865773855 2.935140772796358
Ni 0.7361167156490799 6.2340690525661495 3.3280345348170943 -1.473118955575392 -2.37501772158011 -1.0133545453845645
Ni 0.8584140341870972 3.654271714427411 13.497636311501875 -0.06059215976076017 0.5232521463318279 0.061568150520784286
Ni 8.538887303423966 4.414229055209548 4.527089459632396 -2.529342789519657 -0.41322384342712704 -0.7039937565916908
Ni 6.64822134345456 2.6587329295927065 5.812570392021626 -0.8683875216211495 0.491192803903438 -1.0195280211851279
P 7.90748675479058 7.000321410891659 9.203633673070904 0.6266274626963853 -1.926898351827378 0.3745194848783937
P 1.7008239450209846 7.7988065039191925 13.605541143421783 -0.9414155931524174 0.3385278972751331 0.617409286532227
P 7.269968908277009 1.4724261168277193 7.422422447557719 -0.23956485104565842 0.9137970601042004 1.6270442169733592
P 1.976382959623884 3.8012739368815573 9.4998998345349 0.9180108410752319 0.7143956686513051 1.720923163811707
P 1.6254895151631519 1.2754659616853823 6.327138034076634 -0.21957400974602828 0.6839574067661061 -0.6913860951300094
P 4.570248212153756 6.822358552377241 11.589628653872126 0.6036001485632766 -0.39190194202089923 0.893217693290952
P 7.907280974127944 4.755020539868137 12.04810797022568 0.2914597401427368 -0.688058573418673 0.9380286789580554
P 1.431344813632338 8.094129815801654 3.356290090530347 0.22744441363304055 2.6384632358981075 -1.1197125985265297
Ni 4.050399490002183 1.072220142666156 5.631122357375467 -0.2312812708806275 -4.170256051165625 -0.7433424335926424
Ni 5.282501853870218 3.5571900099955203 3.693859237085382 1.6435118756110791 -0.8170965846566574 -0.611091057623683
Ni 0.43631580362098255 3.4743445859514646 11.126234921148157 -0.7469219234137846 -0.6656380396316278 -0.6906502454052493
Ni 6.936651003138708 2.8909096390452915 11.331517033360834 -0.8339259975091703 0.04258518166037827 -0.1889092336723198
Ni 3.2503242736724616 4.569266077172991 3.545678452654319 -0.8033465820604164 -1.5919085496124907 0.4133351721940107
Ni 2.831841235202206 0.4295690039864587 7.86116085079792 0.39333121826825806 -0.08324666393548244 0.5889062939965277
Ni 0.6415455353013516 -0.1891180411625995 12.358433627780972 0.4112597777222207 0.5433939113870254 0.422253300619247
Ni 7.437352769998627 5.236537936770467 0.8293680936559912 -0.5027925929258954 -0.2199455341528341 -0.6979619485753141
Ni 8.273374126624308 8.946155295780544 3.696871117693058 0.4064566999066226 0.11507255019682762 -0.3842472536891189
Ni 8.807000799506024 1.6295957747493934 5.014673644615904 -0.3736116283521436 0.10415770305653675 0.8752315411261766
Ni -0.18662715977805258 0.3451016541741701 7.3024710285737555 0.5701133296597407 1.0181257415209628 0.12491036222285583
Ni 3.094342531394187 6.321338760856885 2.154072691076985 -1.1297764105204349 1.6882490706174538 -0.8742820327287136
Ni 6.279658823006562 0.695511514077707 9.997436320656814 0.485386481634306 2.14921032932986 2.260624199728178
Ni 7.1586322161243165 6.732273390474983 11.338553796656345 -1.6838015763690615 -0.054650597465344584 0.4919625921899269
Ni 0.0027060157136666253 5.999413621495446 13.48098959126125 2.060780578531541 0.3203813082730934 -0.42717027830489007
Ni 2.709560753263859 7.282951797356059 10.697448819046366 -1.074311544683911 0.7126311205517146 0.43370653676151116
Ni 5.9393350216721466 6.373897012827478 8.24021070210718 2.492406835725256 0.7976017091568393 -1.7954298767710306
Ni 5.6867486119526385 8.416494577487816 12.577446922391376 2.314552060094885 -0.7796536093188509 0.2648261967156084
Ni 1.9141062481769695 5.219317836774407 11.394244591532251 1.836016025723509 -1.4872191424222 -0.032981340022027066
Ni 5.242496222320435 8.812472694398853 7.352645030957714 -1.9199363186872482 -0.41932532833917463 -0.7514030991135897
Ni 5.1213381803601035 5.811741657171191 1.1688098442410162 -0.23221123889406464 1.0297952074390908 0.44770285104060314
Ni 2.616884625745681 1.048097036805298 11.26985672853518 -0.7577665794377724 -0.5418692472123829 -1.516305518265195
Ni 7.66323446190784 0.3164382786022378 0.34061189426210653 1.2924519073072065 -1.6409649408195093 0.2943167499755576
Ni 5.641673293168817 3.587720377397552 0.89748616982183 0.25198096532182407 -0.5220187881453591 -0.15943976345829317
P 7.701172933164777 7.376207852196212 13.480469527404772 -0.3400307070729047 0.6656447244998471 0.15422788024005052
P 6.794709114252117 5.338446133107826 2.9158680273231234 -0.15052240636400527 -1.234840170331009 -0.0971589031412004
P 9.699377996694588 0.8681427826965499 9.472109156045875 -0.2775091914999156 -2.30766073229169 2.104090039952454
P 3.0861300122217044 2.3099159990913036 3.060243740228713 0.8183368848216617 0.048567624496058295 -0.0694444679450675
P 7.651392720139773 7.0005926672196805 6.44183269249689 0.31427288138251036 -0.0687448707748816 0.3983854928627139
P 4.76271860738403 8.120572630950413 1.4509388741819018 -1.2618310970975557 0.2624916350451608 -0.8046095079332402
P 6.587965023968075 1.525891674447209 3.9952998468480314 0.7352280320156241 -0.7384151714943541 -1.1195683596391814
P 4.165805027075183 3.050876043245522 13.001496327785944 -0.0560734459548002 0.2756428277151382 0.09057199395230207
Ni 0.42819588574668593 3.4083077005781965 6.243902562140218 1.4069793836338413 0.3161269038721136 -0.26862500163640834
Ni 3.3026954523133853 4.210113345207359 1.018972525475731 -0.8223161811843838 -1.0401336132506216 -0.38775963771775157
Ni 5.952448862081965 8.733855127605324 3.2679484520606072 -0.9418398251740296 2.2670357596814763 2.8345584457959054
Ni 4.9717075776241035 6.126632839337063 3.9440445606185848 1.478199455422093 0.8057402791035736 0.00653471579472423
Ni 0.03711441323974353 6.217896563216238 11.001258712529276 0.47055584437937664 0.8123287309543687 -0.2883548759651679
Ni 7.217008448647626 8.86776221698262 8.520281925421703 0.7291034071751249 -1.289387923669902 -1.976164545052358
Ni 2.365850924662429 1.7758497038848629 13.355712194581601 -0.39313170066294223 0.5829004541220799 0.9166862087265373
Ni 4.007400685177691 2.961801077323478 10.709428059711739 0.017202479921215534 0.8250765175383403 -0.07947408426692765
Ni 0.3960136608436739 5.8704733290208715 5.631848201894584 1.8257220999966688 0.9267515633823394 -0.7714692737358456
Ni 7.143245434759016 9.212182924236792 5.988541854941714 0.04354034648479598 -0.7323658799764806 -1.6131880278165573
Ni 4.972801956602669 1.8845299547562506 7.757239745433319 0.10826786857016837 0.05929555243652368 0.29902264009165924
Ni 5.093810339899265 5.412798427984895 9.960952344538057 -0.6423780406624228 -1.519326821590022 1.641252133042625
Ni 8.824407972831755 1.6244980265159046 2.705096248251301 0.1901323074461435 -2.3431509547785003 1.6991451487046672
Ni 3.5788531015712266 8.575815578700688 3.2992168237481847 -0.3500670082629842 0.6680731314356817 0.02118768982120867
Ni 3.9010214362612357 3.1104308377457484 5.6688391467367465 0.5311086662617691 3.102496962888251 0.45835133189338484
Ni 1.7283704928147912 0.9721920332919739 4.244883729626347 0.7451375778198521 0.9492003793041589 -1.9065853513016389
Ni 7.858641908413922 3.7958862249870813 7.573670299228712 0.07848909464583902 0.07429485405883333 -0.5936227256355906
Ni 6.78602891175546 7.508216147277364 1.7527077976381205 2.269796096035433 -1.595788087172555 -1.1275873732889161
Ni 7.595635514231834 2.6811162534876396 13.374343762850017 1.1762629841177485 0.6480144130125937 1.6515360314671363
Ni 1.9333373864669747 0.12578810686964667 1.482055716472447 0.9949356765577446 0.8705071390673137 0.18501658348613298
Ni 4.23910035763962 6.368490593600035 6.6968922116346254 0.5369934071773202 -0.5157095580978797 -1.493327055092151
Ni 3.543421412931859 8.843105952132204 12.907500397926947 -1.5861536494065844 -0.15514884939242313 1.0517478004507823
Ni 5.411049292352486 4.915164663731553 12.39475391473627 0.10517714545998659 -0.3289878189951818 0.22005789136098228
Ni 1.1290343128867268 2.2971201833419226 8.287729198576482 0.263115641782405 0.8939360595142153 -0.8153973425773634
P 0.01691610583534771 1.9210560223741844 0.8159278102858993 1.1080662725368529 -0.4478782002762029 -2.002744352423415
P 4.531870118572096 8.039270561876128 5.282724471132525 0.3690903434430224 0.6417257517904045 -0.27071787960969507
P 7.504278253687825 0.5950624897117689 12.017127691465792 -0.7692169873665592 0.8121711223305819 -2.0972262229530845
P 2.665514337793219 4.825070148162811 5.799167523317467 -1.810001089716986 0.8950688875670778 0.1721474408329487
P 4.218597120707863 0.847469309034794 9.856812363377744 -0.8109621896241452 0.6081425165183204 -0.8447976501163516
P 2.9313829539192477 7.776254814027556 8.662206042341976 0.13830683813441988 -0.44796998865906074 -0.5790538266824802
P 1.2516141121525448 4.772942164850457 1.671306579699112 0.3409331642825161 0.6900177540275729 0.32076671663697015
P 4.9439458955011775 4.31499600748646 7.675223056239698 0.5427565349133426 -0.17456993423151226 -0.24836188051199806
