# total energy = -340886.984580306 ev
CRYSTAL
PRIMVEC
9.09063548618284 0.00000000000000 0.00000000000000
0.00000000000000 9.09063548618284 0.00000000000000
0.00000000000000 0.00000000000000 13.30506392954962
PRIMCOORD
 96 1
Ni 6.125060945365772 2.3351387480114965 11.178156000436472 0.7674256997940913 -0.04465363415363278 -1.130912066786775
Ni 4.641751082615355 0.24816979694767394 6.2470599975819985 -0.309483430413667 0.23892490346881431 -1.7195298830086063
Ni 2.9002489975565506 1.6602954403900902 4.666272162132807 -0.23244392373016096 -0.7250104680526739 -1.0017259600067006
Ni 3.681643640917574 4.63956933015588 4.922753526887556 1.1551979359173332 -1.1874516537447164 -1.1113984222338793
Ni 3.9116276220519977 2.6753375908904062 2.297012623782168 0.9699671795378649 -0.13108049558930973 0.640078960215601
Ni 5.3621475634635525 4.663959504525763 2.697282384378627 -0.6799009773085452 -1.8749163023331321 -1.04838016953013
Ni 5.666711116171036 4.722712280132379 11.547890317235527 -1.5970926649165913 0.6700220276319363 -1.0377792540858322
Ni 5.673247282914213 7.922924968961018 12.243253006738296 -0.8005116837147827 0.18453861540844993 0.906286096439136
Ni 1.8846068651298788 6.741224202462545 0.14672285289970358 0.815366232229112 -0.40301296433239625 0.5986428045580012
Ni 2.7294814144263815 1.5948155947000926 0.1257607570817713 0.07952807743331465 0.34574806917265616 1.2531425681846224
Ni 7.820528053529652 8.858060435633057 7.137168638808094 0.36111555276766194 -0.10833625991425858 -0.32794729354580937
Ni 9.058008957908706 2.627484486945918 1.1162136483002776 -0.813976808080753 0.09964978788385419 1.3864396118092768
Ni 6.8965740682124235 0.6646099795229429 4.969414848551056 0.621906145961316 0.48492342595495835 -1.559322131036037
Ni 1.1970184868910387 7.479201971880014 2.5554766560844655 -1.6809941888272533 -0.8175534696884179 -0.437715143700272
Ni 7.693331885142251 3.757868617470487 3.60082880262804 -1.0314635962804495 -0.012515358858191349 -0.16808715472064598
Ni 7.694313673749015 3.8411933801519416 12.496820822896122 0.914243917833632 0.28890972002737336 0.594445478647202
Ni 8.185117070778444 7.2126463651436366 9.295209994366369 0.26927086275052337 0.764906018696031 0.1760768577943419
Ni 6.820649082622688 0.9810068121325036 13.082244096902416 0.49291595724213166 -0.3894167137052003 0.5415231767268739
Ni 1.949968532561655 6.308964496429032 9.282823094777699 0.09484799561983664 0.5043540238757442 -1.0641929681926705
Ni 0.040935130520902425 5.049220626328082 1.5891703102112005 0.6216405510047552 -1.2707839354154695 -0.15049155312606988
Ni 6.322773171370459 2.028466167926521 6.892076021891805 2.585495682562141 0.14888178543678876 -0.7672439228005883
Ni 3.7304058083868434 4.244990307224552 0.40281877471994576 -1.377886322922627 1.995677418274305 -0.28736063037269866
Ni 6.2919650085156205 5.661502182174038 4.550637463653573 -0.20573041899471667 0.9652474054646925 2.172914100704703
Ni 5.849432884652078 3.3823708379243187 8.763579645375485 -0.41761914428134533 -0.39620699715415636 1.0521545489708977
P 0.3104670112374124 5.457199245614687 12.733251882548295 -0.5736046306424509 1.770380132891254 -0.35958008995974206
P 4.145066044580591 6.269674770887983 12.624136987668795 -0.3094584907130025 -0.6287311393029494 -0.037929685166237896
P 2.456598725557527 8.594931998385107 1.1513534988506993 -0.37227928269396526 1.1732643065007407 -0.30804386975366305
P 6.448105759532059 7.821255304349477 5.606753831394084 -0.7497876749973539 -0.9882785762525431 1.3285471103678668
P 4.669568426473663 1.2705435447753513 12.392469420886476 -0.7721943248273282 -1.4761099198829157 -1.1798026218398907
P 4.080513443685869 6.400098114788357 8.260861152726747 -0.4667529256935188 0.5179973256907917 -0.6529560732885852
P 4.631487755420574 0.9310083182695317 3.3502281698151006 0.9140976220637548 0.5615027051725943 0.8008711239367303
P 0.2490088625810471 5.545169322907774 3.6924078621145093 0.47424074943013167 1.3173651256091183 0.652458050606244
Ni 0.7879653545181428 9.19608661668774 4.771235363894631 -0.37245617459146174 0.1708012112176994 -1.1996317407506758
Ni 2.3446111899397177 6.6960255640104185 4.525105505496566 -1.4750179723703178 -1.913703964624291 0.9613411284317508
Ni 6.032191015674113 5.873523068058783 9.150983429905715 0.8183060315837263 -0.6308859808624232 0.35085016628591187
Ni 8.986402024061682 2.4794980357467686 9.7604487069519 -0.04551572504361193 1.359898885206271 1.4739062273633778
Ni 2.651492854635393 5.503534213472791 6.771585106063191 -0.19843517088488405 0.496771583542796 1.6989839405364544
Ni 0.44752379167811623 0.2593494601754345 8.877058954237462 -0.5047222058484405 -0.8089754982114197 -0.37835762767756126
Ni 1.7893733702737888 1.6838947294934132 11.34207469897094 -1.2245094778289622 -1.9777416597314903 -1.2776166420665866
Ni 4.037042025930827 7.060869119046149 1.4823571641764461 0.8217844770506297 -0.5696592728414577 -0.8634959978568032
Ni 5.69437391923013 8.120809917035414 8.062283498246469 -0.6308247886071846 -0.7155022714519226 0.3927254663634591
Ni 5.191343617792393 2.444880896723096 4.764024672016065 0.6341546243113658 0.9962613373477037 -0.9506630798926144
Ni 0.8363657147045493 7.667250852616275 6.470332362712962 -0.7794047265328383 -1.2640034221585263 0.7479591064290473
Ni 5.2686321986693 4.80630067123602 6.815545599994565 -1.063088422274582 0.8995132964916767 1.169613597122031
Ni 1.1216662113219158 7.610607104387151 11.358572383818672 -0.8711766543305125 -1.302138795577667 -0.820403280432387
Ni 4.412648893099969 0.3047926367157274 10.120443317146448 0.5349234120221691 0.3591167771700783 0.05031134666004238
Ni 8.183153493564916 7.385750241532494 4.414367023161806 1.403577557041144 0.523430323780905 2.024364244686036
Ni 7.263208478391974 6.188204497797082 7.022239373624092 0.31982260755614594 1.3621115765868734 -1.016444754274114
Ni 2.7305359281151276 5.236587709420759 2.5438751873812064 -1.079429839747083 -1.0274513897972628 -0.4602606331009557
Ni 2.4504170935890146 5.351638789117081 11.348274512209947 1.1179364804627134 0.9997392685939751 1.4383278160381356
Ni 0.911872531072885 3.424915010884084 3.7802479433235527 1.495071034366451 -0.1218090975897128 -0.4812968849459646
Ni 1.3989305863802157 1.162710429465792 2.32967709435461 0.3147310519658515 -0.20479248056147956 1.1006977479869238
Ni 1.3515774673743572 3.5161849887721277 7.749693823678692 -0.3287872729486015 0.09203777986455117 0.9527952957442687
Ni 3.9925706382985253 2.849614159226231 6.788975491292257 -0.9941460907769137 -0.9365289544840775 0.6376333268885858
Ni 4.356432404727493 6.9237187050623925 5.958273242347095 1.0020121237885518 0.802839817627327 -0.10833960234836824
Ni 0.49936132105172093 0.1754438059016443 0.14155664488837139 0.2966703378093987 -0.35817035409640896 0.42262173970225925
P 0.21351084100186168 5.960838619614028 7.976651532339119 0.3613829474964357 -0.5432275610124903 -1.0703954974589565
P 8.487117064346043 1.7639741353913987 7.85528337020909 -0.36102016484037824 0.8151983391926799 -1.8808064425653221
P 1.918796744296904 3.712815429182325 10.166319207924536 0.31328429221699594 -1.5156110633013318 -1.1301052546147634
P 4.3744591344239065 6.23256679780641 3.582029368935563 -0.8540294531272647 2.181315694504837 0.3710472100590771
P 7.277717132247483 4.122593994247996 10.258762786823072 -0.4866149547247684 -0.031356917044726644 -1.0519249494585947
P 6.394380105217484 8.058439068600169 10.231886323712912 0.42798788911017904 -0.26372293634910066 -0.04754535387913102
P 2.730035943176498 8.550651514093008 5.50093883710954 -0.45230024060329843 0.7492320596042 1.6127267719094225
P 6.924327777623996 3.816030501785995 1.5313193256211675 1.2883445700070522 -0.16107575639981936 -0.7037608146452783
Ni 5.485689296481333 2.935093402461418 0.13543228392191967 0.5390394910730717 0.3785098369847094 0.9945579815033515
Ni 1.7924460049875495 1.220154153596723 6.814561084197227 -0.678465016192967 0.38130771144482073 -0.26046252043027396
Ni 6.860256980397409 0.9693435271095595 9.351211034683471 0.15979046192949256 -0.3315560939429903 -0.7302647744730777
Ni 2.6788829386370536 1.7778737166853051 9.116363563691468 0.5967815829795463 0.7338478638386459 -1.0654366107917845
Ni 6.588565164746019 1.665849818526504 2.372333082127924 0.27201525826487993 0.34031481397222685 0.13900823507681867
Ni 4.284425482929565 6.876874661630412 10.426699546137073 -0.2382952403046154 0.2303541310806678 0.4318337452188305
Ni 8.342494148188585 7.1035405608993845 0.6402288957883081 0.7171418639378747 0.11392069598057156 -0.8195170211726919
Ni 7.992941041639675 4.101194638874644 7.814675502557109 0.23113240400758903 -0.8809363048204376 0.33645301702397545
Ni 3.0325631935884703 8.616140450418255 12.074877169741828 1.2236031639646088 0.3737594667839176 0.6288069868462074
Ni 0.05980819835888722 5.156453759711286 10.600663396620371 0.9264062642277788 -1.1087211325120323 -1.7462192193743344
Ni -0.6390489313331419 2.6230755288507286 5.6981328969051015 1.2668028392805346 -0.5599916678447066 0.7753706656727808
Ni 3.8059489872961705 3.1017701997300713 11.48934844436666 -0.468485077893277 0.2192297390327321 -0.6633019352992834
Ni 1.2740434393457591 3.5817557408146032 12.416511423926368 -0.5520562150477137 0.18862435544204934 1.5506431152048004
Ni 2.6032670346457443 8.304604380475698 7.831865893810725 1.7075146037152853 -0.4765154043969213 0.8416886721737246
Ni 5.737808974444182 8.06782969481116 3.278939408201751 -0.00431996753159256 0.04237615097336573 -0.08032923317837133
Ni 3.1684500092727808 8.431827820768845 3.356561615392252 1.3065204695851307 1.3111595110190386 -0.8201857651049423
Ni 3.65547170203912 4.340505611773325 8.694938985809824 -0.7227227004597617 -0.38732666394539106 1.632654878291917
Ni 7.657487510360124 6.5224489745886745 11.634333167806982 -0.791213032021676 0.4508126003141784 0.1743238796589772
Ni 8.071465948910285 8.715255646525161 2.437593843508449 0.5726954885646202 1.150862798877089 0.13223826334283678
Ni 4.619933558020604 0.3965735083046981 1.2067881925918635 0.430373101512904 -0.3595451229567485 -0.5135719429295865
Ni 6.230957755367547 5.5316879108352675 0.31486051525268044 -0.34985643491407487 1.1295851204452352 1.1503195247791091
Ni 8.47907185215173 9.085399041910367 11.282613762878519 -1.3364301126603695 1.005373584061617 -0.6601932144669728
Ni 9.67616306412475 5.09749189949397 5.9182389937792514 -1.4036102100512924 -0.3510409421404793 -1.2159163368433124
Ni 7.404467859507741 6.291546839294222 2.683498254152368 -0.523620328304524 -0.9699589520077487 -2.3338235067299875
P 8.661039097907203 1.5312084198711442 3.731059425061161 -0.8748780144414998 0.35040639388027395 -1.2842601155250333
P 2.075264758182263 3.249811194740708 1.5524077812690444 -1.4358898960206044 0.6920718083431242 -0.20927879846760733
P 4.917197330624093 1.1948276437963157 8.067645154915628 -2.0627706123783764 0.26870393450345986 3.450298572155826
P 8.689256429716416 1.9331690386236966 12.493015482981386 1.1267350525909499 -1.4312747658460963 -2.2420466938363064
P 6.565684035827274 8.285095877233893 0.8969857067910664 -0.10445620813356203 -0.9702356027079031 1.6517887709078907
P 2.1036093588849445 3.3636623105843193 5.728814699929996 -0.6163610477733709 0.13072182669831037 0.27301130362956205
P 6.7360061778302995 3.9061005158213273 5.779054095627035 1.147896002939281 0.014610293714007096 -1.000876981742844
P 2.1361901956131066 8.908131654578012 9.928570915224954 1.7643917765183035 -0.7195944392434253 1.7646481155034834
