# total energy = -340859.0721247955 ev
CRYSTAL
PRIMVEC
9.42658031549244 0.00000000000000 0.00000000000000
0.00000000000000 9.42658031549244 0.00000000000000
0.00000000000000 0.00000000000000 13.79675314506272
PRIMCOORD
 96 1
Ni 2.7108582343455008 0.8027939662555951 3.943139450136821 0.8801662594236327 -0.40083112618972905 -0.015831824825934027
Ni 1.1934144828719182 2.566593850605469 12.20571140774513 1.7611925528547152 -2.3413840926860643 -0.106029723268269
Ni 4.265291886615993 0.5205819501832798 12.321948683164731 1.2666411168916896 -1.0695961414861128 1.2358855808763878
Ni 8.420339917518467 2.3058923479450963 11.191456623284497 -0.5662841857216377 -1.1064482773174558 -2.1957429256737604
Ni 4.58080895327586 3.7600837461191747 3.444841935601832 -1.2890284834479544 0.6803789453862283 -0.3699285230736016
Ni 1.018947336095878 8.930270774707244 7.012737506782859 2.3976722257548317 0.7846418065620615 0.4831748186949678
Ni 7.169715519270289 3.7957633522650207 0.7803888703804442 -0.2700005418276963 -0.14352077823519155 1.1532930055851363
Ni 7.4337257515891 8.734989738797774 3.820969085124565 -0.9845785016931367 -0.1857578325275317 0.12470801640406262
Ni 5.028439541767704 2.0099071555082646 5.082641435394652 0.053434722780372486 -0.1681393481148201 -0.8622461846101023
Ni 1.5100627391586032 6.669079270181856 5.005117239636809 1.692752614914762 -1.2571252069814542 -0.4103357232460546
Ni 3.4970915844644983 0.1285069122384747 1.7005051114393632 -0.5068238255724755 0.2661963375902577 -2.0717442766318963
Ni 0.96534780094521 2.3289120568508177 4.471665179474422 0.40697194898014427 0.46132429847877965 -1.0673114592169943
Ni 4.9339946345087276 8.278517018056315 7.58108111098441 0.8508284296914637 -1.3909539547398626 1.1617614480674636
Ni 6.0274213809502655 6.911314102184445 11.090354665071702 0.10183265446778592 -1.9333289379440701 0.46110884003386393
Ni 5.931656752460003 0.015037280772484294 0.6738930229637793 -0.2684691927848344 0.1939372830145305 0.40938981439301747
Ni 3.065646434216358 4.005787559644001 8.906259389562013 1.8468935918679612 3.1365088010573206 1.118351713623261
Ni 5.80962024488692 5.349574850240762 13.500964064745295 0.9037792708568823 0.33933290967493174 0.4831372805888131
Ni 8.297916920156222 1.4972897229557973 3.4695112960466608 0.9902359570892302 0.24277024535683348 -0.20922171997742675
Ni 6.202878318649772 6.03440647689586 6.5381016512668095 0.2657998734827874 0.5417219230012411 -0.6721581001383327
Ni 8.832790508616307 4.510477238228527 8.900396056663013 1.7201826861012568 -3.0626641471620286 1.0774603747255378
Ni 3.4828103154259367 3.9100512108944083 13.167124554105062 -0.5324893486593798 0.5596008601641911 0.4296539639586923
Ni 1.3334274789311642 4.350253654170155 7.344756744781939 -1.1040448100822857 0.5624797243738829 -0.5943488051683377
Ni 4.942638808573651 2.4413994386575224 8.34864983226093 2.5392798461277106 -0.511157677061139 0.46137494921105704
Ni 7.130557505021982 3.7054284339834775 7.6382410654854835 0.022366797730974382 0.7515159705423702 -3.3451535654853553
P 1.383378927535348 4.7106035363728616 1.2188907585838766 0.8199944750297427 0.2684918184926537 0.8431223192964576
P 7.1830069973853865 2.325565620871485 5.6801235417249805 -1.6672452146722772 0.16624418797463628 -1.7501643200650117
P 4.1743348140397005 0.5767342032584644 9.977867373418302 -0.9691343992239243 0.7888278196189511 -0.2630719330286631
P 1.9524804287868665 4.411102229512674 5.047900716639065 -0.12202224204178339 -0.14879565348088566 -0.11226387710343891
P 5.191924722583399 6.051921062951072 4.3806901963957054 -0.7385573534991732 -0.4735393524877329 0.3494471152907982
P 1.51770769571984 1.598484061654781 6.334144390919656 1.3096518161252606 -0.33105164350274596 1.1463592545797805
P 0.08625320904477889 8.626338975142025 12.188217560166407 0.988218155328253 0.5897251903533973 -0.4911735206297283
P 4.95419579592763 0.37958670446474785 3.04679233111139 1.9451428998598632 1.6162445552546938 1.9704741795358003
Ni 7.968137437618238 6.4243652475804955 9.63507261156577 -0.9206274527624725 1.701274536342844 0.5783516584091329
Ni 9.500955941436304 1.9528574919958053 8.003027096341357 1.7858103514033956 0.21094641597801733 0.4495699861563289
Ni 8.541198102563614 6.841557408530744 12.768273690295624 -1.2970662661507664 -0.8073379626079967 -2.4190800020066465
Ni 7.314611483885295 7.6055346027421225 1.0163842489331159 0.5839849454355104 -0.22559424779817921 -0.006093000271615313
Ni 6.562888843964433 4.296720105081052 4.512724534953803 0.9706688335905799 -0.4953147964916115 0.12042430142704423
Ni 8.898917968883971 1.0766191539030865 13.503806178682671 -0.21672239922984612 -0.022911100270218608 -0.473025646076108
Ni 6.222674137119065 2.224107337926244 2.8476218882017155 -0.5154473055754284 -0.41085688585684726 -0.6273548277807132
Ni 7.352676014827679 8.743982696330969 11.242559999991988 2.113128238895322 1.3108530355222134 1.8654600420162388
Ni 8.596277610809368 5.663319719818618 4.504198193141672 0.29775791444662264 -1.1941884582479176 1.4984589770020773
Ni 2.9885275814081247 2.5894250279067204 10.995060422934591 2.7380325482530132 -0.0837958515707331 -1.180379063168651
Ni 0.6432038483882402 7.909334430184212 0.42237395209909223 0.6529321620291851 0.751991110406576 0.46442787710476785
Ni 2.9104472174170968 5.541707408355591 3.2742453426655493 0.5070958482869395 1.55341322175077 1.5679394403914029
Ni 3.9126058141349698 0.44552091983783043 6.561528588438185 -2.2999911315615744 2.1137602160523663 -0.6304671481574496
Ni 1.2165473107403213 0.7387450669272072 1.6529338743416064 -0.18540559139443552 0.6264474854750953 0.13703979849653816
Ni 5.116408388413156 2.0927573690923698 0.07244703964948018 -0.07610902444943667 1.785947391201892 0.38739042730379086
Ni 0.08951386314407823 3.0055425587114937 1.6088806369832493 -0.784482655276378 0.022769432486031752 -0.008261468677843836
Ni 5.295551118980038 6.218545294981183 8.855956329515493 -0.2453418627387517 -0.027938121171164787 -0.03131603650446219
Ni 2.2332416941627895 0.36196936868509894 11.638002212392617 -2.4718765769823876 -0.8885195164843341 -0.39819908788352065
Ni 6.6331922792710944 8.361866840392262 9.238844222374501 -0.8905198347438147 0.49042507249947803 -1.421404815030552
Ni 8.37426279338613 9.069341112744143 7.682818420704266 -1.5437229910461994 -0.9785916879820823 3.0323842652315647
Ni 7.3915983645704 2.006786957454295 8.89294528765438 -1.2180485526949667 -1.380377464775597 1.442649069121309
Ni 6.839766358288284 6.542998759692904 3.0064776754696623 0.8673076582934096 -1.6716927089206697 0.1283263298829403
Ni 4.83773039726662 7.673481392992916 2.9488624171437947 -1.0104962500001629 0.3779025424180137 -0.3123738645875846
Ni 5.437468284244425 3.57157099481016 11.742747543861785 -0.16222863905733997 0.9777026005089097 0.10786446248416262
P 3.202991708072361 8.114343696884305 0.13927678014379274 -1.2014757359379502 0.018006463879749635 0.33051916803804365
P 7.096027941663401 8.182035969469068 6.1694252707527095 -1.2145595657051018 0.3751113528261217 -0.21598012174718284
P 3.790126257291383 5.121677846758076 11.045349343110775 0.05646759606942533 -0.33011601906235405 -0.43609843403245535
P 2.519979411400394 7.56134279465448 7.026534249597934 0.9692328724750017 -0.1884070972249207 -0.9890614771651548
P 8.547664736596918 -0.051572820402621344 1.5668974766419674 -0.8067322107031977 -0.0012019907279011556 0.42342238122668363
P 1.375583145690536 3.0205213946865923 9.612873957797511 -1.5288090500488445 -0.23810832110478997 -0.26022829293228084
P 8.823477047355517 5.807527544077309 7.288507397930453 -0.575124409721087 0.23755990480048764 -1.812696634271278
P 2.6475304684042085 1.9097497406338628 13.64178774670376 0.7422178330698959 -1.1157512998859367 0.229294836578218
Ni 0.7366250290349481 6.530734778822166 8.82258246489231 -0.4007267394013808 1.062864222078918 -0.28884724222055413
Ni 6.511749646252091 4.46320293840781 9.693240267492731 0.07990037317106885 -0.9006756922308939 1.5624485924801608
Ni 4.063251992686293 7.738487090213987 5.513540786647853 0.29577662235053576 -0.21945188234586724 -1.7378348519653812
Ni 1.7753926927087007 7.383934554848715 10.891681002939805 -0.4862532005099755 -0.2685329561432343 0.8941646305852536
Ni 2.909250041728716 6.415853045638699 8.685110874861312 1.5036145530610878 0.03139959735720398 1.7298045254617371
Ni 5.885975544697052 1.538050255842095 10.873289744923811 0.7216497791105572 -0.4939623962287751 -0.7015082711656757
Ni 3.4137983216098906 5.591819108823574 6.41731133759927 0.5656347250630968 -0.5099011789462186 -0.16782978729420128
Ni 9.08765695811835 3.7198039688242743 12.743812657273734 -3.299418525342085 3.3178538492291376 3.835842690279497
Ni 3.280459344348863 3.204085191378284 6.560121200010821 0.6612663929264934 -0.39252800564067236 -1.6411109794790706
Ni 2.0194751344350896 7.727024368662243 2.469177685260053 1.1299838985455508 0.43424055488811025 -0.01601900113607564
Ni 8.890179529016812 0.6655061945389553 5.841117277387611 -0.9637227412900499 2.570016098869303 -2.6848351382944275
Ni 1.652639765038634 9.21934628384027 9.291850825629114 -0.5056791704450712 -0.274952486516333 0.4269537914187098
Ni 9.31643063356182 7.275264938032517 3.0724269733711025 -0.46571085758224956 0.7194679409678899 -1.162881934825152
Ni 9.156857483538866 7.810270498615734 5.416660051059131 -1.688597197985492 0.29237402442689003 0.1517861035677773
Ni 8.872825194825399 5.830471840341243 0.9222193111067758 0.203679707113275 -1.777651469741687 1.8466102562995874
Ni 2.1624386501042827 3.5094309779770247 2.817959268212513 0.12004300682822552 -1.6782305100391872 -0.16618710948445573
Ni 1.2284813613032382 5.40857581585948 13.099933775588191 1.234636538960635 1.4751079609809628 -0.25422502416099446
Ni 8.915027994485888 3.239208629290945 5.961742625901239 1.3778739816274528 2.196963685454739 0.53049828637128
Ni 3.6442122220122433 6.15445397604179 1.2508223564328695 -0.0781399388365364 -0.2247558110572839 -0.5653290208972199
Ni 4.084207280523074 6.545449670551007 12.761445075581742 -1.3481767116733363 0.8605502849649179 -1.9556417425086576
Ni 4.133998477263459 7.9132841672978484 10.307995639424552 -0.5464900338138459 0.5956644386559676 -0.36100550955235894
Ni 2.8829027500041087 1.8773694375662326 8.372960039999246 -2.946930052121802 -3.6813749261144983 0.8514195263082432
Ni 6.290225011000473 0.8650631272377914 6.792941706344226 0.05918319522837551 -1.9223318155026186 1.3029111549673174
Ni 0.973237848592257 4.870459483802519 10.837156720269215 0.9657690822961175 -0.11539779474673029 -0.9618437790997824
P 5.1246660726889175 4.3608019974402215 7.512649794510129 -1.214668323368824 1.1865988188261176 -0.14219794565870994
P 8.738741517726718 0.5924200327503236 9.727607693671471 0.014147495144975635 -1.330841305718682 0.18963634164633147
P 5.96587523867121 7.734857856827949 13.063414261144434 0.6545514428001631 0.12319337953174914 0.10255513445610724
P 8.213134257626304 4.5333555484308965 2.702397878594934 -0.6388617999790481 -0.16408857508421418 -0.03681074107044628
P 4.74599091853178 4.162749546945052 1.2923407863691345 0.6066427920443425 -0.37313314605382836 -0.25972101427855915
P 0.5878057217309335 9.432801766420596 3.7946868368035 0.025907206784065058 -0.6507351543778663 0.30864396523150717
P 7.170102009059453 2.5006172156213804 12.875778181796202 -1.124322072274083 -0.881598878105101 0.4080993777163682
P 8.285586953223918 4.828954251078566 11.169699133470697 -1.3767717497022096 1.0747938836369684 -0.9510245769970912
