# total energy = -340855.8985624577 ev
CRYSTAL
PRIMVEC
9.41081409001340 0.00000000000000 0.00000000000000
0.00000000000000 9.41081409001340 0.00000000000000
0.00000000000000 0.00000000000000 13.77367768039737
PRIMCOORD
 96 1
Ni 1.9265441819814864 2.42254112951531 4.771849187285648 -0.271083747589546 0.6850023030908525 0.626678884759611
Ni 8.93136118106096 8.972166470208226 13.496523485515738 -0.1910602185770516 -0.8051607524510197 -0.9314314853565121
Ni 3.099611547640127 5.3651332469381545 11.458446101306912 2.4175034015481462 2.1099418707475404 -1.3537866016609459
Ni 3.4151937815571975 3.8342385036857642 6.103047400285254 0.3187859387615155 -0.3361686530143372 -0.11873817197387293
Ni 8.819400727881757 6.37991072250062 0.8687075273384591 0.575690309526886 1.9238081429378289 0.8440492019861012
Ni 0.9679586763217713 6.935779268179026 2.870779137498059 0.22334041876699598 -1.66669911236082 0.7916624608542688
Ni 1.3844436570647158 8.10882781220983 5.239065983696277 -0.17593287601730992 0.6280667662460733 -1.1037208510839638
Ni 7.520981320838987 4.704108266543063 4.029034823131588 0.4340227824503493 -0.17703330817034027 -0.925316887818342
Ni 4.788777359360856 2.2525441869054816 4.65398815378003 -0.32394665702684855 0.15976577933914418 -0.7741331937212538
Ni 7.256904471493638 8.52798546410541 11.213481673947076 -0.19871182158503842 1.0358002759825904 -0.8309964825672012
Ni 5.323339822329527 4.834165714886056 7.510442150332524 -1.7585682278579908 -0.9031442083760446 0.33212405063131833
Ni 8.554100472727104 3.824611241047929 5.884817213102898 0.665838328567892 1.3720548038425144 -0.7482966922741241
Ni 1.7280230623870263 7.522938770133875 11.77641115330795 -1.0829427379963479 -0.6722036086642875 -1.7029935759164798
Ni 0.826614838847248 3.185692262545579 1.0070276703012169 -0.9311543204357253 -0.6494328906266751 -0.6958464448942081
Ni 1.4491524135630098 8.74042517748419 1.4768277351322625 1.019853779955663 -0.40294560142957053 0.6351097891357836
Ni 6.584360654863248 0.1547467186561508 2.8376671887285343 -0.14501844582664056 1.155286124755765 1.1844614607681407
Ni 5.409251142584461 8.824906054023627 12.96338581977421 0.4260459348924598 -0.41375400489898423 0.29547760305287823
Ni 4.331129478541772 8.779310660592238 1.5456273724405925 -0.5478655740051339 0.09889568332664904 1.3592807920062977
Ni 3.320765674706721 5.4538772221823235 4.552296780747851 0.4226603062496786 1.2502984138676079 -1.044869328163394
Ni 2.2092920861396066 1.446696191130483 0.3122244555112261 0.2629747453291665 -0.11553432032459456 -0.04477858976727127
Ni 4.4816742687836575 3.0087877825201392 1.5710252770417552 0.3023938705567373 1.4508017801354305 -1.355112519561221
Ni 4.808389495565401 9.036941102403944 10.55076086488401 1.6912531475511001 -2.2589105594711807 -0.22265830509830686
Ni 3.712415517520783 3.093447464524015 8.212458753990452 0.2865363346991904 -0.5949177902979302 0.9608428486390937
Ni 7.638221240626035 5.005019041562397 8.546125749013221 1.7318192418989207 0.4136007671505715 -2.2591540429405543
P 0.2862760182958763 1.2368632732069145 5.673212238918621 0.2808408269763099 0.0850466932586987 -1.3209217326121252
P 7.471612191026589 4.90996982099335 12.089335773374657 -0.057604023666713695 -1.3396599324515768 0.30392676226149595
P 9.254246206578188 0.52058458105667 1.5449799084430527 -1.5347673245148086 2.266898462772663 0.6521454044618317
P 6.4083972562295815 8.405710758872377 1.1646155136791294 1.058275574266971 -1.73584456100823 -2.364582128069083
P 4.354769443103104 1.3402975289766565 2.697795202550744 0.12377522017714812 -1.9453452456786562 1.134583344990775
P 4.572987396227367 3.8847839852378785 10.024813060975626 0.09954848641929953 0.7199291968750247 0.7599070228195429
P 8.485796785312237 4.341208460247658 1.7423839644254784 -3.7525687726505046 -0.09054448314847631 -1.4782922722462153
P 1.100886422909671 5.165727510835429 8.777124528519149 -1.9087088254025453 -2.2843179438006915 0.7158601690119736
Ni 2.443489601296171 1.5366165181143685 7.042219337914089 0.039055828350881124 0.16157377908216045 -0.6335216187130573
Ni 2.7945506036830747 8.687432884313464 13.417972362825857 2.3032088671679234 0.2994867242122713 -0.7477955842679895
Ni 7.245225651421738 2.4329024356387277 2.2884690279550144 0.8333891511690937 2.2084459750627254 0.9574178821179447
Ni 2.9146231784593586 5.031359909718116 1.9095689558366893 0.4809893810078749 0.11117990001064078 -0.5507503517520966
Ni 8.24022159612914 2.0566863276497385 7.1125341162631734 1.6627552972217234 -1.1600115552558925 2.750100020940509
Ni 8.092443585179067 7.3075817044406 7.696014931057582 0.6078658658181659 0.42121483205240356 1.55569713268894
Ni 7.462417825828969 1.6658458148326014 4.985947086076731 1.3462301294699266 -0.6011763696131324 -2.88308647530328
Ni 7.009089508598121 1.7057758982855187 11.144007281280844 -0.6254848644515099 0.2498263808726665 0.1970200357049123
Ni 2.262651401053121 1.4003855758413462 9.503616777014305 1.0071957248720202 0.12289513156503996 -0.7129825903538625
Ni 5.273274292287217 4.624088115800626 3.141045479157097 -0.07241152099319141 0.5715024966977835 0.31624286062468765
Ni 5.521606849948208 7.642145550029728 5.675181922271602 0.2540612448896205 -0.007079532554600711 0.3657399389135508
Ni 6.276288250452524 4.361526407496032 0.3789414796995629 1.1872125411507166 1.0242375108456552 1.6832665298011977
Ni 5.35823512033646 3.0002804067385136 12.517807307804611 0.10086489123787791 -0.6080445574878754 -1.0135946864198286
Ni 0.5564106085600665 4.350572220095797 2.9937634181004875 2.8115925810283513 0.028545415737860513 2.7778730772887195
Ni 7.473531997065805 6.104098588199865 10.402156584471959 1.8619376306852773 1.527890651999633 1.3133670601933187
Ni 9.123115925448573 3.5618142623953912 9.812078789121221 0.002289053144492832 -0.7841936632810494 -0.3951615866087775
Ni 3.544517186414608 8.098231235738469 4.529749411682368 0.8523831757730932 -0.7494197501349739 -1.1215180271663845
Ni 8.428108495996568 0.32770148008032063 8.983495208002386 -1.1601637645630407 -1.432977864580132 0.9970915465584826
Ni 7.0742311625366305 6.8947951735673225 12.877066070195246 1.892290274835206 1.3254664145600141 2.0361663795272866
Ni 0.14122808446333537 9.015597376438537 3.580536135603318 -1.9519486099277867 -0.15434075166883096 0.08263165605930284
Ni 6.119729950117209 1.342979610943209 0.7688700846480725 -1.3927606689312981 -1.3538156551266685 -1.867227418329307
Ni 0.09894529753098609 1.8733448509045731 3.2476954100425264 -0.5237985057536011 0.9715646059319719 0.0030477856873883
Ni 3.750087005633446 7.7661706666514565 8.931719733071224 1.0405197929454466 2.5571186740813445 2.1433680116164697
Ni 6.091422221852686 2.1579560962184035 6.624202276665339 -2.2483551525528376 1.9003720234020758 1.5841062799592527
P 4.24268664934297 1.2162159474714205 13.055090437076897 -0.8003916131971506 0.40260827269480987 -0.35643074569748295
P 2.38013600200203 8.841751410936359 10.088475334966269 0.21222116892538292 0.24425325766026323 1.0961404676335444
P 4.569712432983997 6.752588364456543 2.9949755309330905 -0.6435301519889949 -0.5607655698962536 -0.32075129001800246
P 4.222763956279141 4.517915313180826 13.588848275455602 -2.071627034327742 0.933342843446612 0.13792374376338828
P 4.105702841956529 7.424859267483319 11.872496504489341 -1.1110022152367252 0.48047078950024347 0.10513703625067056
P 7.3898886829650445 8.283106675152224 4.314425283837806 0.45110467763330053 -0.45090541713830085 2.0195339131769288
P 1.4942584446706773 7.043307228002979 0.10069100351272452 -1.2384988501295187 -1.2847357696098713 1.0315093619167204
P 0.5361020721256108 2.7575849266142414 12.3118911706336 0.13518911844104461 0.5839558919697878 0.4792808829572004
Ni 4.378192958944327 1.6502050421013383 10.479192566121084 -0.8035512418720547 3.489642878281403 1.3866491567169217
Ni 7.024165632494321 5.741481106321992 6.413699308790829 1.2352582317050338 0.6650878235551126 -1.553551547100847
Ni 6.182594187087629 1.3632034500524053 9.020849551686021 -0.05739884963444308 -0.8259494070615968 -1.3886314772542732
Ni 1.9758286144686248 4.386258026471819 12.924364820945744 0.006345482602053587 -1.34604063916694 2.0344859065010703
Ni 2.311324130635607 3.676334456960216 10.1493821226418 -0.9504579058603437 -0.48575389227605376 0.38219242804261916
Ni 0.678705076502326 9.214052620335574 7.338229902126463 -0.7588220172854803 -0.5952342930970845 -0.6659825674552401
Ni 2.318165792353795 2.272513934038899 2.36383835445931 0.7924178509630547 2.5101289355953673 0.4346994968023997
Ni 5.502107643510677 5.8293404650578955 11.817030108339647 -1.9984416112830037 -1.9084583999546356 -0.7492217751915549
Ni 7.76297098991943 2.818981076613495 13.446001530998416 0.43722740543057603 -1.942343996958487 -0.559484646301301
Ni 2.8662986489918283 8.564405313967015 6.789087265155057 1.2146153586437018 2.4688789278066445 -0.02139826317011799
Ni 7.349224556026544 6.702814569645684 2.7366232796938954 -0.9936382979025596 0.8463984189445682 -0.03657445668992411
Ni 9.109583175034881 4.6394277424865225 13.342203076730058 0.3138201101158079 0.04909264376159287 -0.5934229509199587
Ni 7.150712847246002 9.221298947052224 6.694805967001697 -0.5849920465437861 0.36818891467467557 -0.38675485060232095
Ni 1.1615767618650952 7.1922145366231796 8.944336811290723 -0.5328261631735082 1.9220258542264252 0.5426899433414654
Ni 0.5086855479390955 5.385159458955079 11.249664371297953 0.024178397018416425 0.62730057750401 -1.1376851238445502
Ni 9.20715449373388 1.143564464026565 11.133841720086917 0.7151932248519359 -0.4122046581339934 0.17207339306190364
Ni 8.868788679321991 7.042629649400903 5.449954794941415 -0.937914007757062 -0.7625295480440544 -0.8210820516669666
Ni 3.116861569551321 5.667785022532268 8.972159882638483 1.236136520544929 -2.5306856767007964 -0.09773251625648328
Ni 5.1488445106670255 6.490977148357639 0.5354423740699781 -0.7552854648871316 0.6885499112327949 1.2006308714391516
Ni 1.120046840046164 3.7540395474788917 7.187724637303032 0.3270054984578304 -0.7250387501874481 0.27128995006308115
Ni 1.8109417438161226 6.27895151079124 6.6370527430699955 -1.3545785014346219 -1.256700717849526 0.4315100433308246
Ni 2.217554780759371 1.4608688768905804 11.830432048439881 0.48370189484303155 -0.34583034447381733 -0.8098612432504826
Ni 5.778475015832578 6.514767685941654 9.028618178575107 -0.658338420646421 0.8256385606893974 -0.18553903164850627
Ni 2.434718722724849 0.4634618816574564 3.5096021256984478 0.18362253135208376 -1.6662671670297238 0.5351139307664203
P 9.174009607115643 7.934812452057132 10.526877160242208 -0.07189087260303102 0.023359500661546868 0.13382360555208564
P 6.709232744737573 3.4114106343622717 9.243266609980376 -0.5026136441458698 -1.7854907632804475 0.6834259597426682
P 1.217486407350314 5.293366380001565 4.8105116341038485 -1.3055884446891644 0.21013060494494132 0.20515140656279507
P 5.866080282592703 4.269545112264164 5.40845498772702 -1.0268991168382184 -1.2148326168608303 -0.6875883186504739
P 3.715652837508481 6.807020512156679 7.212324504883971 3.8452331303554614 -3.289062378918742 -2.6515254683987046
P 0.5432956982843216 1.7154596258068602 8.507257205370223 -0.9046781285220679 1.575169896701571 -0.42391140504796027
P 4.612635155262753 0.7302292827018837 6.278028309945911 -1.1575638650463482 -1.0585475969814349 -0.26528333885768507
P 6.400454529283018 8.566936822910884 8.741202510713793 -0.16288504169441625 -0.060687804798359994 0.2711739933105072
