# total energy = -340858.3202301769 ev
CRYSTAL
PRIMVEC
9.34857227210384 0.00000000000000 0.00000000000000

0.00000000000000 9.34857227210384 0.00000000000000

0.00000000000000 0.00000000000000 13.68258048839022

PRIMCOORD
 96 1
Ni 3.255069969005201 6.881278250161293 9.826542149098655 -0.07411770505102074 -0.13600981457012706 -1.5703475356122631
Ni 7.115375843979188 5.96595955639067 10.575718019606164 -0.9729545443009632 0.10064017682158152 -1.6230083563410886
Ni 0.9940617165224347 1.7410313240156456 10.003060952529433 0.14605254351810976 -0.24822046983812734 -0.17679933778266327
Ni 8.29507215658173 3.9239416052211187 3.2318527902085576 -1.2748884445021464 0.27118119239935873 -2.0655003526047135
Ni 7.655368065300592 7.872039920734375 2.1296664236985667 -0.23481885172024078 -1.5190583984199837 1.064739841835076
Ni 2.760147213751289 2.5982299450748805 2.3263127028487625 0.9146545230084893 -1.7522433140812275 -0.051306620693776145
Ni 1.0440017886511515 6.240695393103274 5.760297514312557 1.7426448717595149 -0.722291269349298 0.6568780340508106
Ni 1.445307942950932 8.28362015576599 0.5995893684237198 1.6929104806488648 -1.0741241112634534 -0.9427880480199118
Ni -0.15563970251496484 7.211722227984908 9.879808443178586 0.2174834457655867 -0.8271696526219431 -0.1624980906686427
Ni 5.2368644187421065 2.719163073689085 7.543316080176145 0.7857484093626791 0.3035333834778192 -0.5807047320223419
Ni 0.681154725090856 4.135761551737866 9.445837443123482 -0.5374204674124099 0.5530162649681378 -1.7742725259671248
Ni 5.438157873080469 0.7246741979050834 12.469195573909298 -0.6690108127586026 0.46494106929576057 -0.8880490046058189
Ni 1.0340362107984349 1.4723440134481707 3.6990448760586108 -0.6251979293387104 0.48336019523289653 0.47888827550447205
Ni 8.908833960300683 2.2192949237971926 11.715764233384382 -2.316049727686334 -0.9964315443769808 1.113016931673909
Ni 4.056382826083629 6.570625199461693 6.151934440495016 -4.993958314064257 0.7709200861005949 0.686073167557528
Ni 0.44363274931475205 7.883052538661674 12.159942004452242 0.17495997058107934 1.0807683560528485 -1.4465229502544183
Ni 6.009364976625345 6.516057584146209 5.521017072125481 3.705743327656534 -0.7443402787295375 -0.6412202729088956
Ni 1.5092334789329922 6.669046966472388 3.296379439376293 0.48415363766846936 0.711336055889375 -0.13679194415179022
Ni 4.686336356670223 7.092668162361694 2.4402063566758225 -0.38548112609622 1.238423773917209 -0.9101808035078518
Ni 8.485081884402053 7.380837897174066 5.5317165128876145 -1.535802193537226 0.07370478588331823 2.232043045656375
Ni 2.0990161952296016 8.511893589169025 5.872891716618485 0.2369274134228113 0.06357335387627117 -0.39082362135505594
Ni 0.6211443711019643 4.230845878510832 11.760738344016511 0.36522546117097743 1.1822899070381188 -0.7222249348877368
Ni 2.6540689661952146 3.517334810543767 10.766028771447928 -1.7151186413147883 -1.0621656533499966 0.12640263049766617
Ni 6.134056231221531 5.525987707908117 3.2548119484153935 1.2824400315971591 0.47948682832041944 0.03801041780550228
P 4.662385314964163 3.3138350931911074 13.538748879809084 -0.7094406386388749 -0.4927560346254998 -0.09472329711651428
P -0.5355806301500187 9.021372071174042 4.403054055348844 0.45181327366455093 0.7882122975221393 -2.8280566401216456
P 0.47303868283794165 8.225855328794193 7.250112139290894 -1.0902901795003546 0.35625205402777355 -0.44367830326224234
P 7.391242857915224 1.1614011570136424 13.138930083329535 1.0549984461775959 0.20421218257797732 0.47548259225703265
P 8.653187907805009 3.409340105708324 7.734311147495227 1.5130309612789812 -1.3075543101662837 1.1832358158911558
P 5.20115287334119 5.22662773229865 7.2268108233454 0.8432506173442057 -1.3551372021515695 1.746252643715431
P 1.9338175777480302 6.09491375986194 7.996003856421611 -0.17300156130312785 -0.44184870625267136 -0.363935024494328
P 8.97533970218082 0.11720211349129726 10.648454584787272 0.2358580916180325 -0.5419510082929118 0.6781978785745094
Ni 2.713628719009152 9.270090831747707 3.205213099168125 -0.025273686965124217 -1.0150720422963033 0.48613441554392406
Ni 8.65846985103839 6.107796092208134 3.655383304948548 0.10973134048957231 1.6677319245007085 0.3796552634430623
Ni 8.52817880175761 5.996837890018741 12.469017016182294 -2.831778569057923 -0.11757680467592008 0.40266946495004846
Ni 3.376124629056634 6.997789504174808 13.660975850801165 0.891889975618464 0.3974087307717414 0.7324748947505191
Ni 6.226149014924262 2.9740144975567278 12.248153261021345 2.2603755740524814 -0.8824938791155447 -0.7250469777175642
Ni 4.492811565742374 1.3073604131247722 3.73056919601841 -0.40457336684098066 0.9796047026276289 1.2152774177077328
Ni 8.923651447070435 0.8796464123725023 6.0856147351995595 0.3445363082527421 -0.02637077668404491 1.5688097588114982
Ni 4.845738859453216 3.856510354703628 10.477340190884313 2.113661999911605 0.9104060321447806 0.674352279576174
Ni 6.0100287252440525 7.987148888933718 12.351210050076483 -0.618381163527193 -2.774657398564899 1.4417316995133624
Ni 1.168431283228692 5.8404736731664535 13.362558211258824 0.8315909216180905 0.6104343978762905 1.978552071447928
Ni 7.072643520935316 2.7399823437434936 9.419484753246348 0.4895346994747246 0.407427291350008 -0.3801671700824743
Ni 6.23474035267909 8.996140275091038 0.8860744905446672 -2.6087896200930745 1.7862330407631108 0.30638910775905936
Ni 3.681000262201844 5.231376806922646 3.697306976506247 -0.33486536082188134 -0.7028233904326735 -0.057247668768559475
Ni 7.427019843320803 2.044635551356006 1.539536875377252 1.9118568841132237 -1.3667567886683687 -0.24159833653591936
Ni 8.558757981078656 3.8590812120296105 0.037958007275220695 -0.10468092254985843 -0.7625341760297448 0.32600405377650954
Ni 2.23572971353929 4.153374261563868 6.937560393598906 -0.63587443521595 -0.12463782528775956 -0.3557445182637357
Ni 5.887076305057441 5.226880143745201 12.36344265666211 -0.17381531545367485 0.7108046088659371 2.044880362361517
Ni 5.0679357209948375 7.288904039196941 8.384575385814289 0.5791204182543576 -2.056108112756536 -0.3730791528874413
Ni 3.017251643493702 5.24851273957183 12.15372987829546 2.9050650364568997 -1.4757211690849295 0.9204086518834472
Ni 6.925310024726297 8.670464069035608 7.186077225015328 0.45994078786769177 0.10131380584983841 -1.9517146395401097
Ni 1.2214189898602095 4.02657022967433 3.017214249205324 -0.317765210806485 1.2497299429586477 1.263575076371856
Ni 0.3819807860660696 8.80470021574026 2.4178212007955886 -0.3813043690107111 0.046689947857371204 1.7371967041607501
Ni 1.6561182436814759 8.56247871277226 9.049686091476596 0.051896688869291274 0.7803449789589206 0.06425829575843772
Ni 7.090134699324089 8.236213546674879 10.496303769377967 0.6197777867644035 1.9644606263518685 -1.9066858814352452
P 3.1864701469759003 0.4998176676025821 8.00369399182653 0.6730836972763956 -1.1234180724025749 -0.3471259233567893
P 3.5519058301491575 8.938627859565793 1.3064059239139258 0.5890081096817146 -0.6793137373465075 -1.0028433614405954
P 5.572281836919986 1.6223418527041162 10.460140687944884 -0.7727288571745595 -0.49923598592288865 -0.8378831823847054
P 6.564202730432785 1.1001119183622259 5.983405861633391 -0.9651381335803378 -0.5684341421851049 0.30522465513731306
P 0.24249261155873938 2.584599726961127 1.678742723007329 0.7327397183761316 0.8304933176785374 0.5916617452544778
P 7.33413243099004 7.1315021308421676 8.500740742660309 0.037577958253773996 -1.3006771234304761 1.1564058401825053
P 1.640898768311661 6.269704012312448 11.097927387089445 -2.783606894448703 0.8814824071318949 -0.654191745467899
P 2.8681138728704485 1.317017488098371 10.881824859696216 1.1260048592931446 -1.1339038024252472 0.15137601261355219
Ni 2.5819540810583894 8.343357531449723 11.578349572167607 1.5452461125589454 0.9599141661772371 0.17086111792135733
Ni 1.573420774933698 1.9535617620115735 7.814039509745797 -1.473648602826617 0.864935301406491 -0.20335471967368848
Ni 8.197912446803791 8.539471876847744 13.571272562125783 -0.07384902477066638 -1.236850258782502 -0.07754601400627935
Ni 8.42795276033268 0.7853716719429192 8.696319414877316 0.08779828786190685 -0.18262725731835 -0.7543038177001524
Ni 4.417293800363158 8.912423811984963 5.252838323879946 0.6880261775188409 -0.26419936176488695 1.099238646942894
Ni 6.316876907101198 3.9711051514377744 1.2993571005546871 -0.11534097336686587 2.614685416752219 -0.6133685408039501
Ni 1.8725096419524245 3.318724396396521 13.389007191428528 0.5622084729903672 -0.28192557540005636 1.7312690258224053
Ni 8.887556610213645 5.741070306085838 1.4969971329185263 0.8641045779750796 0.15606030546309899 -1.1324989516579205
Ni 5.104778443619186 2.0609207639445923 1.6994311130524151 -1.087908052421423 -0.2632061446136822 -0.48935600780501526
Ni 6.513533469680699 8.44301330997689 4.2270419445255865 0.8929469561280687 -0.42537461985704805 0.45726041282205127
Ni 3.560665442201686 1.3321434777472412 13.651287925539656 -0.13972557285881743 0.2260886709360945 0.8984773990279945
Ni 8.00386413583865 2.020245126761506 4.11544616971935 -1.2912033796120859 -2.879462762507764 0.37968226002625577
Ni 7.247994687711494 3.070557201576432 6.194487270954674 -0.21025736033079273 1.2076289000235394 -0.4095841897920107
Ni 0.3275496599031642 0.8463028602831173 0.5130187862571985 -1.5847734812296062 1.7270269627165995 0.6303108250852435
Ni 8.549755306151672 5.548143823772036 7.3278156008258 -0.08384341697921689 0.17886187673864679 -0.23324019437921123
Ni 3.5489984242277743 4.649400148324929 8.775254083357064 0.5004667730061961 1.0671355957607622 -0.6451954555065598
Ni 3.7754488860723843 2.303871455535961 9.165509290583959 -0.47222063367630934 -1.8570684755184341 -0.1698481032758107
Ni 0.3857931337661989 3.3247168311090833 5.450701787116843 -2.0230133870850966 0.6329657462095873 1.053824994694785
Ni 5.720307127463996 3.4129486545367937 4.026167306217057 0.9108911993113151 -0.6294993849275416 -0.8948488011364718
Ni 1.6573335580537583 1.156745568110591 12.507547156069696 -0.7606932661662641 -0.9851220329014325 -1.0058528376908809
Ni 5.358199535956374 0.10808538598475952 8.611200665957067 -0.5767768577228454 2.828143800518813 1.1307883967247172
Ni 2.987373607079741 1.4074649231124734 6.045456074053297 1.0321433959562933 -0.04644466461578453 -1.139710124694379
Ni 4.326818319632772 4.019867303482586 5.739869949428907 -0.8666707960403591 -0.875802326027982 -0.588810906069244
Ni 3.709504058517916 4.5159773273924975 1.2676009360069451 3.773042981344457 -0.6018433137731699 -0.31450119534323256
P 6.431901738151692 0.7296177228286448 2.9785476201653416 -0.22770718037612397 0.7113944199311361 -0.8833318016358077
P 7.845181473106932 4.927005996670538 5.110115543427926 -1.0785991163156716 0.2425758699578403 1.2214179833878318
P 2.1002408581739784 5.438503770247965 1.6534165063461708 -3.343146562357655 2.494816730718329 -0.19973306376070118
P 4.586989081022175 6.592641086744195 11.391131327974696 0.679173098003585 1.1071895263588547 0.4699315805318165
P 6.946849134831981 6.151818518201044 0.7174720579634952 -0.24575940989214445 0.14158062378968522 -0.4440043191430934
P 7.992552363604328 4.11795252189788 10.849383444813949 0.5768555334795806 -0.5393120280081679 0.6304887454240046
P 3.3974300248599554 7.330832385040689 4.210390267910897 -0.35805773977794464 0.31093507525852904 0.16788969399785925
P 2.3296080745120666 3.0646208582964367 4.9123745464854665 1.5911295053546208 0.977419522050852 -1.4218498729877707
