# total energy = -340891.2886140078 ev
CRYSTAL
PRIMVEC
9.05823514462492 0.00000000000000 0.00000000000000

0.00000000000000 9.05823514462492 0.00000000000000

0.00000000000000 0.00000000000000 13.25764275460086

PRIMCOORD
 96 1
Ni 6.178513609453991 2.482038000394199 11.5940212603358 1.3002901724047025 -0.7241216376898174 0.18545058569975803
Ni 4.353315426447486 0.4258258305053163 6.337126933111617 0.8297140163103517 -0.8268932590321049 -1.7211620192953907
Ni 2.585383407101634 1.3295406048117375 4.80101689523823 0.5965244726634179 1.0977936869662515 0.3792477435919985
Ni 3.1847487214164314 4.021177112156882 4.883823659192712 1.202127767699652 0.9822902198795921 -1.7317487936723015
Ni 5.16204373359504 4.341720885244443 2.87411103446922 0.3937695913572573 0.9512405496626392 -0.576006298105408
Ni 7.216614551244868 6.170089450611155 2.7254137610107896 0.7164476660843274 -0.32621925511110916 -1.0110590644821686
Ni 4.9902814755543385 4.651829571249265 11.171008917719286 1.1090042109700902 0.22883640888456072 0.5059601920205996
Ni 5.416870009473167 7.956690492940968 12.73481451006791 0.5694476710512838 -0.08074498055955127 -0.45875422375875835
Ni 2.121402477802991 6.4113736646935395 0.34804095220940245 -0.2846632860461936 0.15442996894852756 0.37571221963491425
Ni 2.7790213034277644 1.411128130292837 0.48286100916544095 -0.13185362630990838 1.159090843213836 -0.7210003184520163
Ni 0.8694900438162205 8.754702907711025 4.333472456166715 0.44336565711783 -0.19380384276045978 1.9655348332526537
Ni 8.63284246801998 2.5351645505159546 1.4573332828104941 0.22688417025419635 -1.1694914697218697 0.07559274693465044
Ni 6.768286252570333 1.0197761317488803 4.837926486675761 0.04274767538017154 -0.7297220145957304 -0.1855788837475062
Ni 0.8997563254738198 7.459493014742671 2.4328970738109903 0.22091304027242598 -1.4469497533791917 -0.5852509566321276
Ni 7.611852532738906 3.7439045291684887 3.7125376719201317 0.6746754672435477 -0.0846707979765187 1.2370988844581983
Ni 7.910647482835448 3.8728756835817113 12.67832373135021 -0.06645478918912426 0.5216043263157597 -0.29600210809778055
Ni 8.104203855043744 0.11976436403918099 6.6586906634956335 0.477770359849945 0.49780131035889097 0.8534869503602333
Ni 6.760722626082411 0.8951411545808898 0.5067140602201071 0.7280507975408945 -0.8153850012821894 -1.34570922396945
Ni 1.8688860519301584 6.4601432036288395 8.944772765146626 -0.27704073650392935 0.6500769519685772 0.5795623908877825
Ni 9.113490550297996 5.008678751478855 1.5158920566505811 0.49091306787949 0.15830564985384996 -0.3554105319630847
Ni 6.1761856429780675 1.8590578666135167 7.047033516267988 1.0779008046970664 1.006793090116963 0.49731537186140806
Ni 3.4653003855888094 4.285795340410391 0.5004720302646253 -0.12858678263317855 0.32374971052469403 -0.09471738357924332
Ni 6.179718354750869 5.735982581380978 4.724122441473769 -0.48545564430934457 -0.8486152240902288 0.6800423879824159
Ni 5.349096292847256 2.943047828509562 9.410208447036837 -0.25118675155530285 0.24402031571385072 -1.2500857836361696
P 0.24204872914296083 5.758120908490538 12.528419900947837 -0.26613026023901265 -1.9542829144879184 1.275853636628893
P 4.11100763177452 6.132832928761065 12.472326778760461 -0.07380197358281484 -0.053885437164545906 1.7847631410858038
P 2.524747579903846 8.46611658881435 1.3001158332148903 -0.2656484355065877 -1.2211868412136324 1.0574345664229143
P 6.482480811915327 8.037517126655619 6.005208733939165 -1.5507549581923163 -0.19278028659195184 -0.6398617019984723
P 4.710218956088964 1.0208268870454063 12.7127006401937 0.37523862243260536 0.10068002892058146 0.005682909317390213
P 3.966574069678801 6.2169386436597005 8.104967464280788 0.6842751951168409 0.7402851348235574 -0.6574336494439644
P 4.608585555856041 0.9691587128093463 3.944837928217222 1.1603311433788404 -0.4283475864424429 -0.21154291191143565
P 0.051438095059061925 5.566955910405368 3.85247200853495 0.72720567593178 0.48884178717275806 -0.6891428076217873
Ni 1.6833281015048982 0.9482794804085543 2.6294942956144913 -0.6011522012434163 0.6684911928097067 -1.5063167824835992
Ni 2.0280573628831817 6.316715105653073 4.8227195212291445 -1.2107198802440375 0.6129869890948152 -0.6778348388081359
Ni 5.93760984125483 5.492560623764282 9.044390708021988 -0.3598711388375996 0.6314241127540802 0.09529022536357783
Ni 8.595431956169538 2.5739700306048885 10.386090182096886 0.7179486761098861 -1.6788231493178634 0.739378820959204
Ni 2.4729525903733776 5.293098282130685 6.817650011742289 -0.6023958438425303 -0.8192367709281116 0.7684932218266571
Ni 0.8034627549590173 8.746659194751413 8.857060060945606 -1.438688284701348 -0.3001055887431928 0.8394111889934576
Ni 1.7016982027234693 1.1248516614014563 11.301067060370293 -0.7942996413667998 -0.14419903524913877 0.195467860726444
Ni 4.263620780359571 6.680475719427914 1.8674711555739747 -0.10247105938273321 0.7936946607929493 -0.14432296242151274
Ni 5.489671046698835 7.951373308811135 8.095620271259367 0.289137005546831 -0.1590553835356809 0.37142644777536676
Ni 5.199073799562259 2.818044181164256 4.914369840321541 0.16357641133448603 0.4175538382610486 -0.15419419878863766
Ni 0.6346344593368036 7.458460375916775 6.687526649797014 0.6327400033520264 -0.246098281288802 -0.34548350265735983
Ni 4.969791747272087 4.580514084615236 6.787634643202911 -0.23110206499028588 0.037349644293051806 0.6075717316165149
Ni 7.839078365612602 7.239939507180677 9.245296932364775 0.740162493202764 0.30951274098970566 -0.3986508307089586
Ni 4.451995841967758 0.8993215301787058 10.524394036355027 0.5321592190134705 -2.686999235825282 -0.22306016852241584
Ni 8.144340895723966 7.482899494796315 4.666756637224651 -0.6110692032468121 -1.0473517282656155 0.24444069108072095
Ni 7.005113814877799 6.181973855344274 6.938281248901103 1.0483981672522589 -0.5437898612738634 0.5889492314193211
Ni 2.3303940829878393 5.240397469068729 2.609289901744658 0.1032146224169771 -0.4042062133095491 -0.046667836370184144
Ni 2.36869230189914 5.1782308001027255 11.41125143474046 -0.539885898233767 -0.9861288768993921 0.1985552414025161
Ni 1.1921090586144198 3.2202207709094903 3.507627707568168 -1.493941291637382 0.05290661819104437 2.170184617588682
Ni 3.794213968107317 2.5256986946119073 2.72520089248089 -1.5807458481274517 0.18341787154044542 -0.4621179980246687
Ni 1.0467696729872145 3.301880762273109 8.179568372863523 0.3491745783557018 0.2780763768572953 -0.29958211213955505
Ni 3.600820644134688 2.621734105420236 6.903705058880686 -0.6462629775391256 0.13133297791974802 0.9616578883412211
Ni 4.333224260519088 6.857636685716282 5.9477632172192765 0.22384358365565962 1.1917785632548443 0.3167519390506222
Ni 0.9497469145295643 7.114002861597939 11.187872634404991 -1.02774578110923 1.7164116490945986 -0.8287359686677986
P 0.04148762356566928 5.900923988229578 7.996082040854775 -0.6556536747254063 -1.4469304701054824 0.41987014509905113
P 8.676992306944692 1.4419080138927896 8.388773752401802 0.7600661741052265 1.12448430888356 -1.2309449490416606
P 1.9635808439118851 3.279842075752013 10.295116513182508 -1.2835507481628345 -0.7140799371830993 1.0258393081151365
P 4.024184446281421 5.960038031894467 3.9653077283817817 0.4043555944032197 -0.17478153602168608 -0.7306267857981869
P 7.125497762212517 4.1563622159961096 10.268084021532323 -1.9925049340835943 0.2584364911391807 1.7647144499650447
P 6.147914890560336 7.975585971807803 10.35900515268187 -0.7209797496267261 -0.3989729899350677 0.11224639360194218
P 2.4951271504241967 8.330913368504493 5.8552251910660225 -0.7776874867314155 0.10531804191322507 0.3509414404481375
P 7.046763580855604 4.118444442968033 1.6307432338549726 -1.0735985777772865 -0.45428693201602405 -0.820539034679303
Ni 5.210215428999558 2.7431778662867954 0.6533369977914307 0.19267564269328752 1.0232921162132504 -0.07479621917528409
Ni 1.4506854439129058 1.0662358206788858 6.9891513926059226 -0.37734846968675656 0.15194499774314477 -0.8201808800089359
Ni 6.9516883429906535 0.8623485310939711 9.371284304065277 -1.506734329636992 -0.5710872635372358 0.32649076360494095
Ni 2.566741558823616 1.5264213493805945 9.10230000639 0.7064525025448284 0.7677560865503165 -0.11112436418235701
Ni 6.337875143348627 1.9128456679132577 2.554561855619233 0.25117466737044486 0.43099890802236096 1.3065276686739822
Ni 3.962108359668567 6.65821963525926 10.341717510583427 0.8102386811945594 2.0760932976292117 -0.5321468777182965
Ni 7.986075408302431 7.235455680699813 0.3178471364343221 0.6750264228250633 0.6559079568280575 0.7276293937327598
Ni 7.717661779451988 3.6955063778810997 8.244994194895819 -0.6476346610756717 0.0017421795020873222 -1.2841966092769497
Ni 2.99300399627111 8.360796486808272 12.40023137806582 0.8598571155526352 -0.23404520677900983 -0.6821319235215929
Ni 0.06148186637619782 4.840068759327729 10.078181741450045 1.4159247657525873 1.6694975010415634 0.22956685929268203
Ni 8.600558917357759 2.41075874670143 5.976439778579114 -0.39313504309705194 0.4177253308419064 -0.17375000943337818
Ni 3.778289590423763 2.7486309239463513 11.552020940651309 -1.8156081514911184 0.9049020716074156 1.1234813215403427
Ni 1.319549371259428 3.0483226393390654 12.628382056765163 -0.7012344486789988 0.9314682521317184 0.04151894517939301
Ni 3.005676467476623 8.505420271845603 8.046779172265081 1.0347610360847985 -1.3814822678040013 0.027851217884313325
Ni 5.878867185237852 7.98197202770479 3.7487180754148146 -1.1081927708123882 0.5291998792748306 0.07523407804365106
Ni 3.3061290746357863 8.234271055930067 3.8340973781987215 0.5445362525215848 -0.47512443758666567 -0.9746406737541344
Ni 3.1742955178630634 4.51271319328338 9.071184062259862 1.3625553489925115 -1.8833541486878402 -0.007408890869561433
Ni 7.337958671522964 6.261160948466931 11.52774577583097 -0.5581612995041871 -1.0647848361403984 -0.9679560626451071
Ni 0.6400431316433169 8.863283974430457 0.04059629321068535 0.2551493357474767 0.29488522088451796 0.2654149793395429
Ni 4.551871944549594 0.35792892187912245 1.7218763277108897 0.45191354668784106 -1.3779513718326075 0.30386659844752184
Ni 6.072505081563983 5.786128972084138 0.4985643659073121 -0.6128265522575511 -1.18635096448137 -0.6285629891562013
Ni 7.758351372486416 8.763661502437438 11.524617061353212 0.7479637344147376 0.41298215972996616 0.3401664613198206
Ni 9.101624262035509 4.854996731126647 6.032134338412638 -0.23977259618109026 -0.04870029341918064 -0.2665884308223538
Ni 8.144223138664872 8.967797893493511 2.3485513156765108 0.0030986935299817603 0.4706810571033313 0.3167966762456286
P 8.723578811169107 1.3991350267359393 3.872146495638863 -0.3072460564427161 1.2047600631161766 -0.606344029857001
P 1.7471886604747826 3.1809623790548125 1.5541938988560082 1.4565600227754463 0.31823726534689706 -1.4996607106196624
P 4.700571935478619 1.0420231576822188 8.384358768509331 -0.26597188028427743 0.6400223959460526 -0.19749723245164696
P 8.598140368528686 1.5501176929643135 12.487122500323782 -0.0769672586846739 0.6038053225955472 0.12376802108829653
P 6.383302193452735 7.897368109863837 1.6140778925226615 -0.9669309638147027 0.06718935336230364 -0.5886509834526119
P 1.6466241320090156 3.134611388948586 5.858141037013881 -0.8703150776611657 -0.5476786548053083 1.8451488412627126
P 6.828061547413209 3.908003520132805 6.003564664229515 0.9494482336489067 0.04275384602775862 0.09585766783127361
P 2.4381780249995635 8.391802826291098 10.256205051740391 0.24427485492681802 0.6378444144581272 -0.5640681519069254
