# total energy = -340866.0157393324 ev
CRYSTAL
PRIMVEC
9.30291338887783 0.00000000000000 0.00000000000000
0.00000000000000 9.30291338887783 0.00000000000000
0.00000000000000 0.00000000000000 13.61575409751893
PRIMCOORD
 96 1
Ni 0.9504228136840513 6.758454730313018 8.670865739243823 -0.8803038134427612 0.3868623227144628 -0.2843292997455426
Ni 6.653220177355087 3.245237507814476 12.05771684168366 0.29509656556437563 -1.1262501425347313 0.3886500107425049
Ni 6.243687336980794 3.3655892945557015 5.587524037189688 1.1334042370810093 2.3637904854057226 -0.6769601495126664
Ni 3.804482128665429 7.54334150834171 10.941347733876656 -0.28944682347776607 -0.3128284356264999 0.6790293733368693
Ni 1.612613470870971 0.717500196716276 3.3301005416716927 0.09111423960901727 1.8538314566383751 -0.553554139749479
Ni 8.346406178562749 5.660729590644536 2.010447898025268 -1.1617884446506572 -1.4174052069528558 -0.1810354873511979
Ni 6.219630003710885 6.199349653158525 6.119600430630957 0.7282827110460425 -1.0740508348233566 -0.646149591889713
Ni -0.09413710792402691 2.870953405166279 2.132622125442277 0.7457286744366317 -1.1142621169349196 0.6435954580092916
Ni 0.4367001374926671 0.7124310393694958 9.748621245657398 -0.10777910185920793 0.7083816012467412 0.6416164799060499
Ni 0.1439774648434144 8.916451481519797 7.493062053924126 -1.33719912961591 -0.5396866377387672 -0.025461377495898087
Ni 4.422902579729023 8.601045515865122 5.561435877990614 0.5277274084943622 1.7007114647505226 0.4450026785006207
Ni 2.378708364442891 8.450394141165624 1.5448705879869227 -0.5903139729773318 0.9188166248059789 -0.45295072970310385
Ni 2.596861676577214 8.799318502710276 8.921191315742927 0.2037954067555329 1.0633442470391299 0.8650504868281166
Ni 7.275603669398179 2.441930961852906 9.734187775986763 -0.8658999793126054 0.8055878126861094 1.1872379950720136
Ni 8.611604322230686 3.668836352792057 4.715026144774803 -0.6490683081984048 0.8703886112115783 -0.2553403687123602
Ni 3.5130962846282747 2.6429855197141854 2.4138687244945616 0.05578805350389747 -0.46531670746762444 0.42068801301465614
Ni 8.362323462872421 1.7378306811621433 7.9873686201898995 0.4194628823583034 0.3567639606671856 -0.2543792903506716
Ni 3.775298890278846 1.4622783952167848 7.271329911121228 -1.7347963222493739 -1.6120636844041267 -0.20117108175880835
Ni 2.114421906258499 9.05939074126154 12.568606780836882 0.8583082830082766 1.1505884621697797 1.8371866489928426
Ni 5.218301649557792 4.855953184413575 2.519921933805064 -0.2341717050545451 0.8460351220678786 -1.8342748746626862
Ni 9.112361528438207 2.4359305829050752 11.953910285886183 -0.3240232759010549 0.9205096962376856 -0.19987935953057837
Ni 3.608795351661357 6.671184102546191 2.4515576163261086 0.22363352452738258 -0.04169583707688948 0.6277533487707123
Ni 5.756326325633547 2.162006306751764 3.4088534222065285 0.13344308228421536 -0.4665251259534287 -0.2143562129905147
Ni 4.4190046591412075 2.9250963593932195 11.342521906832925 1.2881070000749493 0.7415850845819034 -1.0954264722856553
P 4.1581416729766625 7.628667827271178 0.5730882858312124 0.18274269985029173 1.8889830648388435 -0.6675262577932762
P 0.29468186614756775 6.168240711760777 10.788347373620061 -0.3427131390010743 -1.7769156200169267 -1.4416262842837495
P 4.54357066551556 4.5685955017476 6.700761784448104 0.7857620362094339 -1.6583710521110988 0.6035471838381541
P 0.39755813063530404 6.731746066810345 4.641433590135101 -0.24384676625046395 -0.2540008239653303 0.2523614885896944
P 3.4204485730911434 5.407206602913851 12.007120157929455 -0.3389307891405066 -0.17647640722560576 -0.847300104823231
P 5.745609369745328 7.946827455202686 10.218704886800131 0.1763231694771931 0.8353421611304065 -1.2912825695894536
P 8.23782257688975 6.923795404793329 7.296573365811056 0.1723022212432581 -0.7315014750936564 -0.38866698002336936
P 9.20402313118701 4.154187934910263 0.4771017587834199 -0.22296529481576438 0.7389191077139661 -1.0043492565621608
Ni 0.9201362498041151 5.18562981875968 6.642772075655383 -1.1407617058873452 1.2088571160036858 -0.7097154895668164
Ni 2.0069546541571897 5.279263639085136 4.588413497519018 -0.08556914142107198 1.0716987896514125 0.04322770034038362
Ni 2.7617279024895587 3.2963756211109527 6.063707598450393 -0.6516576661921357 -0.06743206550072903 0.7422949661647344
Ni 1.3707377303382458 8.00067271621051 10.863914936710342 -0.3594916440109938 -0.305672541308009 -2.1509792483048247
Ni 7.137306563292044 1.147653874262294 1.5656346900203475 0.18145946226249393 -0.6302221220261791 0.6799703970939
Ni 4.103784751748481 9.131860434290383 3.2906282813993712 0.04582322898170173 1.4359680575567075 -0.16543917557483767
Ni 8.05542966270188 5.1191977163310565 12.294984849359237 1.4910608847657933 -0.973132207529408 1.2781154360798763
Ni 1.4282855507588397 3.096818832258357 3.9581811376956395 1.3343223222887473 -0.5419216977168732 -0.07101335509408414
Ni 4.392556477205263 0.2861594674590282 12.410909379757404 0.9409484237080118 -0.9350860513899638 -1.9538440271782866
Ni 0.15579402505974776 0.021996738018831872 0.5913647889023891 0.06514301235623621 0.3829899842432501 0.005928192558976887
Ni 1.1498493617532832 3.479373224650154 8.051608026001462 0.019196113312476618 -1.1895054509499512 1.335021405238301
Ni 4.327622143785324 3.7758663679777884 4.406043840613892 -0.8431755411318963 0.7201837360879919 1.259445627584515
Ni 3.7604700468015704 3.503030532656874 8.862562496820415 -0.26247543709524473 -0.40142710790251507 -1.5840304324159946
Ni 4.844073364388179 3.207253713637741 0.5106108517602997 2.179920099708891 -1.227086237417203 -0.5225335229982484
Ni 7.881855910130358 7.769458114087419 9.230078730190245 -0.3390241201852613 0.308183737765637 0.597794597625093
Ni 4.823206930310683 5.652636056249788 13.720867457665015 -0.1660402994939463 0.7225365525908847 1.180933135899908
Ni 2.2509979734416117 8.001370434692815 4.103298209393487 0.4519899084517312 -2.0469529286198296 1.2815350032843864
Ni 2.5589150940528684 5.333378684572785 9.95782701597463 -1.4112103909960534 1.4518471906808093 0.3250221494792145
Ni 3.959933806523192 6.359052762301806 5.769729962824298 -2.0732378304582877 -0.2028530974469216 -0.14718742845350136
Ni 4.737368951160858 5.833382354819415 9.337970195128795 0.4863732710276075 0.34268048599092593 -0.07097093189192294
Ni 4.730168496423461 0.9395384053600787 9.6600640250092 0.6761721063937323 -0.6739977244502326 -0.7683379271957155
Ni 5.631518443518662 5.369883315567032 11.631298283746254 -0.8306303574770341 -0.20514754990805315 -0.6817112910444065
Ni 7.344621981667882 6.5043177503179015 3.815066052896355 -0.20368690620212662 0.8251968451662884 1.0207518662899002
Ni 1.1853306723068144 5.716826156621933 1.8679179664598111 2.640975460797 -0.1866147812111883 -0.018331194209020043
P 1.4793399378374394 1.2210259498615863 7.843940027219233 1.013775434972067 0.3880550574709833 -1.1222078541445577
P 6.810216138787021 4.272018632202089 3.6354882002117623 1.1564420927370795 -0.5164189254600784 0.12848239584483034
P 5.205668293571506 7.148907295924517 4.036648418798385 0.13161579926748945 0.4055179901424371 0.4026072442535454
P 1.9896140241436129 1.785656957395941 1.2689378128958801 -1.0649460443086112 -1.2347172715998995 -0.8761951905910266
P 3.7757826417599114 1.592249394100735 4.549568253589462 -0.2961954550555092 -0.054422026394306273 0.4364231643617258
P 8.218946966215098 3.8549411293057947 7.072022440339643 0.2897931510735912 -0.42327300013301294 -0.7168873247249073
P 3.03324272415064 4.639660454898735 2.8955261198217843 -1.2550112459622451 0.30994365787953715 -1.7611789260079604
P 6.002844219801881 1.5109884481948368 13.289275549754137 0.8416997279173182 0.180067981231606 -0.28587941784148185
Ni 6.628781424648184 0.6347545058800307 11.140559384653336 0.8046033372856529 -0.5859420691618812 1.09156493244772
Ni 3.0524718455229918 4.333008530468725 0.31360306109639513 -2.2367659050533413 0.17451157018975105 1.9695079589677886
Ni 7.292060522667501 1.4387048134279417 5.998310910249512 0.4170643002191398 -1.0400996746888926 -0.4651704116977473
Ni 6.776353535112438 8.669124233911988 13.592974729567029 -0.40561620628319817 1.5951414547274914 -0.9747476316456437
Ni 1.36950044289629 4.342478896001892 12.448366629052828 -1.3407487946403813 1.084792646720893 -0.7681119272278384
Ni 6.885876731008276 9.401803063638 4.106497481207687 0.07891409799839957 -0.43400349917663966 -1.1127096848461353
Ni 6.812420929191107 8.323074472514437 6.2599925527666285 0.9324457855536392 1.1045145506298526 0.6334352296468381
Ni 0.3683414017615703 2.173458192774679 6.066226827317172 1.1360295905189983 -1.0580704002347003 -0.1482014715403125
Ni 2.1468425584029815 6.7355137466147985 13.258094975925541 1.4140270345092423 -0.4037274739009176 0.3484983782242837
Ni 0.17088335010375086 8.88713800234985 4.976449166307811 -0.8068746498183331 1.3635223408914712 2.053685876468289
Ni 4.712092936275188 7.74701948769646 7.914334240336043 1.596587957366031 1.6927700984162588 0.13601264278360448
Ni 5.71399807104032 2.5659480963545125 7.56962409842452 0.7864174104052456 1.4873880638998964 2.4741908269378614
Ni 6.698925389402675 5.225371863511826 8.162739695571842 -0.2278177378120593 -1.231103843217028 -2.619853076996088
Ni 7.476593106867776 5.447023070970776 10.09797354120453 1.7084754249666576 -0.6537585145852225 1.3989362016143907
Ni 7.050045238438314 3.4646746219562425 1.4234043122566273 -0.12335407347932949 1.3324315330239376 -0.26975705835832253
Ni 6.88122527445957 6.420786893616236 0.2585428396380494 0.3411882177161156 -1.6890764516147554 -0.07565419630020519
Ni 0.2585800512904391 8.092790161701089 2.9009720451490097 -1.0607831711801732 -1.2752869654921455 -2.1630796311127845
Ni 4.278009708236823 0.8685850871661136 0.9648190717022972 -0.26212910949941953 -0.7306758938685675 1.2990089916994336
Ni 9.324961001453374 7.180044146061557 12.54175671305513 -1.5873929211303242 1.7647440176513993 2.3355453745171
Ni 5.853634796632481 8.164059778940366 2.1548560877450926 0.6886882365828719 -0.9561755250704114 -0.7929513548690215
Ni 2.011354932052266 3.1952715615682736 10.459159142211572 -0.6968283491915032 -0.6571019771361586 0.30674469132626525
Ni 2.9459348847314235 2.2058044216143817 12.672726844805743 -3.0705754315893055 -0.6195638709813845 2.827076021375931
Ni 7.038193327152211 7.243592345429982 11.69221561929073 0.29855881308136323 0.6663520349795169 -0.5099502870165992
Ni 2.222038004969367 8.204425118870038 6.696363367135648 0.3231372737516757 -0.3474064307116856 -1.4551641708691843
P 5.593246259035906 3.825339259829828 9.820457410304307 1.5411531734364943 0.7335375316870786 -0.05843937508381548
P 3.0019663303171393 6.581010965892971 7.962547517754693 -0.9858206016303538 -0.8831533670764146 0.2813283081356897
P 9.228517701372498 3.3991821137504585 9.968243487769804 -0.581948631731772 0.1781126572774481 -0.05101068671991215
P 5.800524465759354 0.48944672446368626 7.540186890510379 -0.395276514920087 -0.773847544160035 -0.5213654708320763
P 2.897931853148775 1.3321120351577889 10.6610397987559 -0.04633513562111375 -2.1152332010534667 0.197561252920363
P 8.159417625304757 7.683862010678126 1.3299705045627648 0.1583159342664951 1.2163387690927114 0.5109707578613136
P 8.555340303817536 1.545725525700575 3.8001162715488133 0.4172818155465846 -0.7437746360340545 0.7961469789881837
P 0.12115090697629334 0.3596031754891707 11.986097434911922 -0.47599347045518026 -1.5170904760603354 0.1391432179927862
