# total energy = -340856.03074053035 ev
CRYSTAL
PRIMVEC
9.39081585976434 0.00000000000000 0.00000000000000

0.00000000000000 9.39081585976434 0.00000000000000

0.00000000000000 0.00000000000000 13.74440824897340

PRIMCOORD
 96 1
Ni 1.4429364081438467 1.6373544672754152 2.8917270508460966 0.8702819104303852 -1.0567475676582188 -0.09843828407425627
Ni 2.926741646570289 0.2059208693827525 12.409743310620893 -0.5056642580467355 -3.9749684247707866 -0.9667512437037286
Ni 2.8898920854423236 8.810829608343905 3.0222715982742794 -0.08105505560080234 0.7448061626223624 0.6164178691532352
Ni 2.567129747020258 3.1701046375568422 8.533051155680042 1.229251877609954 0.5936972876272678 -2.0233077783970637
Ni 4.6573093512963135 3.065303133431435 9.82363660306868 0.03137388632559113 0.1526530795537629 0.5671869000415651
Ni 1.354606394899798 2.06528455163838 9.735123468916884 0.5638619494333902 -1.8909353034692078 3.961116606489359
Ni 6.435873515483355 2.052738421753833 11.342765395058537 1.0053684418552944 0.25953743751284336 0.4233786724729418
Ni 4.326555428643896 7.032040064578099 7.191981621729775 1.0833566856053147 -0.10759346821096309 -0.6007364538622363
Ni 0.0780160802708464 3.9627270528078165 8.99766646189479 -0.38234129491565766 -3.2922047812024657 1.0761046320285919
Ni 4.563222767977993 4.031233053936386 3.788796936467502 0.8081344903673632 0.17415778639475812 -0.2378990333074613
Ni 4.696957375527269 5.019466161923225 5.920128973662765 -0.2643693116838479 0.5778281818054952 -0.5671503903766749
Ni 3.8048956119623214 5.971516456702608 11.091916045730695 0.19402470052201426 -2.3558861429569813 -2.6634679854725616
Ni 4.722387704664509 9.666436225043725 1.733238452734381 -0.4895735231324601 0.4525426956314077 -0.03966389424852524
Ni 0.9033110217900212 5.55811396435416 7.85158970500194 1.7127488555310308 3.2634899297662763 1.0348222283400372
Ni 4.232703615720123 1.0617350231113503 4.21612506953885 0.3217437358382588 -0.2773528684277094 0.5034232845313589
Ni 1.796143771330658 5.120023017315237 9.879315688920824 0.7783857983500208 0.5960513896817412 2.7808933521722814
Ni 5.297659688644646 9.468571736520218 11.068509437394443 -1.042751767599759 -0.9715864603088429 -0.5438340842482375
Ni 4.593273378479902 0.057493391461199 8.56922645623487 0.7452460783732585 2.182595589658525 -0.4384201401870966
Ni 8.601461370487637 2.260707428058606 3.0164436580000653 -1.1847455676674628 -0.4089630112682441 -1.8994957914447093
Ni 3.7982938684676837 7.64480957597515 9.369783171739927 -0.7960461917442612 -1.4758173283431615 1.621421471469943
Ni 4.667827064971981 4.574576264258245 12.88446219553533 0.7911479831116955 0.14797624290338388 -1.8412387075750287
Ni 1.6547556489191768 4.104791313955591 6.286527615778336 2.5309466436716668 -2.409927388973101 -0.513888959949373
Ni 0.6326799190177207 6.276276601270872 12.52940202439476 0.6225219251684441 -1.119523108223543 -1.054538475822042
Ni 0.9522662835423653 3.388901254458084 1.2951118205954875 -0.9966356899679868 0.30358351998946426 -0.1862478847900728
P 8.986062230833163 4.057968706467304 6.927731578281239 -1.1133285493770568 -1.0186967835330842 0.0305930422955086
P 5.287311009653052 2.215434305174324 7.934481496826722 0.5138833035224182 -1.0043489994518444 -0.2808572820365421
P 6.243746815402556 4.193910155725314 11.485981909302746 -0.6667567266171034 0.9430341025924469 0.2689579594957948
P 8.803871013849557 9.301133491129894 2.0176242833823523 1.9707274331971865 1.1332612837452418 -0.2099495992823868
P 2.706217119565187 6.8885483994314844 2.3521354714290856 0.1325002587549718 -0.9953910189276084 -1.173948219941643
P 2.9253705874661398 1.108313469389309 0.7118886328928616 0.4027895354676805 0.8720189477261497 1.5772195801417483
P 1.5421409860632733 0.2949655237077995 6.4532474637613495 0.39782139282912776 0.3434572162559504 -2.680241091165842
P 2.5904189701592375 6.183777065819684 5.901972770430143 1.9446489909425797 -0.1536681510818386 2.416942901058986
Ni 0.08806049683110945 5.654867539354524 5.767731058828647 -3.4251069033815464 2.166095792231289 -1.5518535905731339
Ni 6.435131641036589 2.4907918055296276 1.0592239189712847 -1.2335037109077724 1.0058620936622613 1.6371735920978772
Ni 5.869334990180335 4.261946616064792 7.700689625285027 0.6460153803046939 0.6765641996258284 1.05519873511386
Ni 3.7833155172956383 2.4163414180111484 2.3512837244376725 -0.09293586619878832 -0.7386879655397666 -0.21958172305551216
Ni 2.2589701271389644 8.49178603297145 0.4762063901342811 -0.5133780817512255 -1.494773043510058 1.4595180769625056
Ni 8.013126761754952 7.277196701378985 2.3036591412816154 0.6794960285606426 -0.7308353022645672 -0.2715977111114871
Ni 0.5889234128822067 1.4587787143678217 7.767047946844289 -1.7954977538944885 3.1852710580626886 -0.7309767129384378
Ni 0.1927277122908363 1.907640927108522 5.06573565036196 3.251248650505078 0.1900502892552985 1.7160231554069283
Ni 7.357244015103445 3.6490456332467964 9.70548981063569 -0.8721912116379561 -0.3060276106545826 0.4681084112801487
Ni 4.454458339592646 7.534166984433433 0.5324902445227783 1.1863828461605699 -0.49840114872641905 0.06840060006158542
Ni 6.17266773074976 0.39918667541788866 6.723255955447312 -1.8926060063034111 0.17653065750230887 0.8341463410500926
Ni 7.145377820249204 5.142927217007161 13.513021424587976 -0.07770670795385971 -0.3276449318140422 -0.1490288525376143
Ni 3.4363154833406275 8.74794870586866 6.127298821544503 0.0283672382887834 0.9109675610752052 -1.0593819199572725
Ni 8.353590787925798 9.355637785927732 7.179473994189934 0.48282540577534916 -1.368100961401089 0.9037322196690307
Ni 4.018752659762313 2.019128692070604 12.298180419132557 1.2826462340706943 3.577380488108704 -0.4409727314056212
Ni 8.015342994279468 1.3682700318623848 13.584835810116491 0.6280636809222797 0.8533434828038337 -0.8362140222123985
Ni 3.2165797848612003 3.374824421601096 0.319618293298303 -1.226186608421069 -1.0432073670799389 0.014909570121980773
Ni 8.668765347196132 7.608345038294239 11.161572421792544 0.7546776560998035 -1.056805674589664 -0.11684892537096005
Ni 7.929069569691643 5.873288523624493 8.63132322559233 0.44016951877803545 -1.2620231585037038 1.1684853970548583
Ni 3.544939049489246 5.117449933791011 8.323407766921365 0.8297160731928808 1.0621273439128933 -0.03878689096021062
Ni 1.0082261547863889 7.5936014575167405 6.748174485124443 0.40432242717243916 1.298390127168512 -0.2990640348525559
Ni 7.699830365640988 3.325334822430765 5.127585441264358 -0.6016345401964736 1.7193815303562 -1.0402212878684216
Ni 0.2626930461919057 8.89303680969819 4.170548623304814 0.9903627124750816 0.5412264714220614 -1.101356464616845
Ni 7.125394164265436 4.328133085695247 2.6263641957274118 -0.036365683113227694 0.7211723252535064 0.054143061701306755
P 5.486415085859761 6.212541134559481 9.002340270909414 0.5324592667523927 0.22365126513919548 -0.4046553850318257
P 3.3806185549384953 0.9650565746372404 10.538126491933113 -0.757345946960586 0.1656492347031147 -3.384519211767171
P 2.3350263441561396 2.7876918372884876 4.525154278961543 1.9701854446507878 -0.46367402965787885 -0.23878143591241455
P 8.445517483614292 3.3797170366234384 0.35974431005255497 -0.7653634179484238 0.3308490405736366 0.5499643655156915
P 6.619877159912855 5.334452904877921 4.640579612980953 -1.4160240103346131 0.14601757651511627 -0.08296692791153454
P 6.409992427188586 2.275582480257051 3.5046731095798442 -1.1542725958895863 -0.0919123100302804 0.3023789581584018
P 7.773322889949719 7.3339078378855564 13.546351307960906 0.22125242588971572 0.04100935253282615 -0.6229600411471271
P 8.88067849612928 1.8989919857734414 10.568349893445406 -2.521433304864593 -0.3179115065763622 -0.1923336859728365
Ni 0.5866189066893417 6.667216262269144 0.9433196533470002 0.9798168186384351 1.872030496144905 -1.2404153504259412
Ni 7.01490182577623 7.802950913741445 9.68738901321618 -1.7717844694379485 0.822766638458241 -0.7860618268380398
Ni 9.371245321757161 3.4731368720212474 12.070517933051672 0.2693577660373748 0.34632091095699064 -0.014393035496878436
Ni 5.820155287930804 6.760241683404115 11.986993200243194 0.9549761054456715 0.3372204913176192 0.13492095238132248
Ni 4.065481359092781 6.543407747001279 4.118319723170918 -0.2674685194344619 0.5033384381270364 -0.05453721181593188
Ni 2.580032727904515 4.5068590916553495 2.4142190936444514 0.3598821945811931 0.8831615946065307 1.5713644069125519
Ni 0.013546251765313617 8.98234346778355 13.643235415300637 0.057427903100165614 -1.6157915268776752 -0.10744562977918913
Ni 7.043722239410717 9.47824427677552 3.1559639471525376 -1.1885209755494952 0.9672538943717599 2.2891464755375863
Ni 5.790574218217988 8.04912175864677 5.107174503162515 0.24351046595696774 -0.23305224673812117 -0.4622380685423007
Ni 7.187927606556752 0.9229547302424879 9.340878240763404 0.08478109830213786 0.02722129760979828 -0.12467356362170141
Ni 1.3303029636563792 1.6020074366725447 13.201105478393943 -1.4562823436340275 1.432583457355191 -0.14643023857250265
Ni 2.038952704186082 9.287836095982799 8.507458365429775 1.9639793158400758 -0.21297604481353644 1.3141052239109239
Ni 5.802791669550171 7.590690304624367 2.613402991785307 -2.035451098627817 -1.2108661760139146 0.8147980184304677
Ni 1.6479379166615562 7.719626205309121 10.88443066643869 1.13680452101181 0.062278803434563705 0.0036535375921872564
Ni 3.440381706574167 1.8036939872192628 6.773312759890868 -1.493887812691627 -0.6264850235812501 -0.09716275979594234
Ni 7.286437264108322 9.05435224319875 12.112644193567457 -0.45869251728288746 -0.07504844439540624 0.641350884949489
Ni 1.5418310891424722 6.171738039987357 4.170781515536204 0.5017412688432457 1.8049375591511496 -2.697578296892709
Ni 6.792940503956505 9.066428832294203 1.0989630341153245 0.3741538740088589 -0.7795368812353284 -4.531849829121286
Ni 7.717316064626787 0.8707840531664394 5.130719156490761 -1.4292376808114096 -0.6552942345034585 0.21116136020230086
Ni 7.655712313097873 2.5316136817333144 7.268537430146544 -0.8410597803404741 -1.6213880471288464 1.3517680285690203
Ni 6.978427897279538 7.149152928193507 7.103907038674993 -0.7335683849250141 0.9477829301313421 -1.1630791384376227
Ni 0.6511253593764237 4.050690824236373 4.030176587160929 -1.163807789073531 -0.7554780405139119 -1.0170939578223388
Ni 5.216861109657638 2.6125249505097043 5.671176569122857 2.0325236405683773 0.7202220455250952 0.12499957950255247
Ni 2.8994801083555886 5.6777247849675385 0.40200579831559896 -0.5820157375242815 1.1099902290324433 0.015325060392844574
P 8.887655872255191 5.312919764290146 10.755617785440677 0.3127320192579517 0.6412205300192118 -0.5917807873308453
P 2.311183062886031 3.7264071736576483 11.67915944166953 0.6972168428791735 0.08716271116043699 0.4497898154766189
P 0.6405005904008425 7.819826209701422 8.973421253709219 -1.3211508179037956 -1.5721174830284925 0.3523270079417545
P 8.476225451220932 7.8776454624702525 5.5053084681312585 -1.6387944155307517 -0.9105024485133286 1.2368692849458955
P 5.178706225135996 5.082628788871924 1.085050540534519 0.27838516634696575 0.49645919450869985 1.5684248646682537
P 3.1729970088176507 7.159313790869465 12.499947730694997 -1.0308773847596762 2.2796976714198607 1.5461251727297889
P 5.698563005187456 1.1699735658129136 13.261416114589696 1.3321417696976607 -1.6979436721973984 0.39080665207419146
P 0.1365743902417068 5.65489571180187 2.527651696554954 -1.2409676233849853 -2.8937835500058093 2.709320525030302
