# total energy = -340887.3479717386 ev
CRYSTAL
PRIMVEC
9.10528903583561 0.00000000000000 0.00000000000000
0.00000000000000 9.10528903583561 0.00000000000000
0.00000000000000 0.00000000000000 13.32651088066838
PRIMCOORD
 96 1
Ni 6.549043010715383 2.085930708112381 11.283583985058005 0.8720580284942013 0.44561125861889705 0.06200909471294482
Ni 4.75709477574816 0.6232288209223334 5.956457130144359 -0.1382559302918264 0.0030678402920463295 -0.5250547467582054
Ni 2.705336218089949 1.807572911274005 4.661120474692424 0.9275421776044349 -0.9007417695821391 -0.295721086522252
Ni 3.793418280246436 4.242982830346137 4.94470834966053 0.31056200818982643 -0.8731741443765156 -3.139852520718573
Ni 4.021196195450676 2.5484702953549534 2.268918795099433 -0.9586723233503361 0.21020053895092833 0.629152028890452
Ni 5.309385198862502 4.415655535172378 3.0146164876587824 -0.11536437040563356 0.21793673125292146 -1.9968791518918898
Ni 5.371455955496149 4.668454785161605 11.183861036429134 -0.8969699612445327 0.5121287827251567 1.3810516080244861
Ni 5.853599230435984 7.93696224698746 12.389630782851604 -0.9634826002547858 0.6520505307551803 0.0780779752503494
Ni 2.0384375195248645 6.417562634334298 -0.03520742183883253 0.27831343256876584 1.6263667312903602 1.429782497571286
Ni 2.989648874080211 1.4831059298100184 0.32515716238709513 -1.083544633246405 1.2110353546019272 0.3881350187792993
Ni 8.132379964292921 -0.009534148345473283 7.047725132999996 -2.6721459728625336 0.2036578527364041 -0.6484874959942702
Ni 8.805360996059013 2.5532414669078407 1.4016691335278308 0.01825328978323308 0.2512690268564641 -1.055816571203517
Ni 7.034172820520384 0.5511112881599548 4.644635348554061 -0.7176722825200478 0.38238577500034787 -0.26943129958778755
Ni 0.7179201867265392 7.684982473028309 2.693754290198208 0.14587616584124555 2.216820058059034 -1.3824716283004643
Ni 7.75784299739129 4.098090362939475 3.660806116414923 -0.29293169670257296 -0.28682172715009313 -0.10038332361576906
Ni 8.05895491199811 3.867480702786861 12.549535140600337 -0.1297391510700669 0.04900394070252851 -0.30609111690266644
Ni 8.568705423862284 7.222206148265937 9.341857384487025 -1.52744456560115 -0.781263634118448 0.09534781807439063
Ni 6.942127451764401 0.8668490288457873 0.17717891246273526 -0.3187131765420511 0.1897839229677893 -0.9376255299823658
Ni 1.9246942465503136 6.779971355990804 8.891354989597346 0.9873928312134802 -0.24031458472748932 0.07947022761218572
Ni 0.6314873182476549 5.027512760384022 1.1227641088071485 -1.828137908527013 -0.9230481463888233 0.3058247506151572
Ni 6.496469070741394 2.1449329822778544 7.0553080178649665 -0.7676923231919165 0.006774342609356075 1.1586642971993788
Ni 3.524675668827618 4.2826181543341475 0.4094420931382579 0.8362872986524952 0.012382432824752869 -0.7173920322754677
Ni 6.106771797283357 5.638149876839777 4.758231115843199 0.4004472604877491 1.0909026162733728 0.9707002010491477
Ni 5.366284151217447 3.3030620344273944 9.374600915062095 0.5752100274563577 -2.1217231796531846 -1.3118531946519536
P 0.3489665831764926 5.657689827512478 12.11594399938466 -0.4880275188015789 0.23669858524145684 0.4516664636740415
P 4.0950947227850865 6.0564286531690215 12.482970013206184 0.22403255973801414 0.7163059983001405 -0.2535845623635181
P 2.3742405860715694 8.369454379793911 1.3882096949982936 0.06097859656590143 0.8861911254614738 -0.6330778463074194
P 6.682872551716019 7.939657412597488 5.824445004872646 -1.434759124850271 -1.0569162320255991 0.09133869691499755
P 4.872049052189379 1.0862245831549813 12.472628225706625 0.925703067513167 0.6057416203863116 1.465613391226966
P 4.076820407314391 6.585181903641735 7.80668376878382 -1.1394453010687668 -1.4721817884731032 2.13496281827191
P 4.935084969480671 0.9576943204821697 3.629048688662711 -0.4961586325491455 0.051438775396266255 0.436297437417139
P 0.5789625468354717 5.796172171306102 3.2760429991868656 -1.3345663199787532 -3.062284909445739 1.0440008095155118
Ni 0.43712945660775954 0.17639403653170688 4.7719036181405565 -0.08661249508392181 -0.044422491979433175 -0.15844088988013358
Ni 1.6878474632798992 6.962878405903771 4.848038404508151 0.2632750501784047 -1.056284511978871 -0.8509207322949539
Ni 6.042670561152967 5.627961058199165 8.915023278403785 0.06229731537732496 1.4473629296572106 0.5636045820069455
Ni 0.1512488698132855 2.2148980246679 10.39098701934723 -0.7819465191180855 1.4259968052766088 -0.519867289019995
Ni 2.5667355055364256 5.366229519482109 6.299188411260895 -1.4574002592885547 0.7936800055049299 2.6321704609108605
Ni 0.40776034621875745 9.203626346675957 9.093904879951234 1.6842759449023188 1.2423326220533122 0.2488871568878488
Ni 2.0002317259448765 1.0286791552651988 11.31394101932771 -0.9027235758988582 0.3888487570168722 1.4042861530723945
Ni 4.131370195049784 7.1431358166528245 1.1414299517144353 0.5641882224245575 -0.9746846396181923 0.8168441023262191
Ni 5.5597806524968405 8.139573142779144 7.868531445831501 0.8450853565600995 0.48223148094509205 0.2559486917203205
Ni 5.76624308562988 2.7880668759707343 4.788121959304683 -0.5166138150797037 -0.07906193643017351 0.286731481429132
Ni 0.883759371990867 8.064836928836211 7.000122680941803 1.4658054526331143 -2.3153637573629027 -0.3166449811591127
Ni 5.010203605570972 4.794380935116619 6.805436118360955 1.1677770581339242 -0.03470963556704344 1.0042970631679866
Ni 0.8756902646813852 7.7263022755225865 11.294645090406188 0.787555894885063 -0.6828374342290497 0.5825245588399
Ni 4.619450118563059 0.6191241565405748 10.416800514294625 -0.7730728707775396 -1.2378586454423586 -0.029234471385085135
Ni 8.332541537283598 6.934041954934318 4.811936843267614 -0.04231084495306907 0.1792089756654204 -0.4445578776537182
Ni 7.649672161421255 6.484686826486746 7.2856572667458 -0.2719466098104736 0.018994281714315674 -1.4464237056723928
Ni 2.5975022778211687 5.115579117749525 2.479530508531425 0.0013593422413718526 -0.16341648871785405 0.423073225417381
Ni 2.4127468541959196 5.697862363564648 11.144734698108692 -0.10497968473719985 -1.1734877353654565 -1.1453323559771629
Ni 0.9271096539818882 3.413245139315726 3.6181742417436022 0.5952168095955878 0.37047565382632325 -0.3504935542774415
Ni 1.4008669575472785 1.1649762296452864 2.734560554380304 0.40399538285032355 -0.24199351509180902 -1.3439251354858337
Ni 1.527503320061692 3.6639410674944255 7.832750390771615 -1.2136856477405809 0.7919794778740554 1.9291838054274455
Ni 3.5761114476487226 2.8815144592670694 6.850386199668469 0.924753302005388 -0.7729782541812042 0.8813553946357272
Ni 4.314969246943704 7.217808293571196 5.902072148143902 0.08093447086253804 0.3892359651529619 -2.7398804000950294
Ni 0.6633676674043788 0.23542180550700456 0.4706514894114024 0.3147613909831547 -0.7200631513497276 -0.16518232236902522
P 0.6154064669507967 5.864962631386371 7.441004427238388 -0.19226760862159148 0.3269664176897788 0.9922290762598588
P 8.698719848678454 1.7852922685451604 7.960671509595404 -0.3566006956164439 1.4626926180357456 1.5248642064684834
P 2.1827108272643585 3.6195618878211975 10.324261638862753 -1.0352564876639785 0.13609157565065594 -1.057373888388308
P 3.937190797078661 6.174988624142574 3.7303304628065725 1.3185496328355228 0.31373397815990484 0.6802442195805769
P 7.326671131522183 4.203857402554619 10.319104403046808 -0.3944059393896756 -0.6371247626832834 -0.02644868110983187
P 6.298620241213375 7.832670264226453 9.96336621627512 0.9260712494858632 0.2927265226703023 0.3907470024808496
P 2.4321138043733823 8.746276774290532 5.563112277823561 0.8593729768273652 2.176993155870083 0.6446881768528381
P 7.055825198292837 3.979512181387476 1.4469661263547438 -0.37484010144260604 1.0150879831359032 -0.41483078290293074
Ni 5.7278825021331 3.142945523439764 -0.15480175366812618 -0.7955044603081785 -0.13214107564334016 1.5353918454726847
Ni 1.568040067682786 1.383311959925206 6.960010239798504 -0.8177542728453142 -0.003608029066232496 -0.42397851084046984
Ni 6.777394559140676 0.8359912036688139 9.358822359367442 0.5147443659711328 -0.23513432607813056 -1.9033226213899674
Ni 2.714468823180685 1.8225966384920655 9.21433598786013 0.07344099069897028 0.2090070328634594 -0.8147735929504354
Ni 6.468379253488234 2.063695591829652 2.4677500853346213 -0.06172061693824854 0.25177553417923737 -0.7361060637452033
Ni 4.111720980906406 7.15286026554306 10.21223835502244 1.442261089654271 -0.30130218015445526 0.09012590755381897
Ni 8.3744622888666 7.201300404209776 0.00020031636290747038 -0.1466014740430443 0.21971567753021515 0.3872240769292557
Ni 7.8550328545583055 4.1322078816583065 8.15867695009806 0.6848878890001753 -0.9627318381316904 -0.4383895440594772
Ni 3.3397654552855767 8.613894974276365 12.578187664727484 0.11977715476134855 -2.0307871174932446 -0.9119985734428809
Ni 0.268262762676762 5.06230407050536 9.889697142229132 0.30248437338801454 -0.7706092397283955 0.5241322349439361
Ni 8.517679383056217 2.222355256541592 5.791594942413665 0.5662877852660635 0.6512573454299235 -1.0215411949604147
Ni 3.7801609791376505 2.873592857643001 11.512399903233677 0.5440963367706887 -0.2840243669106141 0.14438595444896424
Ni 1.4302861470270076 3.4743234194240586 12.432062341160018 -0.3752463357420892 -0.08088356301994457 -0.007554415308490214
Ni 3.10938342736354 8.880789211982899 7.746154537615638 0.9062426447957102 -0.8440553726336883 0.5935671898073068
Ni 5.743297756787753 7.72527337784038 3.4702233076869113 -0.42759733853997967 0.48183913060267985 -0.015298578030283332
Ni 3.3153268590108653 8.389358542035536 3.4137859934955763 -0.293795587364765 0.28356233967253097 0.4153509170724589
Ni 3.705324607013264 4.836911741077564 9.103646628890994 -1.187519016647542 0.03936847449529349 -0.30041874910823746
Ni 7.065048856275803 6.30982885224697 11.31638032631057 1.8407833652051655 -0.8266433478048281 -0.5671059102919846
Ni 7.833389582075075 8.992401847279252 2.0457527088866767 0.4649837496082379 -0.45160450008785447 1.3204648475803646
Ni 4.810497297041447 0.3733113949722064 1.4569209390623228 0.469192902593579 -0.7543858358909976 0.03947543238680298
Ni 5.922781217952846 5.589554948256269 0.2961759373189957 0.5281822366435935 -0.10691418275575136 -0.01837516007307803
Ni 8.129739430418232 8.977305277747408 11.113057396901644 -1.4168472775668566 0.19168113999050215 0.6876212287709383
Ni -0.01319993778667999 4.622646075080356 5.767140867147275 0.10838099710926494 1.6737336506100982 -0.4782012767397764
Ni 7.388222886670114 6.210289830460404 2.3822605248192468 1.1797344876061167 -1.080617689407597 0.31263688844098414
P 8.364901735182379 1.7094087881601214 3.323498856088568 1.8702014133559661 -0.5429789353367939 1.8102114059555792
P 1.9096340981753612 3.1499110696954102 1.323656836522439 0.11350983369539806 -0.45739256752454127 1.2823503000968304
P 4.6996950324859466 1.3099597499441793 8.355789161727934 0.9955825661131241 0.8596817663170356 -1.8979431022456084
P 8.758987758045935 1.4936316441518835 12.443523168705092 -0.09520769295210055 1.5521860342118883 -0.8747090929638032
P 6.371271343924226 7.613360267999664 1.1970660004541407 -0.191387005788851 0.9280651399874404 -0.2824020008158427
P 1.5637878976156137 3.2681523555461562 5.753574896733828 2.020603749202339 -0.9239647446658216 -0.958078655630395
P 7.063710378760013 4.125861495069828 6.054220620532427 -1.5008745284221054 -0.3653367899378612 -0.0403110409142209
P 2.513369405400031 8.553900223585577 10.067539830276228 -0.4548664586685779 0.6336056937864314 -0.33292494926605887
