# total energy = -340858.2663649704 ev
CRYSTAL
PRIMVEC
9.33323929795155 0.00000000000000 0.00000000000000
0.00000000000000 9.33323929795155 0.00000000000000
0.00000000000000 0.00000000000000 13.66013913083834
PRIMCOORD
 96 1
Ni 2.139682416087919 6.878522613334849 1.9508457876322232 0.4229588113267038 0.07810522894385905 -0.7879443885727333
Ni 0.6537504719998111 1.2306155862425099 7.883361543751871 -0.795363820965256 0.28736937212344704 -0.6323108862344078
Ni 2.721003218717474 9.205392474514497 1.8694860750098847 0.4590344740033385 0.6224825872900763 0.9622847232919427
Ni 3.3343743647078687 2.9463076126402075 0.8199950616846133 0.3033081548408905 1.1442740899159776 1.303378067301407
Ni 4.727901640922264 5.986292946978944 0.8422352373382371 0.5961539766978765 -1.4323934528315718 1.006141315465577
Ni 7.9629983404206826 7.59206741549644 0.059424733890059846 -0.13955228050574675 2.0314527761017014 1.6060370185940727
Ni 5.331930214488605 5.593036913924496 3.112709000743316 -0.2683182690292669 1.6010614197563522 1.1042222162004145
Ni 3.9177671464364647 7.450640842128123 6.666776615975975 -0.23440747521443503 -2.66855594151843 -0.118930233380021
Ni 5.173377147216053 0.10780731250050136 4.046829977856587 -0.2548624006346772 1.8375139504252742 -0.7087934919731794
Ni 5.932160159706704 7.600224666544016 4.902814943161973 -0.5236429540123434 -2.354266347965371 0.9046842991696549
Ni 2.587855228506135 6.300104448091788 10.64805085512196 -0.22792135326945906 0.02762418947517178 0.2313946565300402
Ni 7.319340833275389 8.787786020426726 6.440564097880553 1.24547939521241 0.6025022875134075 -0.4130022143346242
Ni 2.013581021461156 5.9367801131032145 3.969103695248917 0.029648418994052163 0.2746411259235012 1.6195715627453977
Ni 2.5416183615842947 3.6670670086917028 3.1320241392364014 -0.06453237535543081 -0.3892138536657748 -0.0250739122494923
Ni 0.002756105531291766 1.7609675696834963 11.103589459904876 0.9796512395948483 1.0381114406142702 -1.742810450803102
Ni 4.7772278100142955 8.007284560352886 1.9696550645614892 -1.1664372562765781 0.7954108721531075 0.3045479407852626
Ni 1.5864079972088945 8.991073303112353 10.295524144546361 -0.4783573427016665 -0.45295150103405213 -0.3444532616206326
Ni 7.419197159314301 6.476745332904616 11.9276239475087 -0.06281796376748536 -2.048764013686639 -0.7225784615724136
Ni 6.095538511637833 3.270805672619727 6.6407126122283096 -0.5506613915827162 0.22261073968982303 -0.4136241641893393
Ni 5.216338047184005 -0.05541984095583263 6.785510351590202 -1.412699316836754 0.3217645617738652 0.07928202286077958
Ni 6.8927371366134045 7.3422446022350565 2.5058431224647744 1.321317682498963 0.485296493023661 -1.270445321129128
Ni 3.82166278254987 1.0469747720410307 9.469727541384433 -0.5863860986778353 0.9181442813293026 1.13906452069058
Ni 6.837391028247133 2.0408900793160822 11.744031666150981 1.0746229052767429 -0.1429024279249023 -0.5164528640218073
Ni 6.6293717932947756 2.130787839144739 8.604043473918132 0.4478159795796997 0.2867391947386158 0.9139168735115164
P 3.5049393108113467 2.0454167003207435 12.650340523817261 -0.4361894510843649 1.799125837565379 -1.5481301189749594
P 7.004306677829327 5.712651707317773 0.6270807410290484 -0.2346823261423765 -0.8905915685220146 0.09578079184675117
P 5.246764406926676 5.631321861060827 6.04758899532557 1.2939840276810166 -0.4066937556180932 -0.7102592778854284
P 7.5665596728041935 6.673704679422903 6.7633943080177366 0.4720722810239031 -0.9850873230087551 -0.4047206910521223
P 1.4243176322852775 7.5193988152030515 12.007248610966572 0.20516451918891762 0.46287133125092544 1.0781599718957238
P 1.9498909972636111 4.764842601615975 1.297097182280249 -0.8605124897484472 0.03882931416237184 -0.8640045620621055
P 6.49168784883959 9.166724864571586 0.9588568609249287 1.1908025724948201 1.8087011399586397 1.6219614031338132
P 4.134419627634824 3.0544705215536525 8.569127826127538 0.8528621722920409 1.4281961269207726 -0.36441684922675305
Ni 4.998098915324216 0.6491109188010128 12.585809574769161 1.000236777055684 0.6551399683137814 -0.2698673586839417
Ni 3.828466713915639 8.442680168327016 11.187736077747816 -0.9398726741453298 0.5130698064821873 0.29553082488831683
Ni -0.034734582950407836 0.11969319260243183 12.785043431676801 1.6606369653271398 -1.7989306908354372 1.0537979981115915
Ni 2.5207959049628528 0.23506042884267697 13.2078512999623 -0.16657148940706798 -0.7964280005637122 -0.9551946492143808
Ni 7.747185850748961 9.181676713745745 4.045901320557691 -0.17288431899897322 -1.2271841964476478 -0.21770301797556058
Ni 3.1922851313574254 7.255725474991323 13.524739970034394 -3.378703119306026 1.5188977044724035 0.2131904748171877
Ni 2.267725124465134 2.9449636261975867 7.084380270091989 -0.476656815070792 -0.9101887739276519 2.0384734303939083
Ni 9.205252475926724 5.8788673639611035 2.4752720975147366 0.08232209523868403 -0.30258593196288536 0.21709495207791646
Ni 0.6027928526982644 8.752459710111998 1.4846383571370847 -1.4877215359799152 -0.9054530590148793 0.5754475973884606
Ni 7.898122994846659 4.563431300006505 5.977062373425109 0.056388406092057725 0.24119184512612007 0.27559243409317696
Ni 4.027218042357421 8.095549003324189 8.799725099992012 -0.7358427827814875 -0.713095718892959 1.3598006690655096
Ni -0.005711009057221237 3.8029403047450234 8.700716232071084 1.045791068646715 -1.2698267137085226 -1.2973593719111527
Ni 5.021590678352531 3.2493672222120833 11.109695264979615 0.002277226069950917 -0.0764160141668942 0.014907256129135618
Ni -0.09683235654301411 5.676140075626567 0.18143816975385005 1.1576638809593223 -0.7418331960369675 -1.0737549008494927
Ni 4.62142804830128 6.510316994252588 12.132880543662335 1.4434381406815078 -3.7746941437946346 -3.3997666248445446
Ni 2.9216025285178593 3.7187544872975065 10.570816434219335 -2.146651310353432 -0.4549757305529326 -1.265188443605563
Ni 3.213116921218053 8.760682293833867 5.000457424866233 -1.8555854632150042 1.137222582385835 -0.3838657019799841
Ni 8.45309606325733 9.144539755029152 9.297555411493322 -0.773467535112797 0.6712242754701537 1.2216910345435605
Ni 4.6359412352337515 1.1649189156202182 1.8022503532460081 0.671192908011586 -0.7397608868889711 -1.6092712092606545
Ni 0.9941299717763035 3.4015736868389244 12.633210296617353 0.32892996917405287 0.582034763687675 0.6592336787671809
Ni 3.3618514208681227 4.596200302784579 12.752149363493649 -2.8050702065288013 0.5786308802124486 -0.3420184269268949
Ni 9.234092185007968 3.471750312269953 1.747828235559038 -0.35623379919532844 0.5774121773139991 0.1907660843754005
Ni 6.603518720752689 1.6954762303232715 3.047850454999825 -1.3556876753384006 2.527634291468982 2.1887754932169914
Ni 5.378045749301042 4.18881374560424 13.291956851552825 2.198195500979311 -0.7205272354703397 -1.3752023483325606
P 5.876431388533852 6.299385788674553 10.375544537345672 -0.013739461073279563 -1.9968238731739225 -1.9786428313895217
P 1.1536630291632664 1.1829880666821242 3.1037472244780044 -0.7405720699363568 -0.49615091923966165 -1.2860195214183012
P 7.819285123452072 3.7825378438869004 3.686393347071811 -2.194846896222052 0.15341952540614223 -1.3928753401322913
P 3.912783196711745 7.275838605434715 3.775157118339506 -0.10935235988359876 -1.256584503986636 -0.8068849342309782
P 8.008852544535943 3.377344597915005 10.221075695540419 -1.3021130845460542 0.503099839753669 1.517225201865987
P 1.8500253379855147 1.7811926989971072 9.577532987237099 -1.6779988536443553 0.9732311950011174 0.6356093544800214
P 8.727325296987146 2.034282145973195 13.462230600593735 -1.0043867946683154 1.859720054208668 0.2050285078316856
P 0.4257347720938732 7.052344859913846 9.29629822417512 1.0057988445244936 0.5614991056281685 1.5024567853075608
Ni 5.896441853346211 4.772962519706811 8.48566440139293 2.078388007200659 -0.8431022646917996 0.00877080421409457
Ni 2.812422296533264 0.27307751201440317 7.122546685090675 -0.8448120482940547 0.29715756185846237 1.0392010741340232
Ni 1.253015360286195 1.7688261570771557 0.8635215559471675 0.5945681202679953 -1.0685761848620308 0.8971789919315453
Ni 6.245654330687263 8.244124837908117 10.936635544042023 -0.7118101673123161 2.5411084146960174 -0.16597499347364966
Ni 6.418608586022067 2.200861798944734 0.4816632745852812 1.1679205256903242 -2.097016420935124 -1.5944757961190346
Ni 5.439113133287638 7.957585061693459 13.408437543227825 1.2039105706316877 0.22383149947080164 -0.2026209268314575
Ni 8.169682922169603 1.0953676172145757 1.7771290066560153 2.2595579632471923 -1.070640009369595 -1.3087948674416041
Ni 7.5987033485568825 6.080297332048943 4.267646017055316 0.7924931842856803 -0.31886949961425726 0.5655722472562776
Ni 0.6768138393495405 5.62795256171509 6.357401203447698 0.629298067550013 0.6294055396621546 -0.023550790736746537
Ni 3.4296574035461944 4.982232408709939 6.845641611686556 -0.9679529773213137 -0.776992774657236 -2.635732981451138
Ni 2.082973654800656 1.6207916503659514 4.964641119494299 0.07747248045586658 0.9052334868049056 -0.335922341331486
Ni 6.4536362326828804 7.553026475986135 8.518872066412692 -0.049066161399031624 -0.3174474224557501 -0.26217358958410975
Ni 8.101615608794354 5.8039494530241615 8.960190547973541 -0.5855062671760431 0.0006258065094569867 0.029544032205703955
Ni 8.83054158913261 1.8667038364088753 4.6164300987177835 -0.765807704574694 1.1365371262830364 -0.38668594503759857
Ni 3.9522814649421094 5.547089377417386 8.767610357280795 -0.45995698581760786 1.5630898256085852 3.55267990003823
Ni 1.6899136197690898 5.486497988629217 8.52219189959075 -0.6809517871705628 0.11661238388012174 0.3240173623637839
Ni 0.23459843350302595 5.17494513139911 11.07879571001027 -0.23165922304533654 0.2754677355898546 -0.40251545587068743
Ni 0.4412718153649243 4.0804548386679125 4.235708605888614 -0.5573490880155368 0.6660694707420916 -0.343902274213169
Ni 0.3995550361803161 9.245338738225735 5.357806620128653 1.083387024622618 -1.6173699271083888 0.2809418713305484
Ni 5.8448570403714415 3.801101656625604 1.7683865615115486 0.07783397756034337 1.2202689573850531 2.585628094374947
Ni 7.754811107162999 4.013722178496101 12.72196100135019 0.6187100076215215 0.1330774714146805 -0.02912879904515629
Ni 4.773317182795836 3.8176681561787467 4.468791321348017 0.5048656734048402 1.6558336304012258 1.4504734502617342
Ni 4.228237347921126 1.9495923336096952 5.988645856577449 0.04374474918611821 -0.19609598122874614 -0.5040308362083706
Ni 9.177635421178698 8.18882539573777 7.517283903203761 1.6976431102378442 -1.855747699824481 -1.0085280705301987
P 1.7250345988217513 7.715396838085297 6.640343949280507 0.4994326753147269 -0.4589552840259709 -0.9096359867479754
P 2.179367349101981 4.023008751485046 5.320637928398832 1.4184020236484862 0.8380657307091566 -0.2240508145704593
P 0.07953133106602277 7.588660783193964 3.7114325611569767 -0.1565966375825432 0.6275895694993385 -0.26552939343022014
P 8.831661577834794 2.820327550122848 6.680641142785097 0.5313650052469494 -0.9107487601961799 0.946813367129221
P 5.595323557524788 0.22358987788447315 8.838315244049687 2.414148369032984 -0.5686460010855949 0.8126460050844714
P 7.905272256062269 0.21576955677147158 11.269997381275413 -1.2348959632696088 -1.0917281974984618 0.2566693719364289
P 4.119309113394522 2.1848926266994235 3.4933894273200714 -0.5570739799772793 -1.3166151348169712 0.2351780348318724
P 6.447662959604564 1.332226561248177 5.67902497985861 0.5538518734955558 0.46520075071505046 -1.2755443329185903
