# total energy = -340894.3199506056 ev
CRYSTAL
PRIMVEC
9.07213990515157 0.00000000000000 0.00000000000000
0.00000000000000 9.07213990515157 0.00000000000000
0.00000000000000 0.00000000000000 13.27799377715128
PRIMCOORD
 96 1
Ni 6.237332108592065 1.9872431894284484 11.33815823228844 0.9069106173970123 0.07794530632722706 0.7101492346701254
Ni 4.611713490715221 0.2732383406291824 6.221390544227637 -0.5135637153994704 -0.002536393268608535 -0.9611927757793447
Ni 2.9851876588408572 1.676295591778333 4.693173142766575 -0.2772749640019225 -0.5147096560784554 0.132674579549307
Ni 3.3378217396770347 4.421507003995096 4.776704871588266 0.7636775456055687 -0.6248320613588594 0.4557668589956603
Ni 4.885610468706604 4.46260379808277 2.6842529820813747 1.1667373040155002 0.1439861479073843 0.03957853362357055
Ni 7.18436372846363 5.8495797739118744 2.7236750591296257 0.3284448020075182 0.03137465765653951 -0.0309599387166241
Ni 5.00885549026975 4.497966999706115 11.762616445308307 -0.09062495867742457 0.09710722396765856 -0.12107504763716567
Ni 5.421084458603041 7.884605924589722 12.442927149908876 0.5753221275541898 -0.34512406243541205 0.5867985036249055
Ni 1.7478475597627667 6.477390004475938 0.18059364720239976 1.7029791777387766 0.10548542072902477 0.601119548233268
Ni 2.9123746633998704 1.5689086708918443 0.38415069511003574 -0.24793096362216657 0.024434993113912756 0.46212031201751375
Ni 0.7716090924550308 -0.022701215859952825 4.760174525339446 -0.9526878236321271 0.19310990201722872 -0.4979617471961553
Ni 8.6843694962438 2.5915202888968327 1.6124667365547907 0.37113745578003826 -0.22221556113393343 0.016719626747526042
Ni 6.88696990793647 0.7569330916171435 4.856798259359354 -0.6867180002303785 -0.6016543376908154 0.3324960892587564
Ni 0.8883094722400642 7.355845318274935 2.597666663730033 -0.12374076739478689 0.18210969425198315 -0.5298434263961004
Ni 7.555967653987958 3.6461474888743157 3.9499643845039203 0.913524008948472 -0.16981082227997205 0.34299313213533833
Ni 7.526936806067306 4.036766619786672 12.615608076624904 0.3682871308154367 -1.242842214699879 0.5611887734766012
Ni 7.798511316225036 8.989819377068942 7.177167707035299 0.8978863024112149 -0.22483962902034182 -0.7087744658097859
Ni 7.043319168269134 0.597702519628354 0.2704631730107675 -0.15719261929532927 0.32810310239738333 -0.6668397732492128
Ni 1.9095403105408266 6.4103741064791055 9.239147185579476 0.205073245026692 1.4533263463294972 -0.47364271083481657
Ni 0.232006371655878 5.202073927461643 1.49867397763181 -0.29621088167447696 -1.210588753982812 0.16022986345975632
Ni 6.15456697559828 2.010368074225243 6.982830674984462 0.6798390137223582 -0.2519948492788951 0.5808065477075288
Ni 3.3763057574518496 4.139753552785187 0.4139717264225286 -0.1658700924646692 0.7632463716054211 0.38764059564138403
Ni 5.960178232349586 5.547305142078053 4.848020963933344 0.6357247970119632 0.35073472375397013 0.015489868105483
Ni 4.969382609237637 2.8196936814131868 9.37653385893597 0.6938486977378889 0.6593874307362256 -0.024117976094126206
P 0.11204365033576125 5.4191974534881995 12.327276416718973 0.7583903290647003 0.6354800279910088 0.7781909087303953
P 3.971728448304435 6.091433953510836 12.846246369572519 -0.31021053838767865 0.5230336025631186 -0.24241851844436962
P 2.390962490464999 8.477805941148382 1.3612863970613194 0.2949669819650469 -0.22377699208378232 0.34403700001882037
P 6.323717025435958 7.916512640882514 5.876707286865729 0.5948936219282142 -1.1527857269314146 0.02857369787263466
P 4.797184320368291 0.9740575248576969 12.579106321434669 0.15438497464320505 -0.27407779722086345 0.5255987921871335
P 4.1080101350119484 6.069615456870471 8.236154070270867 0.5359176576146383 0.9894803098701281 0.1476437992646296
P 4.847008513112112 0.8387737735474556 3.6838866839571662 -0.9835207498525836 0.45505132098587436 0.5923615995349798
P 0.0786781339349562 5.591450175197396 3.793841927670636 -0.5807926637504578 -0.042130867731779056 -0.8120811337199368
Ni 1.5362580391210852 1.0405835272958674 2.5565843850663197 -0.48849648801819745 1.0284284089985514 0.1804554464780118
Ni 1.7084109672905552 6.552979074749337 4.833362200161409 0.9971920766920891 -0.2840436501843237 -0.1533696460048133
Ni 6.002708424553342 5.6985377154647034 9.264454827254307 0.2512240325511415 -0.32924750041447165 0.32817586461684767
Ni 8.5197645885337 2.5784291909126136 10.219302095714507 -0.0014094787530169275 0.28333068327769917 1.3199701673321333
Ni 2.488615005158094 5.445252639496985 7.057652242215959 -1.2076731229979136 -0.7282654846548618 -1.3085480415381208
Ni 0.7517937243211903 -0.1169480492063565 8.997872715724931 -0.3818805532291552 -0.16826713194193602 0.70368033911633
Ni 1.4050113900998098 1.2435998756609812 11.305547517933572 -0.1868405240687492 -0.4823682636332725 -0.06627815440194391
Ni 4.368044883121219 6.881662706050975 1.671487357591475 -1.4965648453031581 0.36394119514191514 -0.4901075412590592
Ni 5.677517567142156 8.079112605658095 8.183931203717604 -0.7300508586900588 -1.4648050363930578 -0.22279585911743566
Ni 5.352344854010921 2.761631985571882 4.828356193323091 -0.7307810519878641 0.36759987494042495 -0.44816410694773784
Ni 0.7073529394386564 7.436650869034077 6.90888547647457 -0.3901204246404443 5.3221835438618016e-05 0.3368124572459232
Ni 4.999329743295785 4.345672985942366 6.951148947763055 -0.48486968989888757 1.0413338042063098 0.6677885103157274
Ni 8.161487636632947 7.25866455486055 9.315083718813925 0.4191268391751234 -0.3293266903918393 -0.9279980341949309
Ni 4.443506943434965 0.15655429069610435 10.435799644082776 0.25490662360905125 0.22167331547721822 -0.0636628282662839
Ni 8.012459593260271 7.456727514799203 4.33493338663972 -0.0435701712814669 -0.014592295991878095 1.212802473804679
Ni 7.1297131572530015 6.063391968847481 7.175773319121109 0.47162593751510395 0.1989087680871929 -1.0210028059584417
Ni 2.637760986350447 5.349450841358831 2.601597621981289 -1.878042249556624 -0.15934488975164168 -0.5787440087515453
Ni 2.3803753031139356 5.145881092455229 11.380050653051939 -0.4305260821510005 -0.25758597021342733 0.9377029201875204
Ni 1.155155583042718 3.452783897442819 4.016168325972971 -0.7465784240314368 -0.09382443945132873 -0.9390105832553506
Ni 3.7729397171677657 2.484768417808608 2.397766595446402 -0.22130256240136081 -0.682291846138225 0.8597067060176999
Ni 1.053066791901748 3.416032658403268 8.16787805203148 -0.15351594177469044 0.31795470110947177 -0.5860058325202812
Ni 3.6789704913046033 2.4011505036571528 7.060413801624411 -0.2746701793892237 0.34557271993705646 0.1379887926733688
Ni 4.258308277981152 6.939552031232751 5.956295356440198 -0.3820929263502775 -0.12254828974858249 0.4296223393898085
Ni 0.757291441146164 7.305331642892999 11.294978474862459 -0.30745662979162536 0.616753398115783 -0.019962816275172074
P 0.13260293394756842 5.565331484208785 7.913431742146934 0.07998239136191386 0.6461346794913775 0.9317125069320406
P 8.78649457594467 1.6376573476239398 8.300803954162165 -0.5541889451200005 -0.12666154058600768 -1.4906004001896072
P 1.6934419363314688 3.254394340465059 10.491301182023077 0.01990830888815281 0.12616506056556334 -0.2217882437885277
P 4.134655010119123 6.199356130655861 3.8482811180198424 0.0815214537142596 1.209537429900162 -0.27310206357115546
P 6.672504518922648 4.008561336603763 10.54021725355538 0.7551767072234091 0.1311835968260773 -1.4340996368894012
P 6.384709022489254 7.849115713006723 10.292781893443673 -0.790099230132207 0.1569995294479167 0.7909047567526378
P 2.433547115508606 8.395648641532935 5.8773314500960225 1.1870649598292589 -0.036462099481775916 0.21558674296350613
P 6.849910216137761 3.7842163871569445 1.8359480182759698 -0.30362851429478677 1.1578757398598125 -1.151360564449114
Ni 5.310458783745404 2.8355880706497443 0.46817957720236725 0.8527801541011959 -0.3423323586228878 -0.08220819536863908
Ni 1.5409029747883896 1.0346594198920591 6.921751585387405 -0.4418823877040841 1.213680248423942 -0.04128831722582567
Ni 6.9327842148112495 0.7858269502241704 9.227794309614508 -0.950054756884654 0.8240470478325614 -0.12180164139054506
Ni 2.6070427203944067 1.6735558055058217 9.23317136697781 0.6450188207193794 -0.2455506363154481 -0.13769748668519513
Ni 6.438778976741469 1.7543885726848887 2.603469204458174 0.37658819448196434 0.4430460689948822 -0.46497475074717337
Ni 4.117363511326384 6.644054287960408 10.570198861745434 0.17322499016784362 0.8091832433468515 -0.06068703346741162
Ni 8.535323308591174 7.318758410056302 0.15557722122077491 -0.4587966469609195 0.28467974110642585 0.48890426497957734
Ni 7.52556691293105 3.6788162649250253 8.207751921650496 0.13786537972162707 0.3443139078292909 0.6390785439755445
Ni 2.9972082443080024 8.528174462290714 12.50660903646482 0.072802585784023 -0.5657087728341419 -0.3565274191763473
Ni 0.18328988720303035 5.098569882484542 10.097701853128866 -0.9020273211627821 -1.132795399852417 0.3951438459969646
Ni 8.58937511856344 2.3715481109180625 6.042031615275864 0.19361229557494397 -0.3817874792947167 -0.07342427852842194
Ni 3.630135161818081 2.5080656732649316 11.57210332025702 -0.29872156391147264 0.5592637885397466 -0.7894181449047822
Ni 1.2999650813269235 3.280068496594886 12.879030361800913 -1.3708569268796713 0.2634213459482818 -0.19351305099291832
Ni 2.938765518587739 8.494571255822558 8.06511973696034 1.410175521973636 -0.7131705379949524 0.28200605092900466
Ni 5.810805447657853 7.922500253266149 3.2072600372238873 0.2032325922735274 0.20283124307005065 2.0553938602983313
Ni 3.0203875619446485 8.38922556643049 3.5949234649323216 1.3709026925159422 -0.47519591425454943 -0.07461315663020053
Ni 3.1072533022072264 4.358682434666808 9.16020958844123 0.9531778758946682 -1.0523370972953487 0.2295663450720498
Ni 7.227401960505998 6.299439978862312 11.576445246449152 -0.11867595127736982 -0.8369601563498038 -0.43402381089161385
Ni 0.747394643647214 0.3747428859557493 0.13044830070345748 -0.5259641459463522 -0.8518535285218685 0.705091874751876
Ni 4.81091954029075 0.19633653170137116 1.4065246230476738 -0.6392148124430928 0.3065752556279365 -0.12697624361294907
Ni 6.026958254707061 5.633526760402392 0.6682220780836092 0.2907933102033315 -0.6691090288993637 -1.6743905674678066
Ni 8.077162095563425 9.182185033103167 11.134394339589369 0.6590573010903166 -0.45569461099682806 1.115128321589957
Ni 0.12130086196645935 4.817605707452475 5.873719831171894 -0.013979602108543668 -0.20247951615758678 0.19587923723224976
Ni 8.16524350258268 9.051655083139933 2.381235341983585 0.549145469158822 -0.6555156064856453 -0.4259250930438794
P 8.580811018426846 1.5154646942979177 3.772769160936232 0.7800145922026953 1.3847159442499508 0.10841390722972942
P 1.7932808367585882 3.3832640888128314 1.8425743093138587 0.20608343145876123 -0.6253910191861229 -0.4152879250450074
P 4.7444842592523315 0.9643775515041544 8.376011087342608 -0.384293533546022 0.15473258779061094 -0.3006234089198758
P 8.55222470536498 1.905421558992084 12.5414106726237 -0.6381794292000429 -0.16479434290198716 -0.4908598460440514
P 6.739511344779505 7.68858419614549 1.2716663551022698 -0.8394944927358833 -0.41206427590138706 -0.26745797791150067
P 2.0015771705892704 3.2717221278176987 6.030054576080599 -1.0394347874113838 -0.262036035564981 0.7748065656391947
P 6.911020151010736 3.937181739278858 6.103548889233724 0.3209466938582602 0.25951738290818527 -0.42634238308695604
P 2.401930707695021 8.355531638562583 10.345628923227231 -0.06882251809035245 0.15148117073284878 -0.4209512939783718
