# total energy = -381167.897485031 ev
CRYSTAL
PRIMVEC
9.23299981259522 0.00000000000000 0.00000000000000

0.00000000000000 9.23299981259522 0.00000000000000

0.00000000000000 0.00000000000000 13.51342851165245

PRIMCOORD
 96 1
Ni 6.203357104370014 8.858989436594976 12.632055724967866 0.014525190199368532 -0.5914534858984137 -1.8275339563944268
Ni 0.6715954786832067 5.44495850144064 3.7728271536782727 0.8380940128439308 0.39926326748197694 0.3895876920654259
Ni 7.759182200350293 5.548645089106781 8.034355139756487 0.6128561199439058 -0.23637205513997356 0.47574664455169674
Ni 3.0547102822422056 0.8157346083388111 3.3843431476225727 0.33194047386560255 0.5580880230640904 1.0417652353167737
Ni 4.756121318945523 4.0112490607116875 1.4882072220022746 0.7599818419215363 -0.39926403881292527 -0.02551254244880767
Ni 6.124424189146698 2.1691825051743536 10.875891152896983 0.12281208493293043 -1.1741883609769068 0.8047162087144333
Ni 4.2261655968741785 6.5648105802341385 7.98336866830413 1.0351996662841139 -0.4805309533142176 -0.4849249686168551
Ni 5.380041279901848 4.281378935631394 11.510103138721647 0.8349071304755169 1.0138844497461055 -0.17406368401905506
Ni 8.851870793755209 4.453537449756316 -0.17547223775033444 0.21022547865159277 1.1901258581427696 1.7563593931321302
Ni 0.49457025036782826 6.597273807503431 0.907399830275539 -0.7400285387280611 -0.48229550141380806 2.048644714499956
Ni 0.47853345302879696 8.34845071308658 4.339283693828028 0.02500629223635048 0.30220720846722793 1.1344542756120786
Ni 5.48852902745992 3.0662330659828414 7.048807199239966 -0.03387042749519973 -0.8160038658131108 -1.5104917397968953
Ni 4.794105880090537 7.034373250664857 11.602737825636556 -0.19165594317952153 -0.8799446303311297 0.19346728535664742
Ni 8.71107677992431 3.261400215589868 4.662646429049528 0.2285625863978838 -1.4633145678904604 0.019777696847559485
Ni 4.896278255790762 6.071454469338981 0.1921525751748804 0.007818724713470407 -1.990162144883031 -0.03409282791865096
Ni 1.8257333789049734 6.4415684990081665 6.149528715581626 0.6614959924387963 0.39560278791125414 0.2770613053292196
Ni 8.909133858466287 9.081763255580611 7.05333413903807 -0.2837965671705241 -1.703485170840918 -3.193171800967004
Ni 1.49194197041821 5.577295087461905 12.675933709880228 0.7944091703614706 -0.22999803329282972 0.38034946129660946
Ni 4.316815188833767 6.47352391128889 4.884672375051996 0.7612481102284696 1.8791653074174732 0.9802860449653698
Ni 1.7980066805290673 2.8962720058084575 4.087473937095958 -1.2141371334557025 0.6966977371509099 1.4106442340799383
Ni 6.114701840365536 5.430250332771703 6.6201614906882575 -1.1851443457677782 -0.6268393215968753 -0.9308105639430615
Ni 3.1440210892319285 2.55304447153409 11.20507806438739 -0.9721186786632291 -0.18645562992550468 -1.94024649099951
Ni 8.662972851007071 0.3654836802734091 1.382747898376035 0.40643587397101616 -1.4366599414174095 -1.2482024505705278
Ni 3.1577320939233107 7.95155175102029 10.063085252092252 0.892089750334096 0.20913250269773015 1.0004861740623285
P 5.673964595285993 4.018533897547714 4.898807174433839 -0.29651221496497965 0.6253881909726455 1.8215309447334564
Ni 1.208932060788417 0.22744202368055805 11.085457165679909 0.14801326678890636 1.3522357122340583 0.43219061433761696
P 6.359173208862784 3.057304755183807 13.391712785768915 0.5176160310919731 -0.26981233707629015 -0.002955483083898136
Ni 3.924292668668969 2.5867264547759494 4.910374276573478 1.0566899749474061 -2.391707523530965 1.9930219829293285
P 1.593394172134645 0.28122240087002753 -0.3775715236013265 -1.87988213097884 0.6473742083254335 2.752545654267524
P 7.335775295880666 6.0594054046101915 11.68604810606134 -0.3269160240678176 -1.7470028916178943 0.38574312150835505
P 5.728503925058379 7.499679508191382 6.409797746723288 -0.1380435571707042 1.613797379265782 0.38804297328612525
Ni 3.7762322840016274 4.482095118113518 3.9262454481250146 -0.3307922191937723 1.8267623683357246 -2.074454476474208
Ni 7.944193050185925 3.524651505664403 11.56552145007425 -1.162947497955765 0.4629119546808737 0.9203631433574923
Ni 3.5208105777508574 4.163538159283846 12.888540149494716 -0.10144981720707044 2.26954258526373 0.08747638574611385
Ni 8.977116435936082 8.11954618223894 12.983905034448169 0.5614847074504653 0.628634208713769 -0.5287311671685281
Ni 0.13411116858132152 3.420207812015303 2.320876998559896 0.9744259866401669 0.4671851281349309 -0.12485636905646885
Ni 5.930558892510368 8.705509281049627 10.217124927425006 -2.0005910535258384 1.5422332938745502 -1.0629490684832403
Ni 8.65316740522778 7.003138012367923 5.924435567048197 -0.5085716615015176 -0.4038714556779496 0.8544644837821542
Ni 6.375552550494105 0.8159321945343637 0.9533949420402453 -0.07966845966592086 1.8077287487430416 1.3243906649973318
Ni 4.557648755412898 1.9401671783292083 12.766108725650497 1.6274501941625263 -0.6692429833740667 1.2991025798545046
Ni 6.192692989610051 6.121894347203641 2.5716184972160114 0.6650181466594418 -0.23014844282776492 -0.05591043801437467
Ni 6.696648584266627 1.991696550169345 5.154765317972533 -0.19320091906913822 -0.8398421058832891 -0.4076864585486656
Ni 0.22275904618596615 1.5731646695899864 8.058205824819638 2.00671747813855 3.7291879318327195 0.640285162689136
Ni 3.2889053219707614 8.711649225911424 12.387232579178537 1.387392205530533 -0.6797577668624616 0.5125216472882013
Ni 0.7984919812269216 1.1428422482760179 2.9438062586385194 -0.7011881688220956 0.899861938080347 0.6402918475573554
Ni 5.158920167879013 1.8655091420096697 2.99448157799788 -0.2912597083167887 -0.4407354185838345 -0.45887506560733876
Ni 8.41790133752333 7.8136661321239265 2.5998216183811933 -1.2545530753789038 -2.6615080335327126 0.4472953311895393
Ni 9.490231166386497 4.657439017166741 6.275325567850092 -0.03373544457923222 2.2397661253322463 -0.7529660727253356
Ni 0.32553710667255764 2.4159436576200615 10.382786179596176 1.831567503033852 -0.3432263311920669 -1.2621064622461298
Ni 7.984947511268592 0.994560271613664 9.55162876840451 -2.179700013278285 -1.9201309511965576 1.3412571017353674
Ni 8.482873957060876 2.287420300512965 0.6028114768314504 -1.1351559296647935 1.6842731166888414 -1.881151741719883
Ni 2.413293786679707 9.001602351384934 5.647612690579142 -0.8067296396000365 -0.010402169169930472 0.12418196869726354
Ni 6.879637407147772 8.48446203302513 4.756983681126112 0.7327222348746348 -0.37431688194928436 0.7943965719559802
Ni 6.678284147679987 3.519831879772887 3.2156553181195293 1.686325885452812 0.7740946271738346 -1.9203872901817378
Ni 1.8822116386337169 8.38196650233218 2.4179444486750263 -0.16988538427164934 -1.455921617860499 -1.3085580688404497
Ni 7.634158150164431 3.256358997703339 9.385386760546416 -0.7485759140774398 1.1234193579541556 -1.4708299024308993
P 8.251735040263531 5.204863574844883 2.3598365644829635 -0.9508965360596593 1.2076024176609783 -0.5856849588457527
Ni 3.7106410534780054 4.620109999006972 6.372162192970418 0.779654123539483 0.8013917723268907 0.21757343437623172
P 7.885526569506436 0.6541774245752658 3.4100727481434308 -0.36369462634874783 0.31784285812195584 0.3013024372647714
Ni 5.092211744380538 1.643483196007202 8.944105691779114 -0.7374489509263429 1.4505158734638954 0.5212975937086184
P 2.3038181081438704 7.024466241887851 4.1237716291789415 0.2089988053333433 0.20906899644964638 -0.6203030631402543
P 0.8469126020370326 1.5478108521606697 5.947894772920159 0.19183052108417284 -0.6178607722473488 -0.756983935635477
P 3.0148237231400032 3.0444616524728896 2.4243900058299444 0.2733424617167357 -1.3126466370875265 -1.3941830032001215
Ni 3.898449502250667 6.564201202247855 2.477700423329992 -0.21514297055786819 0.6510174615049756 1.0018293183537843
Ni 3.8642504710204455 0.7372153315061841 1.2055020013656235 -0.34513126152426366 -0.906642194226974 -0.35728435194702984
Ni 6.760725602824331 1.0063692783478577 7.46819590220004 0.5466800383374649 0.4874716462981089 -0.8611442097951749
Ni 4.823633013425916 8.859663445579805 8.079219209046652 -0.2969930112561401 -1.466466740366197 -1.1928185744835844
Ni 7.60942294372119 5.38879416370483 4.6685112305175185 -0.6343613410055333 -0.03998116837862792 -0.6337851567870891
Ni 2.4322029702540844 8.184768092770875 8.056152405665857 -0.42305059970956177 1.1641821416938143 -2.9798597129702875
Ni 2.131004051033704 5.929921815524708 8.647499266655363 -0.7966203190801765 0.3600714277738637 0.3087876898982231
Ni 1.1471817581783408 7.211000536689192 11.095052099063938 0.11781591726991968 -0.9613115607453961 -0.04992311008268821
Ni 8.241966526483408 0.9374449348992604 12.167085548633779 -0.41624566097258636 0.559248876141411 -0.7290136756747961
Ni 2.266996904972671 2.5167218503516677 0.09550984305019018 -0.7314762782826758 -2.119235123124008 2.662260595428022
Ni 7.220815215468276 8.047270259865783 8.299907293379233 -0.04488914720320656 -1.2044828981953903 -0.20702779764990148
Ni 4.622002763964368 0.21697364851618842 5.099900063307484 1.020825399840313 -0.5582957681995223 0.6139917762102457
Ni 8.010024338704143 3.3214331802385995 7.136657345662567 -1.3408015022551876 -1.3643844317814502 -0.5546969951046705
Ni 2.3500662041028826 5.061872107063446 1.5475310922669667 -0.5557642600269203 -2.060932273618057 0.5389980963121749
Ni 1.0712218688881052 3.9609569108437017 8.367150307565675 -3.177666249132237 -0.12241999170083434 2.6634823836502646
Ni 5.447700702378916 4.386293512269895 8.809796013702261 0.8397053231951087 -0.5914624847594782 0.5821039263627136
Ni 1.9656410247558234 3.2872433820081697 6.610012577316697 1.1987043438404 -2.2724929261413056 -1.8317793619343419
Ni 2.555528148478185 1.226871779384616 9.21607755015736 0.045457103891534616 -0.40849352783099324 -0.04682004567733227
Ni 8.939030311793354 5.557111749916208 10.020977233240053 0.008057580197153864 -0.17872303716793736 0.7449483446271815
Ni 7.758129638373985 7.91116660992931 10.87753924335989 3.374120127921034 0.07059709349227197 -0.00892789861724914
Ni 3.5467645401666656 1.405299500368426 6.985077341474447 -0.2025625627896963 0.20650663503910888 0.5197263925667565
Ni 2.058340342669275 4.645537680434625 10.685189081989455 -0.5313305524645882 -0.35549460703645874 -0.9516892071642835
Ni 2.7840264273349686 7.004753787331555 0.5795452406551451 -0.16245463902521698 1.8968655529107137 -1.7840668863497275
Ni 3.3000495527199183 3.561278815839967 8.645094070209499 0.2968379737355146 -0.5187925678985775 0.2247321569082001
Ni 6.061935246553247 6.3014115621629285 9.824073356372118 1.2636964324410689 0.46234219822033285 0.00961155494783506
P 3.931503641506659 5.4090144332496966 10.01653154384012 0.8808977382730184 0.7410446386974011 0.18743830555374816
Ni 5.411978226182986 8.603678526341714 2.9271434639135787 -0.3484767809577289 -0.0849011688197699 -1.0283520472346612
P 4.311986329942458 0.6209838670224122 10.912228546879074 -0.33450283527614005 1.0949456759944947 -0.9616627734372278
Ni 7.235320258141786 6.658562460123898 0.29530734205299275 0.38652447975906984 -0.12276786195855632 0.2584750576866
P 5.203497090875641 7.991927659111478 0.7542058977237472 -0.39430669480764996 1.2680829915445386 1.569191824741265
P 0.18344677967083722 6.932496330957982 8.022381785625992 0.19531102343360557 -0.7062725253235383 -0.7795008857910705
P 1.123582210709538 3.1931683471256838 12.06718079768251 -0.9809769003848074 1.9072106435904639 0.8700577102347209
Ni 0.4776415452488727 8.638043751568194 9.171996439249572 -0.41658710347240513 -0.08591829723037461 0.5287201114249346
