# total energy = -340897.50437382306 ev
CRYSTAL
PRIMVEC
9.03976058620743 0.00000000000000 0.00000000000000

0.00000000000000 9.03976058620743 0.00000000000000

0.00000000000000 0.00000000000000 13.23060337092425

PRIMCOORD
 96 1
Ni 6.208869225574286 2.093201784298896 11.32129503053682 1.3121522139496111 0.22421665072436223 0.1732033929012888
Ni 4.76333013496751 0.2657545003801804 6.030918824656754 -0.6716382230791208 0.6361708834104463 -0.4160656837512964
Ni 2.7770235207117326 1.5836937530819555 4.7473785732712654 -0.11634293226881899 -0.10682085171099669 0.6893556949635418
Ni 3.427687414949671 4.317561456306513 4.91460058621356 -0.10604412144597221 -0.4953145393812953 -0.29341583542784305
Ni 4.965079513827749 4.466636149683348 2.6038623850025595 0.04461995270221993 0.5041596484767512 -0.03446435232545677
Ni 7.323688671696707 6.09711066428523 2.6740769181337156 -0.0018784479696354747 -0.2089129304877563 -0.5259363780322104
Ni 4.891215629310004 4.49502099821911 11.384841836190276 1.1068275150337454 1.5201871127077884 0.2704222027461472
Ni 5.702543190116768 8.006606432041526 12.585188266060008 -0.9326604726676067 -0.2928501927323602 -0.11111459399034411
Ni 1.8405495130485676 6.5692935236537116 0.32062132782852804 0.10947705838692112 -0.10202188766045656 -0.32946784395539386
Ni 2.6129880234092004 1.646312175313557 0.24365770937355033 0.46021306769247194 -0.42094589466173304 0.8011827416398782
Ni 0.6619816746095233 -0.10472201157560404 4.695064574239 0.5112787760200356 0.14268002750145103 0.2579243273894526
Ni 8.546253025366184 2.3329362375372487 1.3567984719376616 0.6690810038749058 0.8589099211480175 0.012712562470661977
Ni 6.9190509041305255 0.7463479530854998 4.748701994234843 -0.6960732161930334 -0.09289215744504646 -0.2018367403672653
Ni 0.8853984558440844 7.456437557285139 2.523526031837807 -0.37435493427607136 -0.5030764427149013 -0.05773103616288122
Ni 7.632016828976259 3.676904577141532 3.878286941718156 0.4027789939447193 0.3748830388653996 -0.08994644455316121
Ni 7.374627723129517 3.9053935680937415 12.651036594782639 0.9414366761983399 -0.7136991568049128 0.03635179915615675
Ni 7.998154255805558 8.9072739476505 6.8080055799591355 0.32328099841839164 -0.0739284718583501 0.7348444234239603
Ni 6.9910616377088335 0.6188141054334635 0.5841809743155609 -0.690903756176952 0.5095486807028062 -0.7142185196434926
Ni 1.9377179005998137 6.440919882234486 9.189077639142269 -0.5748248762027971 0.7518057338686471 -0.6229379296599401
Ni 0.07166722267246074 4.946864396057188 1.4197631170033136 -0.16483830876604513 -0.8721490455461108 -0.22866054542832878
Ni 6.510137329762618 2.059836027628355 7.037371427697322 -0.24435995844145658 0.20107697938310531 -0.8240231365731614
Ni 3.389187074212788 4.423579769563654 0.3858233136625247 -0.11884744385822757 0.5158327139393052 -0.3427779308007387
Ni 6.0531864671402404 5.53970094122402 4.544830983542966 -0.5297711783972682 0.022632649797851345 1.6538788206677
Ni 5.310886518887324 2.905243486199394 9.1205029185985 0.5958174192940642 -0.32888677464094324 0.16314498022402224
P 0.17632776387543958 5.555556681457055 12.465319231488696 -0.15751143608732873 0.5725828742461557 -0.6012558167008161
P 4.075476665291313 6.3222639835464545 12.527040005484755 -0.7255660834458278 -0.6876315131835835 -0.0858337079363683
P 2.4054079989102455 8.49672417659948 1.2604454707997672 -0.24958135474139595 0.26570654243803266 0.8307540275390918
P 6.375444895627949 7.857811971245775 5.8329363140719455 0.042666685630591034 -0.9041214846876493 -0.5169817399420839
P 4.834780403383646 1.111971921508164 12.694129133945053 -0.40131192248088954 -1.17057133304961 -0.2670489153985401
P 3.9471482226754895 6.062669176093748 8.268717004891526 0.3196264323849398 0.6911207572837645 -0.6280451689795183
P 4.644610957954716 1.12186141969228 3.658989579425553 0.5915450171709554 -0.23242515467708358 0.5607108053989182
P 0.2092270688948838 5.509851651458068 3.6984562705791473 0.4302682005039235 -0.047638170703253435 -0.7169338616921265
Ni 1.4480883031185874 1.0311383815060016 2.6115488935089157 0.12534822109122284 0.4628283938281319 -0.9730473611250855
Ni 1.9165648606081946 6.6009236462736585 4.669265097257768 0.5774736266795538 -0.2311300900147439 0.5699387517550895
Ni 5.902321901148729 5.611096971076075 9.193430283909777 0.015964493749056376 0.05961256945631024 0.4596697935944922
Ni 8.58940884285336 2.240974752137786 10.128172273426621 0.1000177127462342 0.9244257434626402 0.3990673494210869
Ni 2.3939184630857375 5.349404939145567 6.847525605700744 -0.5470687891354514 -0.6566155244180434 0.7702294877914735
Ni 0.20900378680608334 -0.15685159948999347 9.21323639956005 0.6530632882904108 0.6925276649336202 -0.10014935322809204
Ni 1.4078794476131502 1.110706355012939 11.414451572298203 -0.16869933438334817 0.47584640335435463 -0.6026023034263814
Ni 4.041351568723637 6.78566923529448 1.5322891539741166 0.3239739107203582 0.776266952234805 0.5122437110364663
Ni 5.772990045097406 7.71578829119948 7.934762934035801 -0.3777482762283365 0.8064930981091981 1.1476208949010236
Ni 5.4325074590784554 2.86618268030034 4.761972362913347 -0.8059135714566442 -0.08159087349961433 0.19451603833613598
Ni 0.8285754241845459 7.425819887861372 6.804526176073335 0.1541666879848119 -0.20929216820404603 0.22102771147341935
Ni 5.035119579577777 4.484019609471332 7.048088063983675 -0.4355307344544435 0.038903619043733 0.05933283343236232
Ni 8.120317581637499 6.843695459100552 9.254727997106004 -0.36210182794033124 0.22339312638180234 0.10561269033550842
Ni 4.748161416546169 0.30278768795867056 10.561421787521637 -0.5452530760829511 0.12604319027571842 -0.8273627424693557
Ni 8.153855093760964 7.128077290338309 4.809324437308262 0.05674218988705066 0.19355187465065377 -0.1536612091033031
Ni 7.290422352393647 6.138006541602361 6.9943448787878735 0.0764538093833651 -0.587117577527221 -0.43083949962636126
Ni 2.2596418579423556 5.232448515465409 2.512267009910644 0.1536108154813419 -0.1945232374249876 0.5560748492888037
Ni 2.2863724302736457 5.38077290870579 11.282688020623912 0.47322979166711404 -0.6585862749911691 1.4210600300966234
Ni 1.047256274798761 3.2855642975358936 3.7505325239055236 0.3520665551915163 0.4920988606574751 0.19560927140031473
Ni 3.4055580808045924 2.7969381134901674 2.620241527378976 -0.01994610410462371 -0.6305159991175142 0.07472242851455518
Ni 1.34329939731395 3.445468624207584 8.290811987946018 -1.3019634463420673 0.0512737105733117 -0.7989692789283271
Ni 3.604776326674382 2.491358043457389 7.1728259136573325 0.3203175449146935 0.23128872707979525 -0.9002995398383978
Ni 4.274387559297977 6.777678086853202 6.171335235254114 0.010738983684058926 0.3265480992054376 -1.2677469483613586
Ni 0.752159615226787 7.421489842495566 11.225743856171258 -0.12771312177897362 0.0013876243761459972 0.524304241745426
P 0.3456126502049515 5.6113229650930805 7.94639349012692 -0.3936965720274768 -0.5535855072080466 0.39135249727533244
P 8.555057752268677 1.749284089221478 7.979799925720521 0.14589724888716807 -0.642474457030971 0.2404040591175021
P 1.80990472434276 3.189742834325994 10.430028866035231 -0.12656512421745944 0.2775680697623091 0.5275245484549367
P 4.003212818413961 6.095185195260353 3.801880172521077 -0.733346498722195 0.32735439715681686 -0.2801844243392336
P 6.8844918990502 4.0546400169235 10.397217246694385 0.10857228718446463 -0.1351981173021091 0.08368863656890747
P 6.297513118804123 7.812803002819163 10.323681505489331 0.26252634493783816 -0.6861688125951281 -0.723125078104503
P 2.615040049083601 8.571528196227964 5.800322665489995 -0.5252483508262503 -0.7919725358955199 -0.12304348421744615
P 6.801054907972146 4.062839079860423 1.6132872176206583 1.1488149152091247 -0.49640237312883545 0.07484172770123884
Ni 5.151958486369094 2.882472329046023 0.5117254845117886 0.38319618671678524 0.44152577569561374 0.16314163778991256
Ni 1.602180063672922 0.7570573575633082 7.273061492007363 -1.0609042701390694 1.576958870281194 -0.4596697935944922
Ni 6.887538298399421 0.735063619828432 9.082531403861408 -0.42441148461283035 -0.6607128344158686 0.8573256073800332
Ni 2.904701100558584 1.697305465310448 9.285647594536488 0.3310238755886041 -1.4252504140288873 0.32912948677936865
Ni 6.359426439702671 2.003934147582126 2.540514454084068 -0.02234751445726474 0.046169813687843064 0.25577257115377244
Ni 4.021581612116085 6.91676384467844 10.375386224651754 0.5247001916322641 0.7294265948424985 0.22977100488368818
Ni 8.034494093739879 7.077373272683183 0.42331481710749985 0.8253585675551334 0.7889052098241058 0.007310417618484184
Ni 7.643036297245398 3.923662924428384 8.243631669004028 0.6854759002931614 -0.0028904341739176024 -0.09165185728004216
Ni 3.1353777135953966 8.5379906841045 12.413362303003298 0.28269073570085507 -0.7815300004059572 -0.6938492119585212
Ni 0.1782215937379371 4.801098255089299 10.241135834814344 -0.7753647521355097 -0.2786492186416298 -0.0049110641483721875
Ni 8.792884816003513 2.0110032404340266 5.771665720157759 0.7821923165803044 1.346826625403345 0.37068108496891
Ni 3.6937366115280255 2.637314019399563 11.52050875652627 -0.7611401238956956 -0.7070919359010404 -0.33457148373054635
Ni 0.9726240106232015 3.460302871483758 12.50183534475628 -0.36718567022114185 -0.15967167696344112 -0.18657878576693027
Ni 3.3062472699721437 8.28327734741909 8.019465491609079 0.08841843794440901 0.06974014480861537 0.7189845735735683
Ni 5.422807795868623 7.813363467981334 3.7713303013024118 0.6579018473296346 0.5473698653156379 -0.30590368348220864
Ni 3.0928998781592343 8.438969145613816 3.5060702758314375 0.08541127568696903 -0.20048511143537728 0.018898893787031967
Ni 3.445929652002273 4.255286544980757 9.29326811278988 -0.19918593300797954 0.1121324937318972 0.09956519858984789
Ni 7.1798660792750555 6.122467192993134 11.53612042322094 0.30743708940759956 -0.20862239583053105 -0.8870300764230014
Ni 0.5362340836678904 9.076100518113526 0.24709914626449456 -0.23666593223130858 -0.22860449537941271 0.4108813113368795
Ni 4.49297801230539 0.36016847285217607 1.5934539826883451 0.26215070676597435 -0.2864530309567647 -0.468385061980303
Ni 5.957292685844899 5.703953392782877 0.3988071219274661 -0.4624648398411261 0.003270443221155658 0.292629849191438
Ni 7.808680871949001 8.884547989300529 11.549390791899443 0.1638188663625953 -0.7270511526317865 -0.8717667225060276
Ni 9.15691597859433 4.927618745569086 5.8638432558374785 -0.203507700311785 -1.2336826596877977 -0.36657477611002026
Ni 7.969010067372659 8.855087409243826 2.6560697148587984 0.15096309344584968 -0.7409754760223626 -0.04892989293148347
P 8.626688815898417 1.594613783983612 3.599571232474735 -0.61534366225245 0.5782423865247783 -0.162194700495611
P 1.752692078997906 3.253129636215411 1.3351129900419796 -0.88428799490149 0.6056251494131054 1.299199510443685
P 4.904947025783197 0.9052054754704251 8.192376225947411 -0.4116323305702911 0.40253422492376484 0.19989118660512026
P 8.458269034666 1.6815853214876162 12.347408209080712 -0.2505069518794589 0.7412554691566267 0.9293995425281478
P 6.328817810039584 7.803898838549187 1.630565816184753 -0.7679046963130388 -0.40732419011324045 -0.3934392046010321
P 1.7974208148434327 3.1297097836489245 6.087810558497463 0.20552061697675575 0.4312501048012186 -0.7265068500925423
P 6.811378314668911 4.056357571452734 6.014804547268267 1.423679984217974 0.042059648174211435 -0.16081478942894883
P 2.2563513850547703 8.670549734718648 10.056661438613926 0.5901689627590352 -0.8841640677291158 0.056596922558438005
