# total energy = -340862.6423575442 ev
CRYSTAL
PRIMVEC
9.31942556712497 0.00000000000000 0.00000000000000
0.00000000000000 9.31942556712497 0.00000000000000
0.00000000000000 0.00000000000000 13.63992133945693
PRIMCOORD
 96 1
Ni 9.225839871718943 1.7139355516171704 4.554410718415271 -1.7427261186194114 0.5699564923669023 0.33931234084964146
Ni 8.776923143311574 1.735882798770987 6.857975140828789 -0.23548862409375573 0.4297308399432147 0.9031066702698898
Ni 8.733792841898468 4.505420362220713 8.13673172923156 -0.08149857089612415 0.017749353563621045 -2.0134236865141326
Ni 8.680867824239646 4.888756293081835 10.538912448856228 0.3609070363012817 -0.2561047576822105 0.9297070464662376
Ni 6.899655339627401 9.023626976286453 2.390437311497907 0.013012353099267912 -2.719376623714723 1.3085351860223142
Ni 4.50772226032984 9.201022241497876 12.678606888348913 -1.8945703291186338 0.4944671037793355 -0.17461544275746702
Ni 7.084096090549349 3.7290097008060097 4.982758542706635 -0.00661673398556925 -1.0871783733442502 1.3684498601000754
Ni 5.2604988585674395 5.333479279994844 12.801380068510129 -2.917425872015098 -1.1881157696912763 1.9615195414456732
Ni 6.628143195857 3.387639143165115 7.181827974276466 1.175894030814104 -0.19861977609186438 0.4527879788729944
Ni 1.2689795790655864 3.1113088563889706 0.8658715549723884 0.9062773546883875 -0.5940459292159382 -0.7608611592026961
Ni 0.7826705195519511 6.2025716284349 8.812494458666734 -0.8793563619278275 2.9404619278989554 -0.09030614188542511
Ni 0.5066766640379098 5.359443199557703 1.3195803319939785 -0.1469981952608307 -0.5045594550183311 0.020423815071990634
Ni 0.2329409053329427 0.8055720758813734 0.23155510675469537 1.5709715423495074 -0.37727030815065343 -0.7630175434240666
Ni 3.623150346062823 2.3935080622143325 6.752142812419677 0.5695803399744062 1.2057964748004912 1.1883296854742953
Ni 3.0644880624608284 7.211967928425153 1.1428551334790986 -0.7634957686120657 -0.07560046024413432 -0.02233465894145831
Ni 2.1364783057377865 0.3991631112608369 1.6271474693052241 0.31185964395532745 -1.482347930372828 -0.538784437639472
Ni 3.791160949752423 7.042522133201928 12.41981669238729 -0.79624750912179 -0.2368942461920307 -0.12425498802704407
Ni 3.5442893671177713 3.507654705308152 3.5445652221138446 -0.24655439498961407 -0.23219555516478074 0.5863562738811644
Ni 9.166521728137608 6.772398583837436 13.040719691420913 1.0487511797163036 -0.6538163644063514 -0.10044528720195604
Ni -0.09874210945598068 -0.09606836626768768 2.8882530657295113 0.3366229669429364 0.2770404793936132 0.6165317690232801
Ni 1.8737636996799971 3.0078259551592543 5.410697244216661 -0.6973777939370699 -0.11632004945068354 0.3257459150191164
Ni 8.065813696676827 6.856730065576242 1.5714145087302898 -1.5485672065123783 0.5293502888097658 0.4142499706987962
Ni 6.5951151517325295 8.39635508183673 8.418218454160659 -0.6573074082787455 1.1285679920346305 -0.8002653720319314
Ni 5.8641739675422295 3.3576305929165846 3.1421198091767555 -0.2135244611178387 -0.11213892148980041 -1.2113801395358557
P -0.3183198905027842 3.883516456883771 5.909128080534105 0.9121654380380485 0.014566584960265236 0.4442321188831833
P 4.005917791965821 7.597186383245966 8.208109209465567 0.9422743416082869 0.476658871953321 -0.8891615209437075
P 7.150795219160757 1.5144625672943284 3.3189885268449983 0.39959468267946663 2.2475609387863162 1.4814837826003195
P 8.018359181811759 6.625561714981583 8.012758207060402 1.1738859992451396 -0.5333817785666621 1.5634464376170556
P 7.567196471848521 0.5365491506735124 0.5609772289068816 -1.185493758687397 -0.17181422586324602 -0.46074811426033546
P 5.758435765331103 5.613798280903402 10.64874094693819 -1.8882775541313865 0.9164512098975959 0.36142999868428716
P 5.335361803954535 4.825477393644716 6.350883762354215 -0.31487786195636097 -0.5154516764508027 0.9615234196458861
P 3.147971476475219 7.335068220422931 4.451224174917823 0.6779052870347549 -2.4170521729433405 -0.28790313313973
Ni 6.292271099286487 4.026979693693051 9.45144266137931 0.4918222099573208 -0.5344523859230215 0.4570909771237225
Ni 8.184235637052007 2.675057227294569 9.245874772751332 0.0014966391501845192 -1.7988373597906826 0.8666201453080816
Ni 5.750197393151072 5.65286531277975 1.8267127159409422 -0.1567467900071623 0.9752790786690816 0.3334695089156192
Ni 5.851667298463495 6.127718002473348 8.55034833756707 -1.176946126227702 0.4030600155202477 -0.7375811056288328
Ni 2.0661259623135138 5.265102654785692 7.075313463917605 -1.5777453707382312 -1.6881120308189574 0.3492316568458824
Ni 4.957915750036602 1.136037973694378 3.069678050545737 -0.3280347110532931 -1.0002894846704902 0.7345762573642381
Ni 4.522857007411707 9.377205981388705 9.488597347134231 -0.2689818707551948 -0.8952408943685679 -1.3780459884289429
Ni 6.862927483562352 6.589178677661624 6.3612777176623485 -2.6254642525352785 -0.999655193520601 1.2878000103574918
Ni 7.50437422426301 4.956741502418181 3.309671897129639 2.3187997796276454 2.0985464844264055 -1.83184261107211
Ni 5.179541008875208 8.12330523285173 4.449887769294953 0.6118569892554302 0.33787997927848906 -0.7583674462465648
Ni 8.365815324332246 7.667781031734358 9.873147599143609 -0.5145936993258815 -0.057928239775351845 1.5184914701729202
Ni 6.136403707079444 7.598435186268731 0.30176020325538844 -0.04067279512901382 0.21438912311097913 -0.8933781301282163
Ni 2.0790986026694003 8.998371333064863 4.178507961367263 -1.2292289947918187 0.8862800856308541 0.06935113690031282
Ni 2.9814799391491316 0.49960135616564755 10.970711256426176 -1.9638057663766888 -1.1216892626369261 2.5092118230977367
Ni 3.60269420699589 6.452006053093884 9.997012084035914 0.7334529423930723 0.08467028375588644 0.22762901884002085
Ni 7.428840280236818 0.2368392210375888 5.117739238386657 -0.4592208789825317 -1.0211403599775706 0.5168305590762002
Ni 5.385621465908051 5.672650453207585 4.423644266965804 0.21542116391991933 -0.21664140948026558 -0.7419236988682448
Ni 3.713045524850813 6.29746201931395 6.2210995783569825 1.5190198318725647 1.185689419637971 0.3791844944542308
Ni 5.778491169099687 8.021164328900209 11.33782952295733 0.5855250362291207 -0.061196883224294604 -1.4573840613386384
Ni 2.0040865464736166 0.6909319583915514 6.380141166903979 -1.1554822999269714 -0.5500319855288334 -0.04138627625627066
Ni 6.585497504572131 3.724275432630155 11.875801749911263 0.8196080382246014 -0.20472666032055065 -0.5027069751906246
Ni 1.4516589585599031 5.123820163553479 4.722413866564436 -0.6052047740462352 -0.38301338128201773 -0.1773230714966172
Ni 8.097015133394864 8.765823707489835 12.372732158716278 -0.5326585272473923 0.14576997928068441 -1.3815748275178077
Ni 2.4142531034730994 5.440699270867312 2.7032550131600908 0.9150910963252756 0.37116316681165107 -0.7916542333241527
P 1.3302361631598698 1.9655786801298496 7.994480949685427 -0.7492474862231677 -0.6105022749997485 -0.031049413106636847
P 0.5358529895854487 3.704518250478948 2.971497902450001 0.9816225043886061 1.7729581780310755 0.28219759811452044
P 0.5688325726970949 4.221522701903635 12.54700914414101 0.31373757770433064 0.49089224194388364 0.20488966826097618
P 4.8497917748864605 7.923673818294655 1.9994081948510194 0.6169727132154407 0.5514635757690373 1.0946106612525792
P 1.7555933837944786 4.596415233222779 9.398083358490183 1.433261457258822 -1.9648154385881256 1.1341650265064338
P 6.665281106645942 1.090177080597167 7.33557706105758 -0.1016555054599733 -0.7201001752352502 0.38065876500691215
P 0.18970063469842938 8.610021551261594 5.7323273946723265 1.4894374902297576 3.6190159042613024 -3.8912854446288336
P 7.358525214514717 5.093839571581578 0.4773810498434203 0.30210025057571843 -0.5306810918060473 -0.8891748906801461
Ni 9.283927851128599 6.828389692499913 3.689080622066932 0.5999368407790765 -0.2036030882390687 0.25555094206126955
Ni 3.7585988769051046 4.4893350337334565 8.46875397111025 1.3762392742375071 -0.761208772350102 -0.35872545526893057
Ni 5.439208162780428 0.5465125485215573 0.8811414337246299 -1.0244910216173582 1.1681822639921429 -0.04219900196555313
Ni 2.0710932161279443 8.135849179632636 8.899271357668031 -0.2305348796329062 1.3348907931977074 0.6421471555985393
Ni 6.376425511939976 1.411333804235247 12.46817053181726 -0.11837050422180904 -0.6163348225211257 -0.3370808804159614
Ni 2.527847581416994 4.970058961519159 13.455291540874581 1.417356355992791 -0.32261045471392824 0.691725223636983
Ni 8.883556010374832 2.0929006718986156 2.0206042963060686 -1.9173701006219688 -0.1461895833166063 1.3891953201775429
Ni 5.172896258463032 2.271609976111605 8.528046952242619 -1.0646963901916502 -1.587402434212021 0.45626642433989817
Ni 1.6959117826169658 5.9794645809349545 11.556846274586444 -0.792738467527267 0.6143291049450066 -1.261715654565614
Ni 8.148085585370623 2.665998745666752 13.382944840384102 1.1111266566297315 1.4278996787262765 -0.16963958680943042
Ni 3.3344811398677177 4.228857089805993 10.971543481127167 0.13973817126430774 -0.13774170965956922 -0.023194950059224565
Ni 0.4654605726313409 6.69787113776989 6.13295831545619 -1.0876404005823335 -2.239608259598143 1.3269090605438116
Ni 9.454836796162079 0.5117054260609245 9.482950707197713 0.9135152671977235 0.7748050229772979 0.9593027578454835
Ni 5.913594881196876 3.114952751776292 0.663252332586222 0.42506094527137117 0.4150806941302077 -0.49058345245421314
Ni 4.371574772571831 0.09203491889266777 6.793008493425829 0.7719192167890706 -0.5055629565821809 0.21228801760757632
Ni 1.8515089114832606 8.44921486351675 13.069512988578634 -0.01988491184938511 -0.7102857602479896 -0.6531489060256817
Ni 3.8831250410109637 2.519655806364678 12.524175619618049 0.3241664863471385 -0.2669910655774112 0.5510833096114832
Ni 1.7028920323486894 1.7833839107637701 3.3431034723801214 2.220706023377001 1.8219726602565656 -1.0687906148656818
Ni 9.05171572487312 8.547087470569567 7.656579082231645 -0.17000134102422335 -0.16426392431981388 1.432285723609114
Ni 3.741898466332009 2.260557137417581 1.371521218315457 -1.1547670190275015 -0.3701766345286657 -0.5431185462384517
Ni 1.0059015154116193 2.304265243214354 10.998100116154562 3.089797770154027 2.4339270943218083 0.5870936662678211
Ni 6.563252035800937 0.8128039501027584 10.186088317222959 1.5970792951801527 0.013798853556305267 -0.363580983589019
Ni 2.7473107335296185 2.0618297071381804 9.49952344164087 1.5031905781497916 1.8000128681560228 -1.605637983383441
Ni 7.050620713998814 6.255217063327431 12.091790620181449 3.75329099552851 0.955205447847658 0.15590963881784764
P 3.904876580228377 1.583128094695314 4.807867407138621 -1.78939498343086 -0.35801403102420276 0.6139647796270523
P 7.411627301258856 7.1786509821088496 4.607333872188984 -0.28046853123855564 1.0725364550613592 -4.036839708354286
P 0.7077758881180094 7.649412443989061 1.8002651181924 2.3660461142091185 -0.6536536135762421 -1.8162025905420076
P 5.137920454400072 2.4352031720938125 10.756973959367182 -0.4195754966767677 -0.11081711735458334 -0.7051535812277469
P 4.221243119137344 4.332284074482451 1.4226438590742585 -2.2192605491797264 -0.0740912226884595 0.040908051068271487
P 0.7108326596961206 7.980606188936976 11.2204038291727 0.28758277368583374 0.047638942034201825 -0.09069052180803737
P 8.538373807686842 1.7021930754329628 11.286311738555504 -4.6471548070438935 -1.6683680154228104 0.4348738175967349
P 2.2429247842901834 1.2443576567809225 13.137985603870877 0.9927625801658256 0.46256562708504856 -0.01420303097325941
