# total energy = -340876.3678855543 ev
CRYSTAL
PRIMVEC
9.18743797925650 0.00000000000000 0.00000000000000
0.00000000000000 9.18743797925650 0.00000000000000
0.00000000000000 0.00000000000000 13.44674416310326
PRIMCOORD
 96 1
Ni 7.0460760137066885 0.9218583579089421 4.011325539171724 -0.5832259557822987 0.4657823342501333 0.052948270062257205
Ni 2.207557641977303 3.136076892554938 4.736037092732232 0.37005373579755624 1.2287633680093097 1.1116588749841179
Ni 6.8535073097952335 6.2616341684124235 8.870857419469157 -2.6193601965200695 -0.059107347685117564 -0.9869596003308034
Ni 1.5843920862088807 5.843265796751359 0.4421178993142657 -2.213799268954839 0.5972824338753648 1.7966205546450218
Ni 6.628424262222395 5.472773165361411 5.1282791464871424 -0.1738842210183973 -1.9094989254040082 0.2373285055159719
Ni 2.7619000984613407 4.7233538343472246 2.513774955973905 -1.1360591582053534 -1.8544222961448384 1.3493807592837663
Ni 7.160753616866171 2.1322665862256636 1.7312551227434885 1.1823860662963508 0.9298397153893598 0.22281642794272596
Ni 8.904759066293263 6.151697283345416 9.451475030357601 2.5244152703110525 -0.6638544653686438 0.8593341531696297
Ni 1.2598366456375047 0.06932657089575633 6.769884166372922 -1.0662282534551444 -0.7633484444009241 -0.47315342990322384
Ni 1.525353608568852 0.6972539758644318 12.167286345270668 -0.5657733075234901 -1.2646960773501768 0.8047817718450463
Ni 5.306967468820856 7.83194191191633 12.827548938856538 1.0117872008974447 -0.16177329668747623 -0.3879696968460286
Ni 1.9315118749103393 7.7618876959180065 11.237942062745933 0.2622085565871033 -0.976731494844892 -0.01645248912906844
Ni 5.170653448785825 5.52048353174558 3.087574569001057 -0.4258934684749955 -0.501696274537923 -0.32911894525640734
Ni 5.252568647453503 5.239467360632046 7.2188044449036015 -0.7428680650593852 0.23149955753902066 0.08966413742605203
Ni 4.627381855289064 7.769899141996766 2.1510622472209904 1.4577242182868766 -0.44585139965416115 -0.866032905346044
Ni 5.547467037632409 0.34996973201984277 7.9012262205965325 -0.5913372720355234 -0.21812030801863724 1.3780480453114718
Ni 3.950855658665789 2.4186941584176247 8.777080319388308 0.3926884424779366 0.23629595048639948 -0.6489160988912566
Ni 3.1879216061127784 2.992927418526104 11.186817644340127 -0.38004092891725516 0.35975646763660624 0.24986006232407937
Ni 8.058265263641271 8.528147601086282 11.598718059533935 -1.6271025810151203 -0.6621837625344402 0.03966620824137039
Ni 4.638471093152667 8.720229370775058 4.340675903720743 1.2066007158693413 -0.09483154055960441 -0.3367746620294522
Ni 5.185821909194119 1.6153445653824345 11.065917389312359 0.446378990022857 -1.4603642270128852 -1.4036611178938858
Ni 2.9813328715634957 6.187509917307575 7.727763713090338 -0.18760337037670272 -0.5361308020667089 -0.2726387507814918
Ni 0.23949078810117674 0.029452170521419345 9.960258818475413 0.43336740825453746 1.4534032223140194 -0.16095491455123895
Ni 7.044955146250715 8.83566953130213 1.825019360410909 0.17967717355109056 -0.9145995014008378 -0.6024104991305496
P 1.9638608446847778 5.872086790270932 10.211766775694729 -0.8876486838436067 -0.41664880994827597 -0.6451165226395082
P 0.3393674283789163 1.8665199373402235 1.4121368080773988 0.2062533813777222 1.1517521434605777 0.29882132271413053
P 7.398120269263898 0.31145599123755185 9.22938800636995 -0.8568625517006856 1.3056084992938224 1.4155306156379621
P 0.4589456110549251 1.719897611685505 5.554823419370095 0.1293149190484547 0.20927777002634282 -0.5451779998706416
P 1.1778203851500262 2.0637834221533358 10.516846684846662 -0.45199505065805384 0.9222675594690568 -0.6046129060985072
P 4.805223095824084 7.3255303203323905 8.234879981181436 0.3016099412028612 -0.6740342341151231 -0.052417337259451656
P 3.2060300467334595 4.011970497330817 6.7462990938628495 0.908099495498791 -0.4630541366856928 0.7138444241335256
P 6.332166131195259 6.520894485954281 10.94821803774083 0.5520150773971332 0.48746856097431523 1.0349695525511788
Ni 8.429639889094934 0.6477823775842787 0.05909635850046032 2.9923689011808916 -0.4400183379121519 0.892891677410101
Ni 0.6840810270252982 4.150232254256555 11.088252970232167 0.12554979557906767 0.2960152207239031 0.10082143959445215
Ni 2.5935127317967823 6.943985200831493 2.613549615688027 -0.9179108251622577 0.3899661584507671 -0.20899777689207877
Ni 3.2575072627647517 1.119369903552475 0.5814196742401366 -0.09000120905049662 0.12169159817524203 -1.7989700287138048
Ni 3.026140007487931 7.625977923162179 0.3134956025098965 0.13462861795188427 1.1498065896984329 -1.3807929550464608
Ni 3.2281258355171927 8.248390109001177 6.018614485312564 -0.009284253515403365 -1.541772295077732 1.7717482168833745
Ni 1.380412584098093 2.7750656973499432 12.97409133379923 0.15667582755991083 1.4161394528665545 1.24105298400994
Ni 4.606140498254557 3.30078928395401 2.0435150148203656 1.6580285811700155 -1.3140710282388788 2.359726342638678
Ni 7.795881217123751 4.938780884410001 2.9167598811736455 -1.7700158075733 0.11815350311499652 0.06655274821956926
Ni 2.0522439998197104 4.11314256638964 8.882044962921112 1.3848082468534408 1.7278371173227212 0.7119855165479158
Ni 4.123423309694837 5.486168450204106 0.8989715306993131 1.0736204321541574 1.1736319742528045 -1.4168812161285858
Ni 0.21791776454895892 0.9823025135880193 3.403976158202136 0.1348124518279162 -0.8991975650234707 0.7532504367349737
Ni 6.343641241461738 4.339925290022768 1.0487616850328803 1.5076609552163196 1.538793672065382 -1.2662035151336388
Ni 6.620761938793857 2.3930795808171887 8.972770914787791 -0.17672786111477953 0.43321648449897004 -0.6918429801617697
Ni 8.241113657975514 3.3845970948834134 5.433708178289296 -0.9761118589830221 -0.06080170466840497 0.522700644703732
Ni 2.530560405499011 5.878591496490841 4.8191246085096004 0.7214219793704673 -0.4625928807785582 0.6777859878480713
Ni 1.525353608568852 2.113671211382305 8.18760142439096 0.758993509866338 -1.9584923245835755 -0.44949336728212264
Ni 8.56153475137322 1.335972945700206 7.584393740545575 -1.1927303856451523 0.48393252279659876 -0.6034340552990576
Ni 4.460988162706032 1.8519762227270635 3.9979054482459864 0.7555019517733118 -0.22814941011986517 -0.979652525146429
Ni 1.3378196207711128 8.001293959588077 4.246791310613378 -1.4132582746640177 -0.47366816475611323 0.877219775200799
Ni 3.971573331724964 1.76792035096724 6.370206718912119 -0.7000507127835428 -0.35167163374594274 0.3734481061910859
Ni 0.023235949859850162 4.123873494164858 1.164064952731313 -0.7540544206935078 -1.3669390798825038 -1.21080138421425
Ni 6.011055979935276 3.042815207755073 6.570819024935905 0.9395016639591561 -0.8328471626226948 0.5667942925888368
Ni 1.3779871004228723 8.89332070577944 1.5895131642413352 -0.9749072971519596 0.3018122870216544 -0.12621442574626004
P 3.3564100345971375 3.4593185294689026 13.979638984685264 -2.085119412387222 0.07319596456769975 -3.09333406544206
P 2.9400353370175996 0.3719644589837751 8.02577021360003 1.0776928024513184 0.31447419876003907 -0.0007232513192697222
P 0.7119731705465187 5.52627161778872 2.5756973704535238 0.6881282503143439 1.0513868175669376 0.9647853782266093
P 6.622167616832905 0.7793896730480387 12.735600138970266 -2.7397618722392947 0.23048088646651918 -0.8273812544121171
P 4.712172722101985 6.548815110533809 4.991942157856702 -1.0051362712398302 -0.5925588031474505 -0.9189451799640431
P 0.6929625234981609 7.894857488461446 13.045372991536226 0.16749580099355024 -0.04891163809903835 -0.6700893905347621
P 1.1999988608772327 6.863760490785939 6.430340339181262 -0.5449669123011002 0.3216450054768654 -0.18824023262975323
P 7.697226506121784 4.232257702182197 7.460724391655265 -1.1894879674484549 -1.0876486281124493 0.5210402262821736
Ni 7.373332561098196 4.379835521405942 10.606819266783917 -0.6972451250139475 0.865039173974207 0.2961872275253931
Ni 4.130148514430676 6.057829227626745 10.202139259242971 0.7983820389662895 -0.20257079031981243 -0.8049720334789814
Ni 8.189783440954843 6.065941735525306 6.681781228101982 0.7534733513790572 1.46744478800875 1.1780912955757388
Ni 1.3934863086050586 7.738275979837261 8.734493787268041 1.2389536782787502 -0.674630215827909 -0.8193334444069761
Ni 8.59173386061735 7.15211742499228 1.0694380146203197 -0.5283388168261158 -1.135921089965592 1.1929173048449777
Ni 4.7972851492506345 8.538152721246567 10.186204566491826 1.4134297672448755 -1.3046610477788887 -0.37777527281153006
Ni 4.5419386803665205 3.9236975914538488 4.909998478130717 -0.33628486687722725 1.6570736734559137 0.08254783809624494
Ni 5.372988399465308 2.681868324617224 12.959528325565927 -0.11453878918054466 0.00369647501498073 2.4017703070836056
Ni 8.086397199298565 2.1492909091430263 10.872351848360141 0.36178018293485437 -1.3964090643171627 1.6609632383183073
Ni 2.3933092667712814 0.8624762700815902 4.653084632295871 0.10738803706837634 -0.3420330822149142 -0.416530796313173
Ni 8.950062323878539 3.3670123382380637 8.96798334076068 -0.891888175846251 0.9652540903329117 -0.32294161280110184
Ni 2.880169989942836 0.7009160887164884 10.190453756642542 -0.6652752569755703 0.6309281469542682 -1.5052117223448787
Ni 2.7564335727539304 5.255977187012242 12.240961330649311 1.340488341890143 -0.7636672611929236 -1.7337395988500852
Ni 2.31170644100117 2.2646759450411156 2.4865856514722084 -0.29042281423779015 -0.25292944527802247 -0.3466646674496546
Ni 8.226671005182157 8.535846674267473 5.758433586466701 0.20080932754401545 0.28688009119185437 -1.6895171386965997
Ni 6.7439379222547755 7.155176841900798 3.6006755343119967 0.06274108778296292 1.3461753649725912 -0.2406151466870437
Ni 5.27482062268602 4.810368061195764 11.993177960861566 -0.04050361654100121 0.6132955214741695 -0.021116984484273307
Ni 8.676515539992106 6.191387016212662 11.971260408378209 0.05491722086316993 -0.5144977971779655 0.42462668594743
Ni -0.019487475089054674 5.505315071337288 4.7128819923282235 1.317970106182969 1.1619985037789342 -1.2209454146267875
Ni 1.1275742858326718 4.489120098363326 6.585597019222239 -0.6111409370250119 0.2571486255656926 0.6771956625622402
Ni 8.235105073416447 8.060690747316492 8.036096894096044 0.3934448610279869 -0.371038982528961 -0.16606009698828822
Ni 0.2324210544341985 3.277857438297379 3.4748673498171727 0.26458374168749915 0.6128831165270993 -0.7659028353916616
Ni 5.976786835584621 7.681304675784068 6.235416894868448 0.645855457688062 0.13625252670855245 1.3321551394340991
Ni 5.221864229110371 0.8595362898692016 1.7685561216881693 -0.8122780802220914 0.9994885860357496 0.04447237138076212
P 3.660247802109337 -0.11658215909082151 11.981412527549114 0.05219365128441979 0.11781463171833904 1.5881963908682262
P 5.9820420502142655 0.7182546220190502 5.902501804311908 0.032727829250324275 0.3832926030853334 -1.5633574774476753
P 3.2908392884227076 9.409498544131408 2.6433343714709734 -0.37600738227782987 -0.028899199532853456 0.5663322653507536
P 6.400676857582077 3.180323594751387 3.646649474883224 0.23664613473696663 0.33264032814610456 0.1521512002166799
P 6.2419914256184015 6.685597689915189 1.1685906847707588 0.21744333655627068 -1.0379018957066253 0.1688875391347543
P 8.06909725323629 3.9721062031384595 12.765827729272704 -0.3940480418296246 0.5904260730751638 -1.1507165031072117
P 5.132599079911721 3.652851914387547 10.099702079949004 0.16159023414239268 0.2668982487532887 0.8197718174959752
P 8.528147601086282 8.188313450848648 3.218733517482428 1.3108916020696328 0.30963949637555704 0.6664214547648716
