# total energy = -340897.4870088785 ev
CRYSTAL
PRIMVEC
9.04064384999669 0.00000000000000 0.00000000000000
0.00000000000000 9.04064384999669 0.00000000000000
0.00000000000000 0.00000000000000 13.23189611676286
PRIMCOORD
 96 1
Ni 6.374313900245679 1.855628318317432 11.50682755916458 -0.2080320705446998 1.2839976058922662 0.23137794435949186
Ni 4.513613780713285 0.1991111407457254 6.043708402438638 0.13583703643768863 1.4018495186064437 -0.22123751349138027
Ni 2.7422623446166865 1.6543655043289949 4.693234197324715 0.3136499030865308 -0.2518210427051921 0.9154772760201009
Ni 3.3779823407553495 4.247737484936358 4.788808268134174 -0.44150032177431703 0.4878922787752953 0.6123871507272872
Ni 4.807036918383248 4.823734987623955 2.61892264833237 1.5458480078090022 -1.8897543957872294 -0.36420961831195336
Ni 7.3469696530340185 6.005347142340006 2.502746758256141 -1.2737638439794 0.5029100923403661 0.2829676435113256
Ni 5.074052335288669 4.555336352205362 11.592013930159435 0.6363380051159299 -0.664396711025359 -1.3136018019119442
Ni 5.571125016930581 7.736386347389329 12.37968274013099 0.05333342131581783 0.6141123609485102 0.5151904523696159
Ni 1.9133257075400627 6.446177978423476 0.4104732580090921 0.5633682976264233 0.4361362292489263 -0.01782571532751124
Ni 2.625674201179669 1.7880947085566905 0.3524133389669961 0.3981960025597271 -0.8567725630900407 0.43367799751642083
Ni 0.9501626308225115 8.926650398295612 4.656039180286208 -1.8361731201266636 0.4517878197432542 -0.44530684000460086
Ni 8.659327599498374 2.2912065403083988 1.2944845935196465 0.07663044417054544 0.6042989744025141 0.4031713442871315
Ni 6.701042769958289 0.8746054496209859 4.870608013932726 0.042288219245249746 -0.5698418211659089 -0.895992942043244
Ni 0.8212548019743879 7.245190084267428 2.50317076445397 -0.13264295498042317 0.28696905136123485 -0.11292439350557326
Ni 7.6887059915823475 3.7063927702290704 3.7386986070589274 -0.1333752051607574 -0.0492952466907022 0.047851572265640165
Ni 7.66001098791694 3.947045669589335 12.529745675651153 -0.33797459587482437 -0.30978707769701486 -0.11553920542060103
Ni 8.069063960772965 8.747636608888323 6.844105534924537 0.4668035764257961 0.7261378967888978 0.21374480465876092
Ni 6.849083313443181 0.7676790422952541 0.4093739157136563 -0.1074656843838472 -0.7997051286530872 -0.09775128530956068
Ni 1.8477719987883712 6.64360755940809 9.244080965780789 -0.29294660910090836 -0.9605669692698877 -0.07566550915411485
Ni -0.0013542884527656042 4.896385601819045 1.3246053067244472 1.0095261727774099 -0.8162797451823168 -0.2624386703200383
Ni 6.429940982020491 1.8480612993924332 7.017152499373045 -0.08704983973165653 -0.10367202166936983 0.6718495677589784
Ni 3.2487553771783704 4.313914998115558 0.4023484313568862 -0.4195608413887484 -0.6054950515931443 0.46723577886720824
Ni 6.008312473531642 5.491585432101263 4.733988515857573 0.08139212722524691 -0.05060959462675154 0.5058262375458966
Ni 5.276155929157661 2.962745567487498 9.279409993923094 0.2517670495388051 0.06937144861528698 0.13928051490159882
P 0.36661980675521955 5.553233582698117 12.411968687544318 -0.6447989913990895 -0.2545595246822777 -0.3161654704195329
P 3.966464972637002 6.0142883391343 12.621257785166701 -0.3305649336743146 2.244624481865812 0.23274525702066368
P 2.423001046746429 8.471878889353901 1.472578045380262 0.10162799465614757 -0.1913471536898511 -0.6770138855687373
P 6.406453389228202 7.887437425285242 5.8250378286651525 -0.357340659106262 -0.7011701710999666 -0.3486855545344253
P 4.595069982044514 1.1569583188636359 12.696824911076494 0.8691645089964902 -0.363784872069709 -0.24711746658193567
P 4.075260081052097 6.1904000818570895 8.22330548189305 -0.6579437563111636 0.24259849566565964 0.3050361932755908
P 4.653969776902777 1.0782866358465044 3.7562835634639633 1.332346686619615 -0.7880246069913655 0.16445778549817483
P 0.12213005813358176 5.408755052900739 3.607967280340825 0.7062280452388482 0.130445175998156 0.6488662194899276
Ni 1.4932069865786635 1.1038897393059985 2.538751122496054 -0.5551423101722052 0.3294416187031488 0.2103172670344507
Ni 1.7212120251550889 6.5458329958789845 4.708874511231821 0.97994665934808 -0.7150266173670846 0.18390252448634778
Ni 6.058036014854813 5.829859204044726 9.177417970025397 -0.6928128002742068 -0.23852201160344083 0.2218738615237985
Ni 8.657013194665877 2.3565613548947972 10.170763236326112 -0.0213650959393374 0.15334830584857462 0.38734826121194577
Ni 2.343588030931389 5.152696896374169 7.011581654616075 -0.11136707632078241 -0.03516369238532654 0.011856128007637646
Ni 0.6684977545788967 -0.07418119520345536 9.175023103462395 -0.7066584479080475 0.06512064375873301 -0.30580752422397656
Ni 1.4730553913769642 1.037874957716583 11.493661669486594 0.06510007493344273 0.7102451368180414 -0.9385894365575319
Ni 4.036358190449624 6.794884653400926 1.756242712049456 0.14612504862725803 1.4737987552512362 -0.8648707667171427
Ni 5.769097036547811 8.010164165914702 7.959435304992416 -0.5017374121885037 0.12368266046334184 0.1391725285688248
Ni 5.259891810823047 2.930994826191685 4.559989571608823 0.548783714944029 0.5955237993130453 0.7659784258246034
Ni 0.8781611348577864 7.304144122988952 6.868319995484534 -0.5180433484373788 -0.21904950470112597 0.7720485432780834
Ni 5.079793144150526 4.569955073354374 7.055617726876262 -0.6477161650458845 0.01734826147046044 0.35024852814617097
Ni 8.187975549686357 7.053013117375315 9.152291308498217 0.4334501977763309 0.7193285871765482 0.029335001518691412
Ni 4.597583281042303 0.33900877629065723 10.468137135370297 -0.4922739527827586 0.08492867962359567 0.07177363029887639
Ni 8.117295795856439 7.146746513091429 4.562344659338766 0.3504344189047319 0.33373330409996715 0.5716585626596735
Ni 7.364463298935896 6.092978103439186 6.884462969191198 -0.8933125669976033 1.0289408298585958 0.21308788780105237
Ni 2.3603945878986203 5.152073091946661 2.650414827213303 -0.6765677991702541 0.3324199846051824 -0.08445662508318356
Ni 2.3122531592539146 5.116570483441917 11.343399839801137 -0.12072794871039207 0.41104817593204696 0.23919666907296225
Ni 1.1764680283500724 3.3361603221806257 3.8889866546116267 -0.9350798807423768 0.16877441059565773 0.11719371030488848
Ni 3.6778966607289556 2.571448419205783 2.5332200565721426 -0.22835201304897448 0.6861785827871407 0.19850793310434844
Ni 0.9375238106825495 3.3283492058709494 8.217920874399944 0.0683687183823855 -0.030977165107804714 -0.24938209424639635
Ni 3.6572026268946405 2.514835907248385 7.079818626470442 0.1255621368742418 1.194563325088833 -1.012365699108734
Ni 4.172618774962864 6.931687676546781 6.077344117982793 0.3709189120113289 -1.3496712939409916 0.016278425445049385
Ni 0.9214133832938425 7.574902366459427 11.601898970174481 -0.03923811956501629 -0.8045136057853242 -0.5500687523040397
P 0.21053399428423902 5.49711830615395 8.009399327442711 0.5462115833414787 -0.12395674006033489 0.25029997807497534
P 8.487383593602853 1.4538621044262208 8.113322432872526 0.20081035598528 0.8016982478237161 -0.6472538806974852
P 1.7874076196220432 3.196419089774765 10.372351513494118 -0.5195363880431375 0.0039978083054834366 -0.19700049532088654
P 3.9862549420836233 6.217729948297079 4.001153019128433 -0.5383879735320019 0.23780827336586785 -0.6461189957620938
P 6.82929334399656 4.078894419890627 10.356697638621197 0.5905008921771573 -0.23224389190421293 0.5927169259918695
P 6.342391386716205 7.924974178662296 10.135566201584409 -0.19580621790246924 -1.0542571971361971 1.1305276868641627
P 2.4902363152592315 8.340111504847503 5.914882843449795 0.2493232159840029 0.8512043249736437 0.28131005330324454
P 6.945718755843792 4.050660489062944 1.5422705608988163 -0.4592823283480864 -1.104571372009717 0.037809614648605855
Ni 5.13023993698385 2.936364968654587 0.6684055400113519 0.6819077233259287 0.13408508674358843 -1.3284468373445768
Ni 1.5226252417542259 1.1041790399100604 6.967519364488646 -0.4653023092899212 -0.5037089340925777 0.08856319105238943
Ni 6.758758240468674 0.9037859358625849 9.407308886914551 0.10248674311201705 -0.29824179606157675 -1.311112716941503
Ni 2.7062986632742194 1.6015319815121578 9.158205697722511 -0.19963201940646264 -0.12694924702975555 0.7966331745959828
Ni 6.3680668153267135 2.043339207134336 2.4591880319926567 0.7375134856156911 -0.4150130741170659 0.9130429555469952
Ni 4.036801181999595 6.914953444730566 10.53924541571998 0.1841354664327603 -0.3144855116139487 -0.6172282808696725
Ni 8.249831635092379 7.142027296987666 0.23835295955797092 -0.12030243113719927 0.10768422815255649 0.6498797483561066
Ni 7.503381832748955 3.987023396813163 8.195267733037495 0.19376476199240825 -0.5878521417004005 0.03182331515818391
Ni 3.1268784570733423 8.485349448730542 12.456189188939595 0.4364671302257838 -0.2773893780925997 0.8597511861023903
Ni -0.09189543281593149 4.891422288330604 10.339986008414675 0.7472438255295776 -0.6212615703987816 -0.8909728631208335
Ni 8.663549580188905 2.2916947350777535 5.724647806862449 -0.09050977325579897 -0.5589537134984953 0.4336252899016145
Ni 3.6490298848298863 2.7321368234745136 11.423083170868098 -0.19938725038550822 -0.5021557306728448 -0.04436258527577521
Ni 0.9707843395058116 3.2228448918270605 12.509407843185588 0.1455187825018268 0.9603021456442752 0.008285379937243795
Ni 3.1647135516983362 8.370271092820973 8.136994454799904 0.6183402829869286 -0.027026665100488935 -0.432516630218468
Ni 5.756060428077264 7.783072232369848 3.690865464370426 -0.6073994677047088 0.21026507364027658 -0.44706855989071387
Ni 3.177126355741375 8.538146808971872 3.5666045264750497 0.325813020811626 -1.2822469417497464 0.37139405187553454
Ni 3.3862726111905035 4.31476481863999 9.203935082580848 -0.3826490559640636 0.4933178206662408 -0.08217477102754235
Ni 7.320028534280737 6.263945719795997 11.435613503281536 -0.3960401325589889 -0.0768628718963257 -0.45916971402962214
Ni 0.5698489607868911 0.06879658771034991 0.35038100222345997 0.174533424566622 -0.2097462250223291 0.5143401885541786
Ni 4.737161781858378 0.28996418732264573 1.647185424961929 -0.665940401363395 -0.48502369897824854 -0.5801149209571429
Ni 5.954448317312834 5.543144224131452 0.31260647991244184 0.14736997677795263 1.0312761628599918 1.1292339077534037
Ni 7.981767503497233 8.86014742193684 11.315202975613348 -0.17361322674519777 -0.7288074732012609 -0.2552856042150249
Ni -0.1006106135133016 4.718872559295329 5.8547697941832455 0.7704829985631763 -0.15020076135852842 -0.39844797066953314
Ni 8.021700027501677 8.772570704700923 2.546121055384536 -0.10008687542127279 -0.19883420609551564 -0.2937793894148489
P 8.446483720703577 1.4883883233922544 3.578143100255188 0.3173934292893631 1.1508023779527987 0.54637022040653
P 1.6962598480547344 3.26902450075047 1.7499576564262072 -0.05586390104715541 -0.4458053769075742 -1.3459282819587917
P 4.676951093637959 1.1382351453944932 8.29117269141285 0.9582108103328852 -1.3960048869002089 -0.17721662782573996
P 8.515716971513184 1.5821940442593831 12.334773341672292 -0.6969702740860061 0.9244974772408401 0.9409882758070117
P 6.4594586842787 7.74445060172756 1.3877216578869158 -1.1546708597692694 0.0005005937855023637 -0.3615125310957645
P 1.7939168832134398 3.1507276756207103 6.062563569308384 -0.18348292045042594 0.24819810124062414 -0.02802836689212592
P 6.741888398994305 3.755836051592055 6.039090441546297 1.3673280877908065 0.49403670111013626 -1.1997746940864435
P 2.448233483806969 8.551111092291404 10.26845462593155 0.4380007932614908 -0.21982392097330528 0.3930149725794199
