# total energy = -340871.5991489003 ev
CRYSTAL
PRIMVEC
9.20901374199268 0.00000000000000 0.00000000000000

0.00000000000000 9.20901374199268 0.00000000000000

0.00000000000000 0.00000000000000 13.47832247278041

PRIMCOORD
 96 1
Ni 0.07541721832554109 7.984703022262088 5.895054395509438 0.48485246350770694 -0.20759472589696507 0.08389355349086197
Ni 9.178734539555126 3.2675975223857914 11.606331870285233 0.8622112176071085 2.237559347488914 -0.7089937809094435
Ni 4.707067674859526 4.24549348633608 11.269939489636064 -1.457385089779903 -0.14380539935514586 -0.20973774038189685
Ni 3.5278718787609997 6.315339049862985 10.711761825692045 -0.5068706196500109 -0.8414133070251509 1.0439005364922216
Ni 6.4012683574148035 2.5720130847787224 3.9736655012764306 -0.040593348041330087 -0.6695710561374468 0.937685950906656
Ni 7.02849428575629 4.802795373069918 10.94441098253945 0.9148846367414244 -0.6918509505815699 0.18080100274288863
Ni 3.031570499285038 8.452686684374225 3.3807809062102083 0.12462574110290148 0.7503489468174626 -0.2508316822087293
Ni 3.223219284995135 7.865188441466085 9.022213536896835 -0.6244175995292601 -0.28190886322950803 0.28836747437065824
Ni 0.6360435590328236 2.1211858153328627 9.117775472859245 -0.10808789134887836 -0.09093760482183694 0.6690966876041896
Ni 0.9514016313142805 6.517743963664445 13.265728927073647 -0.7310165650374377 -0.35381953332688093 -1.7996613983538747
Ni 4.5132823979531995 0.8604211797058572 8.434235504370921 -1.5970209311383914 0.015176707740438378 0.862619765899437
Ni 4.520318084478716 3.1954909445130295 13.418869300774453 0.2705774973770888 -0.819385123580518 1.436966674024551
Ni 6.973194158026286 1.1768198705440984 8.592497931534414 0.06501188609501062 0.423541166192735 0.4467330309281661
Ni 1.0963515081619533 4.174123629565465 6.856018666729602 0.4098004195678749 0.39014099346573455 0.42975680808514377
Ni 7.196742967459402 3.5628937581543734 13.237262944588014 0.22967947361114635 -2.067106263639253 0.2070511946886692
Ni 9.018212220410794 4.94508384493608 1.3565798194682772 0.06889656586139747 -0.5253421960916371 -1.6659812603581887
Ni 1.5782868261460234 2.982154931358443 0.4421376440460203 -0.27448685973382403 -1.1079852827872725 -2.940084489954878
Ni 5.576711681862902 1.8287535828488828 11.842795400639009 -0.30608983135108575 -0.12379090390643195 -0.13969394828993362
Ni 9.198137931582956 8.739298820151234 13.318051780649595 2.5501142177390532 0.35214086007287737 -0.9323501405160395
Ni 7.6217021172060795 0.1604385171189626 4.850012749407979 0.04986654581313993 -0.44771390678419665 2.196033717441302
Ni 5.712130229451532 6.493809736858403 6.970974785706064 -0.17443340865364795 0.8809707576027989 -0.26345657006159146
Ni 3.234767388271309 5.980876878501445 3.882619665670192 0.029814255147955104 -0.17467766345397015 -0.636944014131045
Ni 0.20381389290931987 8.266848786357324 3.546604854585875 0.588176872029671 -1.2563410205172623 -0.8140338865709336
Ni 1.1481337926292001 1.0910563252402625 4.098650236255885 0.7075344227550975 -0.13749642641798257 1.7559991815792337
P 7.463767530933044 3.223136403871143 9.567249938181284 1.0645570364003085 -1.8860787467078552 -0.04582502875391463
P 1.5645838136460652 1.8712900174841685 6.419024256877955 -1.4153202993993688 1.0015665516107009 -0.6996689039640919
P 4.024394274567605 1.0149346173607923 0.24405175770590323 0.7678519886982325 0.943952243531342 -0.23493789379660832
P 1.3555576189390464 8.79333731299381 1.5256112673424218 -1.5986281277245113 1.8923908049688118 1.7038222424653626
P 6.2357915888585245 9.169350554516512 10.949074427116049 1.7305038655216065 0.9398161098757815 -0.8510114922365474
P 8.259757845749146 1.2484291616729106 3.3093732924831096 0.3183735338144453 1.015222966051871 -0.15620557279171163
P 5.7369761486214825 7.179264259310934 3.1291004014915598 0.51464692116132 0.828918774102566 -0.10139222449625764
P 0.5921708964985162 9.1750048889755 9.993461513801613 0.05927986870723985 0.1347052368260906 -0.12143783029322312
Ni 3.2894781391195953 5.1291075672389415 0.32605802538878287 -1.2595510428141274 0.5228939916614608 -1.9863404571440952
Ni 0.790116805829225 6.113634021108564 10.831301270825248 0.8550712641282177 -1.2600881462645201 -0.05324651802896637
Ni 0.4374926174969754 2.755650028502956 2.5949002467183355 -0.2393005416406782 0.9483352030903861 -0.7575449503452696
Ni 5.516134789238761 5.0207082660716 4.006863075040609 0.1627354034904294 0.7176493997019123 0.7520060228049114
Ni 3.7716989365307474 3.840333716209636 2.980245902802501 -0.6828384626703143 -1.6541343883219317 -0.4488048258555303
Ni 1.8467479957688542 8.207644036785933 11.510582070441778 -0.03247071893419569 -0.5225155252761194 -0.8243488953436964
Ni 0.3421074945990831 7.525071935645557 8.19056131622987 0.9077907060091206 0.8655708781079609 1.762010163660004
Ni 8.476887972579796 7.730709213282694 11.282501505329071 0.4425130793095476 1.5374327871621134 -0.3015040117526162
Ni 7.214148003497655 2.0284602556137257 1.6250815087517263 0.3615850362049128 0.7400079699027707 -0.12164917497308081
Ni 3.8589543420664336 2.2962399582170696 6.2675820253176004 0.42418445620368883 0.5368422263114367 0.5696723854675801
Ni 5.3420568018149 2.8077270014110622 9.57358481875838 0.3661060640037179 -0.7575611482951857 0.2940966635449516
Ni 7.403761597163067 7.39175304319805 0.12608060761890016 -0.10703219639085437 -1.2869615736165967 0.03487444327968188
Ni 4.864679945650373 5.691769099990909 1.8553989433108302 0.5788648506001256 0.8677501451474668 -0.9907265235724034
Ni 4.274262445374969 8.535982213985864 11.34409783577831 -1.043941417032486 0.5376528951381901 0.19409489163831734
Ni 6.2843323004763185 4.666557223255149 8.120001852671619 -0.39986721961456295 -1.1587936236883913 2.25141193710129
Ni 6.7211710779951375 4.521699436545243 5.890673667655788 1.836496050683721 2.398160221134844 -2.2859369674613537
Ni 2.050009347851563 6.888894845912969 1.622709266802809 1.049887864423908 -2.368894382291191 2.6571476996814885
Ni 5.744205224436311 0.31355955189083745 6.598986804105224 0.9085149857696547 0.09197324517520289 -1.657769671081674
Ni 5.272685301033863 8.346626472706204 1.105741018608833 -0.048214869142329864 0.09575790902861574 0.3383713170926108
Ni 5.9948285343733785 5.285402949059697 13.011083119918853 -2.2354268745269437 1.9394149962371499 1.6642660774392952
Ni 4.658996622944351 7.4950965958019 5.017777036986428 0.09105921800136575 0.04185987345857952 0.9148237015965018
Ni 7.343617528186437 6.738336679675192 4.64132820911208 0.07263443563727491 -0.07148309564165109 1.0354143533980813
Ni 8.03310559867323 1.3095770131512174 11.01723494258543 -0.14795644540904196 -0.3454022557974632 -2.3068433785967173
Ni 7.270350614577792 0.7087864797575664 13.03104457818156 -2.7495091814340453 -2.1610469169534716 1.2058378695613876
P 1.6306308604536581 5.762199637356283 8.476665114446396 1.0652360647452042 0.642610725498519 -0.525739688640372
P 1.9597518038246224 4.355974024616989 1.8529723681806294 -0.12766452792922528 1.427285442181045 2.2433235036662014
P 8.922088534607997 5.1112328714980695 5.216502028882658 -0.012076728658875975 -0.5946581088786403 -0.21415335295108923
P 8.701062994949739 2.0611522545215553 13.338673525200104 2.840439587167031 0.27042348829772783 0.8429688244377289
P 1.9409562067060648 7.400427934175846 4.904963855515841 -0.71605300174907 -0.32593874775621284 -0.10515297709027052
P 7.601598840131208 8.344655743757958 7.413333446082728 -0.3427154529939194 -0.3201275403910745 -0.24373209504947055
P 5.868195385927867 3.7241527984008536 2.0019622393722076 -0.16109298279099998 0.0404226267914207 -0.19914016737170864
P 2.947142260978846 2.1441530956923356 9.098352741902483 -0.3229768369144115 0.09388923125099313 0.4910315957352253
Ni 1.1372487383449594 1.1852369091361425 11.890778046021925 -0.9786055719391533 0.3762889180739907 0.353839587931539
Ni 2.762685715028472 0.062375413014761266 5.925259039796139 0.8505291532834901 -0.9954712373462405 -1.7327787775987125
Ni 8.071663739356914 9.020247412455477 1.720804602455229 -1.0280286024569714 -0.3332141983717035 0.8631033904040749
Ni 3.0997908733439687 5.976880166522291 6.336132082069742 -1.0590646458271697 1.4933692211839957 2.2448761928653016
Ni 8.744768974334685 2.7352244359458955 4.9987051694545634 -0.5851763946404502 0.31301818303980283 0.8778478957031011
Ni 1.7719247588319202 3.5402580022908676 4.62780937688766 1.2673504842538883 0.04481561365279379 -0.1790912191406335
Ni 2.101570615988165 4.1223045090431105 9.837410170845944 0.6748333329776507 -0.49352813690483394 1.1586295873067014
Ni 3.2267647552992234 1.6505867933080995 11.274872758316324 0.7408970573759434 0.8463691083685294 -0.23581309731271
Ni 5.5967320778137815 0.09201001934867557 3.9260604254583646 -1.0407805028060013 0.07963940620019833 -0.5326713827631987
Ni 7.836704961854276 6.719200349046891 2.3783714684873143 -0.34860713588800607 0.0721181581224887 -0.3852612967759301
Ni 6.241934001047686 7.107848357471435 11.615321709534197 -0.22569966302779193 0.41474053718196957 -1.9180465578637031
Ni 4.906562540307502 1.5656336412166267 2.250043861506862 0.46265304459253226 0.7659881960166163 -0.7772007769029841
Ni 8.071774247522237 6.014968647503356 7.122713547510032 1.2844899721476524 -0.0025844728977245813 -1.3526602013659867
Ni 7.658261901900188 6.378126105793571 9.34259328439081 -0.5444323799538688 1.8822418894602682 0.34734858089055665
Ni 0.959284547107267 5.65254791031529 3.3220154265959736 -1.4389428239143154 0.068629685353256 1.3360110228450797
Ni 8.874662113657202 0.9798022298020964 7.161774500345935 0.34453065182578724 -0.5441629283425661 -1.0643804016131282
Ni 7.742137599379769 4.452346353791761 3.244326344571683 0.4910207971019479 -0.0715280899469736 0.49030937285722015
Ni 5.90585104326142 8.22705663782754 8.90233796276078 -0.004102452204147773 -1.2520030552635406 0.6168169043638667
Ni 3.890449169183272 4.014089388151307 8.362046045374168 -0.5002037491527965 0.8625392903704886 -1.5206254857967876
Ni 2.640187413768768 1.4006725774318516 2.235838036854688 -1.1574700197809615 -0.08029606594759074 -0.949223005011978
Ni 8.21590452214377 3.24319363587713 7.466801900972516 -1.1634581190435962 -0.5582124644570967 -0.33194458763066054
Ni 1.8744947542785135 0.28026159987649085 7.948705908309745 -0.20949451402283922 0.5373950134911133 1.959503282346593
Ni 2.9035191627178913 8.381031348176528 0.17677346575634517 1.133603497576009 0.6219768512982513 -1.739165654961663
Ni 9.129954393579133 4.646435528152724 9.176136676768675 -0.8717304699514535 -0.7490297137854068 -0.33202326338739596
P 3.887299686471589 4.389402744626968 5.395547358337753 0.5274219614388014 -1.5861585345025908 -1.034030328566361
P 3.5042415494095938 1.4309518147301454 4.316149644538987 0.7456445993632578 -0.3697680862363374 -2.091166904132882
P 2.246852017331805 4.236358144669441 11.984560800522646 0.28158850377561184 0.05777448780630695 0.2781779354321661
P 8.269095785718875 5.384270920967997 12.678761123359054 0.6864902004902886 1.2571162081203897 0.29785201682232576
P 6.159273893386649 2.747039600621598 6.353748925424862 -0.6074382913624441 -4.042850433324741 0.9195020809087777
P 5.514431121690042 6.003577097461388 9.766972266269548 -0.786448006532865 -0.5287900454309216 -0.6050903599555579
P 4.524185870264994 6.930731395501215 12.887918086061704 -0.8081681718187759 -0.2922398128418709 1.2247964129417614
P 4.219570112554237 8.006021889155504 7.191426603806025 -0.44454065126253767 0.737855185225826 -0.0866384632258508
