# total energy = -340858.9693419564 ev
CRYSTAL
PRIMVEC
9.41592988330662 0.00000000000000 0.00000000000000
0.00000000000000 9.41592988330662 0.00000000000000
0.00000000000000 0.00000000000000 13.78116516099938
PRIMCOORD
 96 1
Ni 6.2701337004929245 3.1248458582282295 2.648023162877435 -2.3847583459066413 0.9435737771460008 0.458651636742623
Ni 2.7556660746714767 1.0676158074576325 7.47793575702089 -2.059643122492988 0.58921894014094 -1.8240886781583037
Ni 9.20581352496133 5.5924598022486105 4.794853320370368 -0.9511587885821103 0.2439701792022056 -0.5914195473366847
Ni 1.9370639520725945 1.2410949018324953 13.483919665175277 -1.4957022401925466 1.3143775037357042 0.49904341029610827
Ni 2.3143320195019053 4.183893169383152 13.776065842191668 -0.1826516827983822 0.12401998919810253 -1.063514454068407
Ni 2.20686801037792 2.938372780449258 9.28853341163049 -0.6574017677647646 -0.6222954109799347 -0.12606992974859577
Ni 3.7596207793789764 3.475165533989018 3.1450825749906297 1.8825164832778933 1.2976787029237846 -2.623321238050347
Ni 4.15172835249298 6.618024066312944 5.482464791139825 -2.1596767760788222 -0.07711149757202203 3.162940769996604
Ni 5.411419716081356 4.642561951688206 4.740885917558301 -1.9405095148529095 -0.25269676044192607 -0.9279517543380276
Ni 6.979953583767403 8.199909722743215 1.5036082055365145 -0.391813496072151 -1.2316232060556078 0.47321796459257215
Ni 0.11027748900887516 0.3027692292457505 7.559037986915539 2.6410240546467483 0.42262045415067856 1.0697663485153899
Ni 8.867376752864299 7.042729589097257 0.8398397527205985 0.5196492594719179 -0.5582124644570967 0.876810198467206
Ni 6.765599937249615 3.622054042035471 8.406208041143456 -1.1115776281242211 -0.05788350258034547 0.3084305636691204
Ni 6.011092050181002 0.6073566745750759 2.6469619875660992 0.6541621777815444 1.17587834708482 -0.47946883059829043
Ni 9.861962607218835 7.281668228852821 6.445547768483398 -0.6221216044062319 -0.2545404985188843 -0.2781434826498048
Ni 4.930275108859195 8.432257211496694 3.8721496172515635 -1.4931072257718607 -0.15243299312315683 -0.09999791525189229
Ni 4.159939043455577 6.012363200731404 3.4251707120452073 -0.8897359053899386 -0.3383605184593334 -3.5713787619993136
Ni 1.7278984829864463 8.084583412066742 8.223828068136779 1.3877886696380035 0.6705737863703484 0.2589561110880766
Ni 0.18681675922408064 3.239089336954359 4.844576021937093 -0.004147189399154147 0.5692918621997098 0.18115478653788156
Ni 5.9976366862067465 8.8952008260231 9.26652461684153 -0.16108424104025162 0.5183585656849524 1.1065755469239393
Ni 8.02883169051911 1.6603768489350925 12.768056638024886 -0.07882770893218037 -0.05168740107196259 -0.23448615097117032
Ni 3.5294201226661754 6.771240079321399 1.0668841896964012 0.17872509405046638 -1.0503722602594943 0.588161188300387
Ni 1.368209956872695 4.730224260015929 10.853949664892552 0.04468088784714241 -0.9070702829033281 0.7401511803488543
Ni 3.6631545764984694 7.640358666386256 11.281206904707672 -0.12279562987269821 -0.4627713153379514 -1.0800980694587012
P 8.532282635918326 5.197913503263836 8.653014632009508 0.30083192538625614 -0.865133019239594 1.2841130484242076
P 9.17934534572296 1.241979999252775 3.373532810315877 -0.07204745278555334 -1.7838745678332633 0.27836279774946254
P 6.203572491301874 2.2798414679009977 0.6646836812122056 0.718882243667749 -0.9909769490203126 -0.5181613620724819
P 7.585896927249032 7.399480345050079 3.656983375974518 2.0252065380816733 1.8121590166002532 -0.7630635661706535
P 7.194514380745258 5.6045216085824245 11.80806114412929 1.1043142616935884 0.46644722152764184 1.286852815952874
P 0.44825099734975893 3.1963033510208283 12.084152218897602 -0.2521668560803851 0.7273797396157989 1.7166487048060695
P 3.6753576217823287 7.552639862478515 9.089119079655426 0.3728816921646546 0.3425313620075714 -0.145415167044427
P 5.261442782993926 1.8078962242917456 4.253102138091039 -1.0520617321467751 0.6137380083282269 0.72922527746497
Ni 6.260105735039753 7.277242741751421 5.258534202216007 2.6707820026354714 -1.0107353625941624 0.8748340485774417
Ni 1.1651460104284763 9.146559077452592 11.993058745676795 -0.21563996479894473 -1.3322474420375896 -0.738629087277373
Ni 1.6989350822972868 9.642288960249365 3.733275948823645 -0.4383808023087289 -1.5133991432516776 0.2683159550364218
Ni 5.4498178786335005 6.302967048413308 9.124248031310536 -0.5908652174951114 0.5210777643883283 0.2840513634938076
Ni 7.856039959034466 0.970358666456875 1.3801013348734559 1.6610493702742104 0.24022819566127016 -0.7923134641747065
Ni 1.7469186615924615 2.4998823361405855 3.4349274987142926 -0.8838416513926907 0.207224744152056 -1.9605188680953012
Ni 8.432031229176623 7.960217808587411 12.262081281791872 -0.06991806514737636 -0.4648608508771284 -0.02850350675633156
Ni 0.6548562750680977 7.040008385326396 3.2433283886416997 -0.7755341878338385 0.8537358331462458 0.9369315892391349
Ni 2.1138857015985146 4.937205233341387 4.44497713491272 -0.18441931622176627 0.802875813071585 0.4397478578595846
Ni 1.2156153952444373 5.680291597316387 8.38076808146141 -0.4863295622738656 0.7435689477811518 2.2247714516956267
Ni 1.302194871621818 6.975066716095859 10.468696888820716 0.17499956556976312 1.3950211828307006 -0.015729494920114846
Ni 3.7938947645898153 0.6666817415588374 9.355385573058632 0.39449027157336575 -0.6123406137600679 2.012945718436449
Ni 3.1198365834666455 8.910831269828043 5.610326529429261 -0.10168584447727648 -0.10958144517526934 0.3771489520814408
Ni 7.20093604500729 5.1067767167650135 0.5926800644794346 -1.467246555955015 -0.019933248588817284 -0.9445685369591023
Ni 5.593561466058959 3.4812764725609506 12.78561358110844 0.8634425189110484 -0.8959150376174572 1.7244869699035656
Ni 3.1864260404477043 8.698643287210938 13.417383878995235 -1.167158964933951 -0.31324958232431854 2.4178813537128554
Ni 4.156012600644336 1.820372331545691 13.78571340407272 0.5283064209262837 -0.298726449007479 -0.3227071281927926
Ni 1.5307759883741066 5.453038126694518 1.7991309350519735 -0.538212367186086 -0.2256099315274631 0.21081426127552724
Ni 8.162180091221282 4.500324913063223 6.543062905966238 0.29047012253595783 -0.5540038256923877 1.4294299993278736
Ni 3.3419395403768855 3.222394893059079 11.652388514983057 0.09217070589798965 -0.22725338066815698 -0.45772501116329556
Ni 5.3896500859144725 8.817076854788393 13.398090638419134 2.0996415172627967 0.7825815815989232 -0.4000507963802788
Ni 5.423895823335303 1.852198174955756 10.94406482298605 -0.03852823798218526 -0.39066755539316583 -0.09135695174744267
Ni 7.983606978714809 7.331855135768693 9.699721425302528 0.46505265517296035 0.05522421058062747 0.6039341348639277
Ni 6.0013277307679145 3.1244786369581132 6.109617516953161 1.8292931051773789 -1.9104296647483936 0.463102473425125
P 5.677560977615523 5.294163139754274 6.69892762008453 -0.6102281954027555 0.5956608391115419 1.3826672892510379
P 0.3209429157444979 8.832829705683375 9.806498071536295 -0.13775945027138212 0.24062671665126945 0.2100573285048447
P 3.310801059857038 5.385902545773287 12.100387165408735 1.2659536039063617 -1.5165680278979623 -1.362940757356388
P 7.508639221574601 3.892168826030895 4.636727841458361 0.3020436863061701 0.028204744568990133 -1.8074233016874808
P 4.368501893021535 2.9394650283296033 9.018505254191094 0.40878534803979916 -0.7856494218909695 0.743399512082823
P 3.7037937303913213 0.3666600806879559 11.80756492461813 0.5642257605307123 2.1752476339338864 -1.768510426672367
P 5.119299903668973 4.982241626545629 1.3946404723910537 -0.5109105940473395 0.507492826615042 1.0744686390870657
P 1.2621771691091623 1.4634897525728274 5.664803334054488 0.9576917046046216 -0.6324764652779946 1.0930353463456595
Ni 9.126493730616245 3.002853069109649 8.78247519521345 -0.4107566128335571 -0.7486234794859237 -0.25487345637827075
Ni 7.164213917995676 6.430148014963528 7.659034221954163 0.2339917278332551 1.126873120830711 -1.4043568584093298
Ni 3.866246770732697 3.9143245093279013 7.084566449286488 -0.0570617780099985 1.067212985965917 0.8475111923927727
Ni 3.3364029735351344 4.990546476808256 9.427144375611325 0.756390267915536 0.7684081183120185 0.6651490158103512
Ni 7.724122779692746 3.2766494817362375 10.606342719976247 -0.3933106494429678 0.6808479146028468 1.6712594780379926
Ni 1.6125627563799714 8.138320124593736 1.4308569639615072 0.4126222052873861 0.6025079439403623 0.06644219078363396
Ni 6.482086284859953 5.66970809199304 3.1781984008111026 1.6767235864763574 -0.02418765298979705 -2.268000951808223
Ni 5.265256234645132 8.301517023405347 6.995512466504324 -1.4143401948742869 0.38786299606483526 1.134405167541698
Ni 2.117426091279634 6.749282130554454 12.905427524024331 -2.881846175138276 0.11175274179497528 0.9901775930474689
Ni 6.825193358238461 0.37472859110750756 4.980086320167947 -1.5589837738600119 -0.17522659397890467 0.649794644841468
Ni 7.54803547270706 8.833215758813497 7.529835421604304 -0.7310191361405991 -2.519418074206777 -1.5577511870044913
Ni 0.27855710683609347 1.6375526346078746 10.75465585823215 -0.039495229881144886 -1.0524042030878584 -0.98622863570205
Ni 5.980735091851401 7.583241634988194 11.44506480180549 1.2289148059855093 -1.1657919093830955 -1.0396029375581322
Ni 9.361289361170499 5.287449581662151 13.242652465929977 0.0034828163422778733 -0.9755282185654103 -1.5728088526685622
Ni 8.416636183621753 1.8860201955264522 6.288442034790714 -0.37312748962687353 1.0172770203674222 -0.9091747308408407
Ni 3.21531411369684 2.867781553216933 5.158703687545435 0.3931712956516261 -1.9645603851545264 1.9051663594669253
Ni 5.277082642728873 6.285302763727721 13.323658653338596 0.10794210979963346 -0.4663968279056806 -0.4310017362358383
Ni 8.436871017198152 2.964605561437554 2.5424734123230546 -0.023841582504287973 0.06864022687621726 3.1292202378157077
Ni 5.0529270130779835 1.5575831410925844 7.287094629313537 0.1886230698904687 -1.3795302862839531 1.2238564176259956
Ni 8.97074483243699 9.221425136906268 5.1539081543949194 1.3287201456106215 -0.6535991061892228 -0.5429779068955294
Ni 1.085204764703195 3.8155702354566707 7.214095748779451 1.1520146530933448 -0.96069166777321 -2.515606413770171
Ni 5.31040561900941 4.89247014989724 11.21970110833522 -1.0238659864388495 1.00603152936059 -2.7272074326130515
Ni 0.13309417059209092 3.101371944730806 0.7724056868182726 2.061683292851469 -0.23235624911236114 -3.110590795639978
Ni 3.6978899422794544 0.8166417259722621 2.548620131428999 -1.2499328029980732 1.0480734369229885 -0.12197339108171897
P 4.66701512190594 8.518846103804076 1.6446993254801345 0.021956192556117023 -0.3581613552353444 -0.40896275415792793
P 2.234343694126609 5.91508722787064 6.624881688134113 0.6368031176778065 -0.3223353466756707 -2.0850595056835637
P -0.03149440267396008 9.040545121549064 14.153670058322085 -0.05100117363821539 1.20397819064483 -1.1488144009884926
P 8.726005979799591 4.904560204021062 1.9315405675328479 2.4812811581257397 2.3661204190904797 0.03607591978695077
P 2.6545295705094922 7.511906549285634 3.9064640909614154 -0.27163293522479676 0.434516177147 -0.13998191184399764
P 6.943655173605925 0.05808498900236933 11.62495049495438 -0.5114641525579643 0.7179746442518151 -0.48934263806857664
P 7.4273514978588935 1.3569955842391486 7.9902508589249095 -1.4476902310896422 2.267428881354837 2.092789013117338
P 2.613504363486518 2.6025348050330495 1.3733990758973362 -0.34436378723061983 -0.3865933853237923 0.5289389123039601
