# total energy = -340864.16918706836 ev
CRYSTAL
PRIMVEC
9.35120995687634 0.00000000000000 0.00000000000000

0.00000000000000 9.35120995687634 0.00000000000000

0.00000000000000 0.00000000000000 13.68644100668009

PRIMCOORD
 96 1
Ni 8.546501013835854 7.260148560339411 2.0164781014652275 -0.8234407817071303 1.135788678152786 -0.22150208000667662
Ni 7.932809152352785 5.655022707691759 12.593045460079594 -0.05052449111211299 -0.19901341198585726 -0.6435617765578787
Ni 5.339568988105769 4.471589671927084 12.880077111861304 1.0756264068405927 0.6905749120826236 0.13292860454164204
Ni 4.5399283149203375 7.5486053365316526 2.030232796317277 -0.17773959020874552 -0.41353314713742967 0.47600863996383175
Ni 0.7296178772634567 5.432295586890812 0.23674926026022242 -1.0252338133206536 -1.2428946652043693 0.9431035223778016
Ni 9.479695668853477 9.186638097320145 3.3321148043319044 -0.8667540997827846 1.3982723427781465 0.9136769895865684
Ni 5.4176048359134725 5.439168726272318 3.2785594892954153 -0.812187577390814 0.5836051934985885 -0.31048950308067813
Ni 2.9178300160448867 8.031829115496677 12.000778155925731 0.4673201110508983 -0.6688133520358159 -0.18914757493537102
Ni 4.595072400543109 1.1079687707187595 3.1473479855789623 -0.21929581638397716 -0.11168486467151732 0.31006861349317566
Ni 8.55357052862826 3.382491643074825 6.166056985324263 1.9828828376127978 -0.8178067233498045 -1.815531532616912
Ni 7.331460888126296 2.9261899978232075 0.14345036742055456 -0.39920156100610604 0.05480820608913141 0.2853510561418376
Ni 6.494705262280736 6.843477343249455 6.337547891179351 0.6416157085751014 0.30064577751737903 -0.25854010659658055
Ni 2.9443406965164076 8.69384803048127 3.691835282018809 -0.28690888754726074 0.3311506309744555 0.7807087900562426
Ni 8.8592615849295 2.168227667798824 12.096925427344456 -0.17126066735262122 0.8503499473931485 0.1305521338896655
Ni 7.524974828753335 5.562015572605429 4.421103424026662 1.025792514037601 -0.5808358582835674 0.5555565148914884
Ni 6.533335110967809 8.64889676380522 1.331301849930484 -0.8332102023890683 0.46441322181674854 0.6232634313201589
Ni 3.7433548386289663 2.2693890580425324 9.723258220750928 -0.09122453993463643 -0.6836807560659516 -0.3968502871651101
Ni 3.7884463734556593 4.576332575617209 10.24105716372844 -0.044106503400911136 0.3533641909570172 0.6003171069366307
Ni 4.4029704926325435 5.75295793047068 5.497994383288965 -0.22281231417766786 -0.7098329889812872 -0.26493212616585343
Ni 4.242008114164716 3.329058828889897 4.229643944246041 -0.46640068456042255 0.42689774136979375 0.8039137674177962
Ni 6.412293048172971 1.7665744940377075 8.393415159587132 0.2324053571827417 -0.31981309447444917 0.6529946398360045
Ni 1.5444271482594178 7.110987408945679 2.3118725403882703 1.1706111851486098 0.06019800964613503 -1.5708954376959332
Ni 4.398743745693169 2.874842503477838 7.343774561510741 0.5142859382774756 -0.10710213039684136 0.050049094137591225
Ni 6.074536692634748 7.716001347508971 8.529307879051043 0.31266748456860344 -0.4352319722671021 -0.8261928905309708
P 1.65934416847618 3.6272034586865463 9.558200012284328 1.6927431018330652 1.6852815033486976 1.515875115595996
P 6.24269950283558 1.7069137739642317 12.173610025300967 0.23981784759672892 3.082639818953007 0.1688903673482317
P 2.5775955898453042 3.298012811547587 5.897843708632815 0.4567737029936198 0.5586492948841992 0.08118798163424082
P 0.5026481124660621 2.5753606506450595 14.105930976864432 0.7720030347521285 0.10669615320767432 -2.660086213484522
P 1.6599519971289662 6.0779405330903495 12.042959594187085 0.41903453657163314 1.760847767920787 0.597952463359196
P 4.646335733998092 5.563109664180444 1.01435100161663 -0.4335625549844791 -0.5414038775401903 -0.6365645193044392
P 4.941029767288925 9.203189739096015 5.099978830234523 -1.341814516900734 -1.056388127436271 -2.975358225555508
P 3.452214265154422 3.1395939622114186 2.235693842895079 -0.6061162301169108 -1.7483624909695825 -0.4452795863110912
Ni 1.7218383051926434 1.8510346231448598 3.2990068451751426 0.7666484553084346 0.2713609125103326 -0.45109645010318433
Ni 7.894702971428112 5.9316782568099065 8.428521472330054 -1.2661430942093486 1.8820071477416427 0.8595814932937454
Ni 2.880687009754629 1.0003643967555176 7.966466962660067 2.369488050011132 -2.323654279506469 -0.9882238117552076
Ni 2.022517112910909 4.570983683472691 2.5157046061766053 -0.26637348659807025 1.625278640432504 -0.6016322262036283
Ni 0.6248918057514086 6.038076324677619 10.01468400613178 -0.1149869324615568 1.4807273640502692 -0.8632422299747842
Ni 8.832591933887251 3.116187883474129 9.764495186797953 -0.2499968450122598 0.021444800137337263 -0.5364236507167793
Ni 5.978069609832557 9.550297304677104 6.747292666990559 -0.9219199463216509 -2.3931002901134337 3.062715312114938
Ni 1.0915667483035751 0.8410113615360676 5.569231901395508 -0.2554964346742503 1.063416237927646 0.052729983403864034
Ni 1.3897207293102674 1.4907605538234185 10.208414894831813 -0.06020238052150922 0.5540411066882264 0.2169594549413167
Ni 8.41718313015308 0.9160912918492224 10.09952566460868 -0.7012740436676825 -1.6726895256163 -0.6125529868811902
Ni 0.713390722476074 0.22039679925826525 8.253745486386908 0.40171224324310173 -0.5195885814373116 -0.013612705687428167
Ni 3.0114449797840033 4.610277468072807 7.89847244419639 -1.3370368930064327 1.473930909953726 -0.1465719063566895
Ni 5.768826933913421 1.9972407921650464 5.594414710040941 0.27454676643748205 1.0564616609866837 -1.0847039436618287
Ni 3.2140202429425773 7.457720926125052 6.574788089966823 0.33083284262372054 0.9230219211365782 -2.2695515841247946
Ni 8.796842257893381 2.396023144443004 2.125942431105995 -1.1478947173877005 0.35762990821190666 2.220983959628736
Ni 2.9021012807527886 4.352932167693176 13.319740149083652 -0.21797761179318587 1.8134134578326448 0.0185358540206584
Ni 4.080896116336204 2.771464876453971 12.018160185153409 0.48317841823939367 -1.6761877685775453 -0.05761559363093949
Ni 7.5637823504312225 0.08297609207334973 12.327774074067632 1.6430963853402154 1.9181679139329157 -0.7129185698851463
Ni 3.284696688446547 1.2181727810739178 5.607772913587174 1.0398268806434803 0.11487251837087957 -0.4984307164127738
Ni 0.34502318086253353 4.3206985466754215 4.045369934262357 -0.7119382082497482 -0.11022164986242954 0.2272099290247313
Ni 1.581149350097747 2.664000770641372 7.7841501609383545 -2.0770332929449777 -0.6107760974864256 -2.1307739770015433
Ni 8.033951840176407 0.7704499359156247 5.905206851420566 0.7155493226397741 0.9639235444469464 -2.5261952450296103
Ni 7.172527722237771 3.19528976922672 3.8744120473797126 -0.21788993717538604 -0.27900377376757113 0.024099721261681077
Ni 0.2145588388285049 4.560426167334296 8.06082067199257 1.1761105177002842 0.1921789055625271 -0.44647514928108917
P 1.5191134226733838 9.411151299239279 1.7415581369310364 0.2689996113670077 -0.43321288495454424 -0.5793577310761442
P 8.734759574418803 5.213570783988212 2.1985901116870012 0.45758025805531516 -1.3005357127566053 0.539170360223981
P 8.222313264069827 7.939308243332576 5.083883527508744 -0.09970455238118958 -0.3349712902721263 0.46070311995501306
P 7.668833844052762 7.809569555197873 13.392552410961413 1.7269140912878194 -3.860266627649816 2.3698552035425635
P 8.383415910688298 7.973832910810831 9.743350230649028 -0.31589524747728176 -0.4953204529185664 -0.5264930218666288
P 1.7678649610236228 7.0440140426186835 8.074479984502183 -1.5466442784580525 -0.3176358843174723 0.3873117515470556
P 6.569393376893094 1.5389192855441707 2.438814281599152 1.2966734015877217 0.1419655179329297 -1.1741963313967068
P 9.124022394873124 2.1809079086169487 4.385245273996294 0.06204560437783508 -0.3037208168982769 -0.05134313035866641
Ni 9.20128209224727 6.032661974062801 6.294900762657863 -0.7577565521354434 -0.6001985790808954 -0.27195046646521553
Ni 6.5872728904950515 6.527228770809819 10.448530590707467 -0.06678234773187208 -0.32452721212066693 0.9160848276971126
Ni 5.287464045746927 1.4210659853739491 0.6021075824819692 -0.44309260596210137 -0.16064921038536203 -0.41123175269776274
Ni 0.7654236605175851 7.7772798269198615 13.444752735662691 -1.439749636086327 -0.7302480623025295 0.49440282620030335
Ni 6.29398153871065 8.960609999374066 10.47701157113502 1.2557298692958245 -0.08565887292140087 -1.7147494309008275
Ni 2.6697891696579052 8.703582640135892 9.542432937031053 -1.3615150806534553 1.5145731089551207 1.9495600550909524
Ni 4.93301578028219 0.06775045188155772 12.083101533538091 -1.7048193162713092 0.7432113073314167 1.0010333048150504
Ni 2.7609821699959203 6.726774241914504 0.3750770348192958 1.7695496665701589 -0.212301387344015 -0.31816373179648433
Ni 5.260850501964934 5.229598758001682 7.747715976369346 -0.19642842486750042 1.0937814804830648 0.596201027885728
Ni 6.404269709956194 7.5127621484373535 3.971682399124585 -1.0647611819913145 1.784034233339579 -0.7142174912022281
Ni 5.999895334072603 3.062755069289201 10.381261726143117 -0.3872197060538815 -0.5305911031954024 0.41988865704181233
Ni 0.8471139612100408 4.24760013777035 11.470866590579698 -0.18147103222671973 -1.7013773804692955 0.9526736825647399
Ni 5.4664929620175675 3.5284266270037685 1.993471319396768 1.195221270387806 -0.36838560406651394 -1.1521478362370996
Ni 5.680102653026722 7.25684758319428 12.799313516084096 -0.8178368052567916 -0.6263693239389923 -0.010383657227169213
Ni 0.8945591956045226 8.082447215458702 6.254539069870851 0.013956205069775964 0.6787732914620052 3.089831708715756
Ni 0.8066157407564032 7.22827963651333 4.327694186908489 -0.3719630370051272 -2.3274515417653725 -0.07499188012585793
Ni 0.7043668047847098 8.54292885159948 11.073576691424583 -0.7090241199267467 -0.5240538162975169 -0.647121468884679
Ni 1.0063678736030366 0.5831788631132028 12.949303184687626 1.577949259218921 1.6651201979094743 0.2129840152333364
Ni 7.060051367842196 3.9393749035474923 7.531908751000118 -0.7554428164006022 -0.7569168298429675 2.451806288595074
Ni 2.8521284142837207 2.2391472447639087 0.3556368042611847 -0.9858625106118828 -1.693695952664638 0.7395896514184295
Ni 8.682467607859104 0.2667395259886932 1.015964085349024 0.20846838675117 0.13820682222144584 -0.5934005823224555
Ni 7.944198926184994 8.729831486726214 7.630190903671628 0.7744985474804725 -1.6414889316437795 1.0809146518227255
Ni 3.8826972194776905 7.209025495035071 8.6649266080607 1.2939770857024813 -2.7565460336761687 -0.24256558554519514
Ni 6.806137961548296 5.683889893094083 1.004212419688156 0.4854466454482801 0.17626146300132225 0.5684765653872661
P 3.3052693505408497 6.498099751526296 3.677382051776557 -0.14130988662680183 -0.37026919424247196 0.2484251296497657
P 8.60661994320143 1.6805246592232683 7.779017281745825 -0.46034727927749103 0.9246861962128785 0.5809335602036962
P 4.362479753146941 6.679737655398896 10.669538959102535 0.2725947849174338 -0.07078786934683938 1.0956043926244163
P 7.419502530679865 4.56242732628347 10.327555856624937 0.60355078338258 1.7603733993875295 0.32125779734077575
P 5.947322831211618 4.156070493870792 5.741215616019854 -0.1329892825762484 0.9858853934300182 -1.1008322166822588
P 4.827066570496536 0.08564960302460468 8.9557090301906 -0.8221403177281518 0.9353778715987698 -0.8474127191416955
P 4.137517693145749 8.832797660508195 0.30517860999089214 0.06966455437567358 -0.5987765019223882 0.7374319816454783
P 2.8696619331140916 0.887290500038204 11.6157233799907 -0.35667448627717285 0.2492661374938223 0.06615628411209896
