# total energy = -340893.20756433555 ev
CRYSTAL
PRIMVEC
9.07842888826431 0.00000000000000 0.00000000000000

0.00000000000000 9.07842888826431 0.00000000000000

0.00000000000000 0.00000000000000 13.28719833963323

PRIMCOORD
 96 1
Ni 6.34866322147493 2.1336395523902785 11.500229398977904 0.5947175013616661 -0.09118340228405586 -0.582966274363009
Ni 4.635681742122423 0.4099201075511278 6.107407609688209 0.3855389759173489 -0.44680450759604984 0.12129102030271367
Ni 2.9292367314462617 1.515071733318681 4.723412953716326 -0.3534325823011074 0.3158440825243721 0.7483100620105628
Ni 3.306218483925833 4.677297259361829 4.981157715582004 0.34151243382475377 -0.6939114326550243 -0.7374936881213493
Ni 5.018546316410706 4.5280024991083305 2.4477413840462674 1.0398914153328287 1.293732830902159 0.615029987666773
Ni 7.446172625948388 6.157462434263076 2.505275018198321 -0.837792422443112 0.01964271393159198 -0.12544772278356459
Ni 5.094396588342478 4.639267721465696 11.567409771484801 -0.15636241008455007 -0.544432637064185 -0.3645549174665141
Ni 5.320376835969726 8.225083653022255 12.698734507243891 0.7763358577995276 -0.6292816124897808 -0.33345922450297405
Ni 1.7571934272050187 6.516650466457038 0.327901043306054 0.8749896003186997 -0.39430463792512094 -0.3992732947843059
Ni 2.6680594156826305 1.4962975427316187 0.3576900914556318 0.3884877741330277 -0.27597450002294405 0.15600759784829263
Ni 0.759488636676399 -0.11010318348157114 4.639929538919176 -0.4945524644042902 2.0071003153992657 -0.4491912626606715
Ni 8.811586461864884 2.4443033830910834 1.280982633161276 -0.2739914081546443 0.08782682710699713 1.3868545878595082
Ni 7.129380855863508 0.8165964925216187 4.897435538109593 -0.9740853154712965 -0.6737544980911752 -0.44756838234526786
Ni 0.7135726677536796 7.508323548945984 2.4352639916174192 0.06264595696599534 -0.697551857621089 0.698051680075643
Ni 7.395560385850288 4.04342320947312 3.881894358680393 1.9068031237393999 -1.365463780888558 -1.0657767677400225
Ni 7.444184450059333 3.991258558064388 12.57568185304018 1.3783491214916583 -0.21539596710893874 0.8045562860978015
Ni 7.8547291535062005 -0.352103226423099 7.076894828078189 0.3240047639582936 -0.589404830899501 -0.7758131525268381
Ni 6.8335239424003715 0.9113834589144892 0.4957094432424331 0.9253888787068579 -0.2944345065003446 -0.32359570144533306
Ni 2.117252988555826 6.506591567438438 9.214672328277743 -1.412806788948896 0.054875568991957106 0.506004929215606
Ni 0.2711690344097244 4.9929723827145 1.5160031801050602 -0.9756757998868683 -1.0008867519348568 -0.381944059477239
Ni 6.388853425405745 2.0900449376905335 6.887086671831545 0.24533183543642267 -0.9772904526721556 1.3023051459522024
Ni 3.505480915838515 4.205836299222899 0.5323527050734577 -0.5720503987814535 0.8703654712831268 -0.7643771427757545
Ni 6.087059219561594 5.685338748827793 4.5899300927594835 -1.4641033823403429 0.49624862115979046 1.3713665195262381
Ni 5.385705209018324 3.05707916464114 9.078331577960743 0.6993503442824085 -0.4954808897558305 0.4529643565498586
P 0.21337121798200154 5.458977207194425 12.32718437866579 0.6116644136286498 0.1360218987549851 0.7464352135853531
P 4.018466608929681 6.176663310999845 12.711941805341597 -1.2876346884242211 0.1489236944183177 -0.5540956140752457
P 2.3609089368953615 8.392698682426959 1.3117403496549735 0.27495634317107487 1.2908393114044479 0.29262624964701217
P 6.1590783945747285 7.824180240872998 5.864836533580372 1.4238278226497478 -0.6296454235871027 -0.6529321620291851
P 4.639875976189745 1.2733676471533322 12.444231652273105 -0.7745407135723177 -0.8360193897030892 1.6281659892826283
P 4.01977390266495 6.175737311270695 8.063880717820473 0.9482236172131864 -0.0434668129343832 2.2464821038998406
P 4.86427657722021 0.969567108562691 3.7107823185338433 -0.2652787108719948 -0.35086970666993766 0.9622320156771363
P 9.151873205469743 5.635507253599369 3.7728869415449817 0.35718870690943005 -0.14424788620920317 -0.37617707508647474
Ni 1.9076956184778984 1.058808062852256 2.6579179029627045 -1.5760474142105179 0.08856499082460231 -0.5099482301340701
Ni 1.628170798276911 6.793097699322912 4.794233776138798 1.0107893557605494 -1.2866250162127844 -0.4650014902200508
Ni 6.026288217729005 5.580110681567331 9.236648480673344 -1.0089682433914107 0.5749919979082807 -0.24597718232990537
Ni 8.599114916168753 1.979260872055176 10.199080852107228 0.3072419426776579 1.3596795701066131 0.21522241764555192
Ni 2.3464923920925305 5.315374621746578 7.079976954627661 0.21851625790547527 -0.44933961531307776 -0.07332092018133823
Ni 0.41114841895655796 8.862071603960946 9.20736419316044 -0.26036199029666773 0.5011494008955175 -0.5226394524484934
Ni 1.3701527757068472 0.9497125849582883 11.533022499189988 -0.008194619995650403 1.3452569669233798 -0.2554910353576116
Ni 4.092973273411315 7.046567429105684 1.457512679566219 0.14771424749124884 -0.30552521709686736 -0.004035860632270469
Ni 5.755542238097499 7.849699703996901 8.021667839971478 -0.9507785224245562 -0.262995828375089 0.3688165209563455
Ni 5.1208148159093785 2.846005696967449 4.899401925769727 0.11577677535270384 0.3572059333006106 -0.3315221553812613
Ni 0.833803746312101 7.399364247482774 6.948434153887673 -0.2050141096539824 0.4039442178974141 0.44718400242265566
Ni 5.107224408119809 4.700020566440851 6.854360751991971 -0.5514833732633793 -0.8789390718847508 0.4901278529740333
Ni 8.088380673399438 7.0221192205704055 9.312930885812051 0.11721453624049491 -0.349370753526908 -0.5677101195348868
Ni 4.861362401602006 0.3937813848206538 10.47827067828855 -1.0478150410552793 -0.4195487572038903 -0.17441489671088672
Ni 8.191765819630321 7.37667725411862 4.70760105441967 -1.2317360774843884 -0.3945913159276043 0.5311469756988724
Ni 7.259719856955603 5.923847228084706 6.957376406174063 0.40257022036802276 1.3647569846295204 -0.48786939595715983
Ni 2.381634989656611 5.178608093122743 2.5114401791401364 0.2522702144274687 1.0521542918605815 1.1045346052345106
Ni 2.3700418361848126 5.251789307011673 11.364660315101862 -0.4090900237644116 -0.1610852694815161 0.6658750953430983
Ni 1.0604603368787768 3.5639913889205337 4.044862140424788 0.1523885130384666 -0.45273912791293 -1.5017098798392075
Ni 3.8272930570039776 2.6375831304791646 2.545733943619163 -0.058980335188950045 -0.9538941852354024 0.37362062721320816
Ni 1.309717675736793 3.374279464018292 8.192767170317822 -1.2802070285015823 -0.2512983374325027 -0.16043143794760112
Ni 3.601603319095678 2.692798133936859 7.215054895510106 0.7410850050170333 -0.3430615234794285 -0.12005406257181905
Ni 4.06000949873935 6.776275370910037 6.02413663012304 0.3296542489345871 1.5747562062029201 -1.585555096590637
Ni 0.6485057534521362 7.544228734522305 11.451000711416299 -0.39054259977952743 -0.7447560261107175 -0.11944779644638784
P 0.3263141339662966 5.61252067208755 8.049782825865613 -0.733630091400885 -0.4691445658541469 0.8877864949730517
P 8.543001148268061 1.4440784207505835 7.991585558574335 0.1382605582775167 1.0901716516446194 0.11715694352968209
P 1.702813639189302 3.109879306060073 10.339141034669643 0.30503516483432624 -0.14692903258579212 0.49573440052753337
P 4.029669389966641 6.165088314385481 3.562510697196767 0.727735837403637 -0.4528859379034394 0.6995400916957114
P 6.926450738749099 4.01261102240712 10.433945250077077 0.15241062452565365 -0.36227949116877606 -0.6995408630266597
P 6.250089642464138 7.79297768137216 10.326292334506265 0.04216403496255964 -0.6358428106470663 -0.2042746603847966
P 2.5370758461516187 8.635900709330636 5.79406836604446 0.8364135398177144 -1.3150516469845932 -0.42681778006147775
P 6.911680135226299 3.9930016163780806 1.4790648693407287 1.3446956951032711 0.963507025734818 0.7378503001298197
Ni 5.4169077685191604 2.8211580375686145 0.563862115464935 -0.8886455005392373 -0.20481227805582145 -0.7350148875635535
Ni 1.4629070819099486 0.8700003494502418 6.968377646093503 -0.36231445817176955 1.1454313434488725 0.9236572407277318
Ni 6.907122764010291 0.5879344770513247 9.18789822630513 -0.5523639760961196 0.27578886637469924 0.2598976490657395
Ni 2.570502620688158 1.3421367446857284 9.161243959591584 0.4906297323111163 0.14597772441611634 0.5206807860602258
Ni 6.439629077220753 2.008093961660838 2.731077328622713 1.1328463076950104 0.6321669044573757 -0.42003958079737985
Ni 4.143467493936091 6.851145172540357 10.574271430600907 0.4127361051574311 0.48345044095385775 -0.3794390336671981
Ni 8.259055133281823 6.912424566381105 0.22663934155211338 -0.3005074521673018 0.49427092860812943 0.8731674595082962
Ni 7.6568194074723746 3.9675910943987835 8.186043686009903 1.0775177103260345 -1.0220438456284462 0.3946795047660364
Ni 2.9785325993803755 8.40027009197706 12.301660376327527 0.13463453148915525 -0.47046714132031237 0.41549978394549736
Ni 0.031792657367452355 4.65876818635013 10.353996067579514 -0.10017249315654361 -0.11834633585209295 -1.0624117079225317
Ni 8.872884012563068 2.261309495439531 5.927339699612193 -0.2592170780589471 0.8928523395317334 0.10761198015372436
Ni 3.388587067676517 2.8935766634453044 11.716119880928915 0.305510561808848 -0.20010793060161666 -0.9083887446044355
Ni 1.2400588921901161 3.390874831713238 12.808898516197866 -0.9127891876649764 0.4015561772812117 -0.2999261257425351
Ni 3.228634232109086 8.256721977101515 7.948534741754748 0.03514029534655884 0.9147116014986699 0.2076464050705069
Ni 5.696014980999159 7.7584161032459775 3.6321222729141147 0.5378621829355188 1.4800087407166898 -0.48244951049316914
Ni 3.3432947868066654 8.182623841912152 3.548094152393936 -1.0803040148219203 1.2554437055139733 0.33085778232438506
Ni 3.465844496059447 4.319997540341035 9.310352612056382 -0.2999011860418706 0.34604348892588793 0.05404998776686821
Ni 7.1766703910511325 6.231560569452438 11.509171651264296 0.11116781582578275 -0.335862434627828 -0.5760674903606465
Ni 0.3978712169577289 -0.15858743988837185 0.42903564705795466 0.2721787804259377 0.7635546468744592 -0.07862279201022589
Ni 4.729162322622896 0.36125246688424073 1.5996727026909117 -0.44571718806914207 0.17290025983857318 -0.01348646452220903
Ni 5.943946869264472 5.849894347754819 0.3176142757266536 0.7052170874758307 -0.3656916021741186 1.0018411454283263
Ni 7.546389400556985 8.85027872505737 11.751796290101565 0.8445870767674422 -0.13116251378015473 -0.5056529451928259
Ni 0.3429222114614472 4.805838731567928 5.984833388677892 -1.57302019734842 0.26853604146702786 -0.5267218500479831
Ni 7.9076473144984565 8.974898316057661 2.591960394804009 0.5649808935291818 0.5608894970686276 0.6311304927730614
P 8.702236787966838 1.8936785245386218 3.7123764906165744 -0.7001414727251362 -1.5487284146805909 -0.6181605628759548
P 1.900614444078523 3.2311126431488675 1.8447149270955558 -0.8071165906258099 -0.8418161988905243 -1.3935176017019806
P 4.74477722001639 1.0874141917399893 8.405760725665191 -0.18740950919834176 -0.2380229604798352 -1.3492622314280311
P 8.677289265852114 1.5782303619038798 12.595014366993347 -0.9283477042248656 0.34792707910184595 -0.6396742685780146
P 6.509887037062763 7.904061335155183 1.369724273871398 -0.8104230292912236 -0.40506136222099265 -0.583360167367318
P 1.9392885504135735 3.200854240234613 5.996193226531658 -0.048251121696904 -0.4301386169045947 0.31280478147741614
P 6.870073696415609 3.884151256059476 5.936242006812228 0.6672334091432056 0.9843355324443951 0.30346884878847097
P 2.2150367442682275 8.488812007255405 10.218745636551443 1.618410195447445 -0.6254360134914455 -0.14764971280190056
