# total energy = -340859.01846557925 ev
CRYSTAL
PRIMVEC
9.38879912189676 0.00000000000000 0.00000000000000

0.00000000000000 9.38879912189676 0.00000000000000

0.00000000000000 0.00000000000000 13.74145654925349

PRIMCOORD
 96 1
Ni 1.7359138408870656 7.743872098575443 6.843973544756308 -1.1537946278119033 0.5528987655536671 1.9958669085772915
Ni 4.823073035247009 5.496531593793779 4.0010170146623825 0.700756994821948 0.9277231832669893 0.5821028979214491
Ni 5.887593853386557 3.173423480375944 12.49674132752554 0.988720291775652 -3.1620563105091217 -1.4816635027112934
Ni 5.605742104779642 6.57661904082041 12.337683804424291 -0.04546378875975396 0.6587505684831751 0.6786817601894634
Ni 2.950054561285101 5.620717239324214 10.54610095710768 -1.2617585919884078 1.5037011992376232 -0.06099119497139174
Ni 0.75217049457678 9.053487516894322 13.213853107429665 -2.320698282201939 -0.6571618838398167 0.36216507707809886
Ni 5.715037114957294 8.04182563761743 9.76357929172072 2.2006915279282873 -2.4011563276486902 -0.6491343855496498
Ni 6.360066389867096 2.3026780866034224 1.9159027526739985 -2.0382721130163803 -0.3699696607241822 2.0499778314890826
Ni 0.533667790052991 0.285061779014933 10.411627065537154 0.07693306301262878 0.6083687735965135 -0.3447293981001547
Ni 5.80233416887292 6.672037405946728 1.0888293578570083 -0.40599133023442985 -0.4228186862044137 0.7309126924697218
Ni 3.800050709074236 7.616128098190844 3.1865471437404596 -0.8603695364126795 -0.159939328802531 0.5884627787012059
Ni 2.213906991231058 -0.06427665743297135 8.73703804364995 -1.0699607239143831 0.03794562600583787 -0.22340032547065397
Ni 7.091444449984687 6.860386104441177 7.5617040465203 0.5514000695209537 -0.4546563995403008 1.8176418940916952
Ni 8.391192240462598 2.495270522285422 7.41160531550835 0.0690397763074811 -0.2698421618729611 0.2062595520253093
Ni 8.706186449848406 2.444345676034793 3.134453392003435 0.1834906337599098 0.5507485519798837 -0.4953657043342049
Ni 0.4811205593200403 6.470816663903311 2.9897015820718194 -0.7856046846959631 0.14320710364951467 1.581959665929895
Ni 3.8133640261803188 4.538357702918405 6.998042798902365 0.002371842666286238 -1.573326158624613 -0.2381782551107769
Ni 1.8468143357086804 4.579903138880617 8.572855175126833 0.06129535647537186 0.6467728272960087 -0.597996429223254
Ni 4.239897168725693 0.3309870897514661 9.81396991530327 0.665198638101364 1.153698211443355 1.1831054609608784
Ni 0.06840397351183877 5.121937287800485 11.52138687319994 0.3588293278366465 -1.909970722834104 0.1271382231121101
Ni 1.7429460514036073 5.087790225519227 0.9988593128411694 -0.8702299741465269 0.23512635565833057 1.2289834544399156
Ni 4.365209470146629 4.744272844505575 12.08666862754038 0.040425455004898116 0.4741067949554286 1.1229956401531755
Ni 3.1839013801576 3.435342808520085 0.5101375817798847 2.432343551884772 0.3398530438444598 -0.6103084138213876
Ni 2.6963692099407024 1.7264593202059475 2.030135332291769 -1.8297795578954938 0.11323626831903723 0.10630200309304919
P 6.524379762697529 8.393661494622611 3.6636924855268496 -1.7812394442032615 -0.5167076603450907 -0.3442439738233039
P 4.0112048005522345 5.847644513269222 2.0016628601789996 -1.0473044199674477 -1.2027630872908062 -0.8280862508989416
P 3.427953823638218 6.36980257452084 8.017383776952927 -1.2318466349203236 1.371182171429574 -0.21105337386952683
P 4.783377192705036 3.257227901031018 10.590732491329955 0.8991361156579161 -0.32037822294929985 -0.6352666264286221
P 7.286177531858638 4.742132198313624 12.428143944752497 1.0458167796783278 0.5967502155209787 0.7530576039978772
P 9.03776127842275 8.073616111327723 8.563840989122918 -0.07430693824369139 0.246630242532872 0.08216345817363269
P 2.3121513848827155 4.973922870185961 12.657063521863874 -1.1953997049471994 0.9903670833504556 0.1378826061128077
P 3.6880047807639453 0.9682856274926165 7.660985902471127 0.4584228085612686 1.7355005474052496 -1.2142026965863153
Ni 8.253392836255278 6.241354414204676 9.654774376855437 0.485414506658764 0.47084226527154394 -0.3269743881095788
Ni 4.861783053884794 5.320247502126776 9.217522042391858 0.11994504779778052 1.4944580833728003 0.6771995192169821
Ni 2.5949420133983807 3.304716446815621 11.293910354508313 -1.0452151415385869 -1.266224083958929 0.5590822686565597
Ni 6.077360260543218 0.2604368367682236 11.773226386643735 0.23364051514142342 0.23323428084194026 0.05947604387844597
Ni 8.523339587619237 5.171097039822663 0.9497727934518733 0.006467610002214669 0.5780449258019916 -0.34634173689259706
Ni 7.884619585696239 8.674086145768225 10.635845670945418 0.2457588956715122 0.19047143595311714 -1.2166269897570918
Ni 0.36151664774430775 7.388459109117923 11.451580213104428 2.6787313393895356 1.2465960253153563 0.3510301435072019
Ni 5.3546856171797454 6.171727080171736 6.498348378347512 -1.591353448439969 -1.9519982322187996 -0.22380116045349843
Ni 7.817508449818749 0.6694880354126629 1.5546396025050533 0.9674187020843984 -1.1189489808876276 -0.07938486698723102
Ni 4.517082684186118 0.5119345979252333 4.9534928433715475 -1.9327496684018328 -1.102555884241585 0.6054857956217636
Ni 2.8135132561555087 9.533104929480453 0.42526659354847 0.4298920481114274 -0.6487060397629796 0.51302712616971
Ni 4.168129188500801 2.34969719243365 3.514349552841444 0.9813245135322131 1.6192231782670434 0.9106520867173156
Ni 2.1623812618388274 0.6126266514990034 5.960769214594666 1.3354260968758873 0.10117033829343866 0.2195408425152477
Ni 5.684701905105564 4.207928307832737 0.6847767558467569 -0.2921423680320581 1.840855098983365 1.347246743659899
Ni 2.7570677960414254 4.491751704248028 3.531059737457386 -0.542605354047459 -0.09473126753631428 -0.7509148466232616
Ni 2.391974954724687 8.86150535315301 11.385635166073607 1.6693915715913186 -0.5279899181271295 -0.806663048028159
Ni 8.441666424357026 8.094524966895598 6.3114924989079775 0.6174123718560206 0.8838851030361163 -1.2001852992613007
Ni 4.732076794490906 0.14675819629661588 2.5301592996945925 1.1613953229772964 1.0175652410318023 -0.019023335180038205
Ni 4.0451265316553915 1.3026019854005122 12.509163647598218 0.029385652250968747 0.6458174053612749 -0.5059416800778384
Ni 7.722775467025818 3.580953693568208 5.58979053512997 -1.8078904711318864 0.7835298044448054 -1.8975679782943768
Ni 0.20935801421255876 4.779424508289196 6.437679836403869 -0.11570324180229105 -4.171640847328293 3.295922339263369
Ni 7.04174953641452 4.291479230912448 2.886943053818889 -0.059611283904729605 0.7630260280644988 0.8758966855140012
Ni 6.868056753295669 0.2816527060662598 7.115861899771562 0.012265961851546617 1.4746107096295702 0.837932547565402
Ni 1.0315098005478787 9.261993967029644 2.0949809509494433 -0.9183453415965152 0.40235733302626836 0.39212434244435046
P 9.47564547906492 7.142622793810679 13.89591086706068 -0.9839408681091376 -1.3289497451229242 0.691497423896893
P 4.891507991795836 9.001041685191517 0.46146041403080373 0.8861741561806094 -1.6246595187912665 -1.6088891433308872
P 4.206632653558661 7.501415750939701 11.013846233247659 -2.3252205955523246 -0.14776824065763583 0.736419481220564
P 8.562819487782198 1.5951381873690083 5.161483848436966 0.024956927055653794 -0.8066365656655979 0.9331538673642574
P 9.340653325784764 6.419215824118381 5.544265187234565 0.377881202261775 3.19015692540008 -3.701267551273368
P 2.0735256672746756 3.6393801902897542 6.117655108466974 0.1566953679439366 0.5663235236000054 -1.1735628115777659
P 0.5901564386428765 4.410547980940193 3.1829747056876636 -0.40618750540563586 -1.6352041270763322 -0.9598385757442954
P 6.560526639184426 0.6111479156427214 9.37259402028046 0.07687058520580954 0.6391585052838605 0.05518795802605334
Ni 5.757455709234644 3.538328545710933 8.320218552640508 0.9299302182206372 -1.410365783607571 -0.7441872980914409
Ni 8.088394081091456 7.694364960987026 1.9601775125309482 -0.26608475171305784 -1.5600528385544745 -1.2868245338181
Ni 5.836255899976077 8.122550532171802 5.733911417762907 3.013555819671152 0.9651468753310863 -2.0695562678416426
Ni 3.7070546541124942 7.75073531070841 5.597706231640647 -1.175248683920621 -0.12222458786057659 -0.5605269715228862
Ni 7.80775348756683 6.875220406999436 12.065644289743728 -0.9109086828128119 -1.86243951002236 1.1899535942309636
Ni 6.312699898470631 1.548306857520531 4.304895824808494 3.2951944599584087 0.43571353988921085 -0.3122617644897525
Ni 3.383929744716905 2.521568548529525 9.184556091035807 -0.018126534397381686 0.2948355985935051 -0.8690331256249485
Ni 1.6736473253387292 2.3931861098069755 4.199897129093285 -0.42115209713526824 0.5427138546008653 0.6741424775582131
Ni 1.9809708858700465 7.271014621332316 1.4816172787220707 0.8562177190278351 0.8596205740617969 0.13332095488405427
Ni 1.4351999949133523 7.189801509225394 9.436148679063601 0.48012831855916016 -0.47274616716247614 -0.8767011836931674
Ni 0.27799858546140266 0.48263403373294617 7.223361771563682 -2.116542149672877 -1.4757131986651295 0.16206537400659832
Ni 1.2095214312469826 8.342079432435856 4.498252508736217 -0.8436038869185666 -2.294121560154675 0.6749063523074312
Ni 5.17246780448944 2.3335390692040527 6.4115160699867175 -0.1170553849548113 -0.34662712934349976 0.5763166302569751
Ni 7.039017395880055 4.226227077254285 10.160226947890656 -0.3409534759974902 -0.49166254445100493 2.3624586539681767
Ni 1.1068643020241975 3.106199678909405 13.4332083149106 -1.3253707695224142 0.48843580998359104 -0.8898675458717966
Ni 1.5729712327234078 2.2044994145453773 7.60790257131028 0.13641270643550055 1.8060634452254767 1.1671918750544157
Ni 6.9128507137421575 8.302862418647345 13.670605977597994 0.2679117776194676 1.5242502270335685 -0.3574391323573392
Ni 2.9599597443224193 7.448829087250584 13.195659492557896 1.2894295755411147 -1.7575279595189341 -1.5424418103409308
Ni 7.128811870352958 6.32041749132056 4.685135615693105 0.7916015257093464 0.2125369003935888 0.1020249729842501
Ni 8.398853500518001 1.9510300055799914 9.647134711037932 -0.4648310260804575 0.3045119453410046 0.5199377372466143
Ni 2.2253613261178145 5.990344870600217 5.590766970235071 -0.11440612025742232 -2.23395208975363 -1.0101391237710604
Ni 7.893895719194694 2.8598000356569107 0.45810673499674676 1.1765470910170706 0.9313620655711573 -1.492207853886043
Ni 4.688268657948606 8.522644816486762 7.6087541353875165 -0.38591512830984503 -0.95643263538654 1.0975067518534516
Ni 8.466274466765379 9.017378195603776 3.6605866707887027 0.9439787258939033 2.4054816944969217 2.1797113261321943
P 0.9593944347567488 3.119297053636475 9.828040908495714 -0.41247719506908964 -1.0032969040382462 -0.1616416562056184
P 7.854791370995233 4.487320191078725 8.243362782190097 -0.2652583991570206 0.584542103490561 -1.1368855107613904
P 2.549162229047704 0.30982379772832 3.849572868741192 1.692818435155691 1.3102416271904596 -1.5126494095698466
P 1.7931010161290617 1.256775257054398 12.516501932965012 1.1660963279973917 2.2548340754089615 -1.7291874607030284
P 4.669115507810094 1.9061609347408028 0.8070386364441622 -0.5009100311912019 0.8665797789884494 -0.010859568422323234
P 7.944163349509198 0.8838596683379496 13.089520996633466 -0.8524762497075318 -0.5975937944681967 -0.9110845462690439
P 5.534781561276275 3.6679409171139463 4.749005738125587 0.6659411726943434 -0.19164180211213447 -0.18288025386942053
P 0.34055052050199924 1.750278703490949 1.1373112385850692 0.5872211929846209 -0.1916052924472442 1.1719067640315817
