# total energy = -381164.19447188574 ev
CRYSTAL
PRIMVEC
9.32036613838153 0.00000000000000 0.00000000000000

0.00000000000000 9.32036613838153 0.00000000000000

0.00000000000000 0.00000000000000 13.64129796057428

PRIMCOORD
 96 1
Ni 1.4994418237996232 6.85620095485001 13.116544394037302 2.4688910119915026 -0.4903186288286008 -0.9836945564262866
Ni 8.719425979738178 6.711148100489603 12.159566505821076 -0.7801588310900436 -0.1439002730617973 -1.2712719307954816
Ni 2.4665975515687357 6.784583263344171 8.140484928167483 0.9684111479046549 0.5254550675204176 0.09668736282142058
Ni 9.034752598559825 5.969191053376928 4.715400521144781 0.3387911782388488 -0.255365822633657 -0.03843439271679833
Ni 6.111047022236749 3.1768653546522776 9.408921483360624 -1.1238983544731032 0.24150371993958408 0.025295284231679017
Ni 4.665980213044761 0.06068117416943166 7.2539512973914295 0.3582791117601314 1.0494944856402313 1.133895317784815
Ni 7.47438354293125 1.570677380303934 8.406162889924781 0.5335491573824618 -0.6130556375492215 -0.5586922323069926
Ni 4.309485538082915 2.938329230405931 12.70313117661619 0.09606772695955068 0.03717943726377468 0.4968389464456218
Ni 7.118084595653113 8.327103818291631 4.078570677025574 0.26553967784286525 -1.7195383676490386 -0.7377536266509551
Ni 7.796402184462578 0.9765786176848339 4.080766555229475 1.0019761283442936 2.3780541944135885 0.03210433673371245
Ni 1.5652902088189817 2.971341966391574 0.34921453716444695 -0.3368546233377682 0.8254974071258429 -0.9742989741439996
Ni 6.970179709330084 5.050240257995661 6.08085369693311 0.25161201201817956 -1.1465546584200383 -1.4161875324956708
Ni 2.3332976785967805 8.83245405689738 3.9660980936734718 1.2385027067842604 0.5091236773502458 0.14593658676553578
Ni 5.224121004056686 0.3277534626640118 5.183365840125456 1.1520727600247902 1.1191978636736402 -3.1528949557248285
Ni 6.314221678292941 3.279333457257066 4.048437002063637 1.117545672782198 0.468712877633367 -1.0784697898266586
Ni 4.9412478992672275 0.4430249518931581 0.5090727927425822 -0.9246715409248591 2.175637156062821 0.4716310797214265
Ni 2.623627076098977 4.867868658608005 13.271727554084551 0.09823593825546308 0.14300655760293435 -0.2312067088889502
Ni 8.191362009456254 2.203353137345557 1.921962902769344 -0.38408578841059016 0.037718340486380196 0.0752667310537994
Ni 7.580878043600915 4.885465509410064 1.969639370411173 0.6438186297636912 -1.0066015429314472 -0.14682387446649553
Ni 3.2718398830807653 1.6288737449268462 3.42912198952665 1.9341930857165788 -2.940273466037233 -0.4402921603988288
Ni 5.105687114680751 6.066477032546364 12.4843793930465 0.5819491459524042 0.7114406997880393 -0.20315905872311463
Ni 4.455908486229287 5.583812564519119 3.7104740106027103 -0.2743786162907339 0.2767473736332266 0.3529443298107792
Ni 2.524132170213392 3.8745413434171856 4.258690476013983 -0.7267976418600838 2.170191559567217 -0.41746873474641005
Ni 7.48945457457687 8.4691182333716 8.867743758270176 0.5971073417500813 0.1543230110570181 0.9982853097562677
P 7.112958394413107 7.331847187361392 13.68303996103385 0.6495925561329909 -0.3833129148003076 -0.7482668674774533
Ni 2.662632807352482 3.776276725829203 7.9072875095034565 1.1475625308592623 -0.49108378912939943 0.1724829697954965
P 1.0425295267289925 6.702172588136645 6.376747352872186 0.2898610281970492 0.24020377018123792 0.07260692483344915
Ni 0.5094484034879863 -0.02960707428910033 2.6693704998550287 -1.2537650322599696 1.9698733127270072 0.060311395295547736
P 3.3627600523467014 2.1831652248258218 1.078531304055854 0.48255209750930445 -1.4396431924154496 -0.613380367878492
P 3.716905995104035 4.826579437711224 11.50763487284881 -0.33226340442266 -1.072226122909792 0.3184342118490516
P 4.324845501071153 8.301519413921053 8.92179069599845 -2.007009812567989 -2.956922387447823 1.4124959425766965
Ni 8.690234593767814 7.302935412367754 2.2300653059889375 -0.9956872100117884 -1.3221674320937682 0.6391525917465896
Ni 8.562340533012593 3.3703468301819117 9.469529958676107 -0.8087566973323942 1.149759281400265 1.4509498756775205
Ni 3.9289909209519474 5.413333752008278 9.599763431269949 0.18268742113232408 0.027005582054566393 -1.7878836889926562
Ni 7.117301684918276 -0.21930448126701982 6.799136082646256 0.28412104038947844 0.8721637008341302 -2.3496823281391146
Ni 1.1797159922774618 8.089331964048341 9.685116545989239 -1.101010394131336 2.2865069810322103 -0.22044509949707197
Ni 3.341509618115401 0.13499151938115742 10.613093183699275 0.26436854035289953 2.4210836627002372 -0.45576480211313125
Ni 5.892139588556683 6.886082047896302 1.9187716094882923 -0.6256507006054127 -2.4330902002428094 -0.0491630919882121
Ni 2.4715000640273606 9.454113141455935 13.6579402156896 -0.48562996510367973 -1.0229918113640124 1.6522459130499672
Ni 7.451585927962056 5.202367270067277 8.589857049232359 -2.478701056103389 0.6515733340084456 -0.9220706129669023
Ni 2.470745114390196 5.297528205813583 1.9639921607178639 -0.5569827058150536 -0.4105226424458801 0.5870584421545115
Ni 1.6915532055432914 9.037585989790665 6.923763355156709 0.36796368603774693 -1.0445916490219753 0.06871556019884295
Ni 0.05537788597749749 1.2205019134161332 -0.2139592514285765 1.062718440529673 1.2710963244495657 2.1857014822773584
Ni 4.625595067639399 4.988120019332671 1.0109754280052787 0.5334990208708167 0.2597649801426171 -0.226123637939088
Ni 0.10175975479707783 5.056773834485196 0.3640395111505463 1.537183647265785 0.14371566785481701 1.008001251492451
Ni 1.5149136311785523 1.9239192475698481 4.5145056265855095 -3.2966497043476966 -1.7198106474738186 2.2756340428734485
Ni 6.69260989273256 3.0707623093500307 11.897967136177643 0.19446204516974894 -0.13126921456134813 -0.5805599789143614
Ni 4.284497637129355 8.502587667285898 12.443073395491117 0.4471174108507783 -1.1973879390218216 -0.3793426172986499
Ni 0.05314193020026549 3.8677001948532492 11.813500388254582 0.429061581790332 0.43009490815085283 -0.6637711616262182
Ni 5.631411673124052 0.43346878074519657 9.53806354110864 0.74658485178934 1.817579673395192 1.6879536508642219
Ni 8.102520281783994 6.820727642269164 6.842010697781082 1.5159422213885054 1.2090959714873695 0.5244425670955032
Ni 6.441360789410997 2.3717162267991583 6.435186979044851 0.57040360720665 0.2359203123145356 -0.6764413008947189
Ni 3.7387529327523543 7.944167265297243 5.793268215149202 -1.5258695078045463 -0.2242917269366718 -0.7045593992871737
Ni 8.743575047761556 3.396602300896636 4.102183824010224 0.1495186476898393 0.17995768090598685 0.2845167331660003
Ni 1.4352151824452852 5.771534053928162 10.421951120008263 0.05048823855753886 -0.8260555936221581 2.276917794681879
Ni 1.7308292274076333 7.628421230010504 1.7926027484594809 1.1927887496869134 -0.4347923136265221 -0.009150813261332628
P 7.132643007174733 5.349125751385722 10.779830801341499 0.23816488537433816 -0.8484941251313323 0.9692452137701759
Ni 0.4107410685201852 8.409411969474357 5.030569625782872 -1.6015895243456804 -0.676663444207854 -0.29939956381510374
P 0.5175543257033205 9.425965636465353 11.881038555609964 1.1450001694487248 -1.951070063977575 -2.715997422829845
Ni 3.54405048929101 2.8744101611259936 10.299725705787901 -0.28642680570451956 0.08319292787941156 -0.13665336169139689
P 9.370323052096554 9.490928586725072 8.112302005786516 -1.5203352082498784 -0.16573073867332747 0.7804429379893656
P 8.219379029324365 3.7533952275669913 7.261849375447396 0.579807417019053 -1.310748391623549 -0.8328121956197012
P 1.2888201953965854 3.49639545849073 9.989385482717896 1.7388254980134246 -0.22793960810190422 -0.39540147053372554
Ni 2.8860233370260815 7.387676179048009 10.896546015247148 1.8635365997412807 -2.1597112288611835 0.614546106051819
Ni 7.170232042812818 1.1321168836725273 13.420363157093428 -1.7771107667468682 0.010568776654781797 -0.43595059560068145
Ni 2.054040875772999 6.490917174853025 4.039679586272528 -0.44631651221603785 -0.11120766792478266 -0.5678119352200737
Ni 0.477898964947218 2.2889327369559958 7.930613589218665 1.6816927575561746 -0.49023686774807185 0.37100427263628366
Ni 4.096161003571511 3.3751654593475178 2.625199421824775 2.1346709980631045 2.2966384130392576 -0.4760366649882899
Ni 5.945918099747298 1.3059323871723167 2.7564292415323566 -1.044643328195517 0.6800979238106997 -0.24037397721051504
Ni 9.135533714938356 1.2429733155791443 5.914171069449642 -0.3547896105496341 -0.019460422717456807 0.7726746068978564
Ni 6.6862161217313885 8.410437209722359 11.647157954126133 0.5688059237022268 0.8522553919459772 1.0559451263615813
Ni 7.2633331776972305 5.104531389310276 13.158477652217144 -1.1149473159274026 -0.08611524373252911 -0.23585372074265834
Ni 3.8654353459417554 7.07727071341677 0.659386061611825 -0.9921195472651881 1.1504244257880898 0.16773851313197563
Ni 3.042996939360976 5.807883480902755 5.954712797001972 -0.19711413808061537 -2.1925020501389594 0.5051716346810332
Ni 0.7780827853058848 5.169913756035089 8.461369281169887 -1.3851193503359565 -0.7598743698093946 -2.6031612181627035
Ni 1.0645628716951303 3.607009560884183 6.098273460783242 -0.9591618613922449 1.0315759534885975 0.1107880638888608
Ni 5.972825996074388 3.2078462508737 1.0692827049822928 0.9440116360143678 -1.1198468101115489 -0.2937649912371457
Ni 2.242414790794408 1.7178273169897982 12.149976781355905 -0.7494194930246577 0.5041719897719252 -1.8913004001181104
Ni 4.4627589551591145 3.2868270314333667 5.239676694728634 -0.3943306060670499 0.011494888013476976 1.388409076830822
Ni 6.8754009085853065 5.927296008697238 3.7785984289726318 -0.7389535604963274 -0.10098624730709059 1.6189326436098184
Ni 5.803465627470459 6.964680693454441 10.113998774679514 -0.2806073708092651 -0.25805442520941363 -0.9410394407599213
Ni 6.7137764436708425 8.794958224918204 1.5248109277181217 2.4078010866587176 1.9529629101249142 0.5020107204545483
Ni 1.213772609242888 2.5888155094963854 2.5150047358964134 -0.42385586921967644 0.7153657458740582 -0.9968560335089091
Ni 8.635281716474942 6.708146942672726 9.632720245060247 0.2866312084058419 0.14768185159141664 1.5103562426602957
Ni 9.391293875351124 8.259997183877 0.173808047207077 -1.8360337663353217 1.4185177232907442 0.6217444235724712
Ni 2.7401036886378187 1.2003046805305069 8.569545175846274 0.1370523969020285 0.4320710580406172 -0.48325503711360007
Ni 5.740441313316048 7.21659154275426 7.309620910821312 -0.08088022058583491 -0.1613763183593737 0.5568670061727957
Ni 5.0032096917100715 5.0992001400206695 7.113759013843137 -1.4267910190431299 -1.492818233776532 0.959201970601561
P 5.58049451426195 7.324428176112218 5.0479893896330035 0.040605432226188135 -1.1631693841585837 0.16057284862147184
Ni 4.4678292342037755 8.747387077410943 2.6273953000286756 -0.5106804803144044 -0.4985890963675091 0.5219460259258947
P 0.5279977956840978 4.9165116481927225 2.963530567738393 -0.19017858730304668 0.20876946293135656 -0.6483239738332125
Ni 8.402188685908893 1.4063966111105568 10.622709937225528 -0.1318094033355343 -1.4208566558365658 1.210602895050199
P 8.399243450287363 3.0929168190727507 -0.1370858055968474 -1.717734224560764 0.6279878333790216 1.1932533480281577
P 5.297826457522091 1.0680486885383347 11.839200365162208 0.7294777597954081 0.24279955593287217 -0.2642901217064803
P 4.495165867361847 2.1904351102207404 7.414904695961748 -0.4641296291380588 1.8348212340844596 0.545548495836183
Ni 3.0765316158365112 1.2857165135549087 5.960237909902109 0.4027957061152676 0.4511429870704037 -0.14797238624864192
