# total energy = -340864.61731311766 ev
CRYSTAL
PRIMVEC
9.34275678901952 0.00000000000000 0.00000000000000

0.00000000000000 9.34275678901952 0.00000000000000

0.00000000000000 0.00000000000000 13.67406894105929

PRIMCOORD
 96 1
Ni 0.15922767269819807 7.936756127547162 11.161992616720173 -0.1274686098683353 0.3827094768883538 0.10981387290104959
Ni 7.845570819557653 0.9677788230943997 13.148109526506927 0.9159261906320613 -0.5287239680796765 0.22884026553930267
Ni 4.071143719022619 4.866025481701664 7.401376913808182 0.5387379006722529 1.0711745417168261 -0.492406621705881
Ni 0.333929753759411 5.485581067154158 11.429484157141982 -1.236006422724968 -1.510031512331025 -1.0046225648282054
Ni 3.6850823156678536 3.8232710339540046 5.272912824609649 0.41287083096308247 -0.8904614707020536 -0.33243181167972424
Ni 7.893377706953383 1.069016937579474 8.539127580111838 0.3526964754660313 -0.21645449028044011 -0.7099101220761258
Ni 7.07487745466394 4.978381476976443 7.829430272622953 -0.2204715818596332 0.21182290504569973 -1.8803475006510324
Ni 8.376454298644529 3.6129095181044355 12.13000687729012 0.35528146258438814 -1.1594497692151515 0.9036247475568889
Ni 8.025727202135698 7.357439796347827 7.78575475235765 0.08999452418227727 0.17654454145937984 0.21254641347528555
Ni -0.004474246311083621 3.383526149071808 7.859020652486105 -0.999623054731085 -1.7145835947469248 0.21654807843551094
Ni 6.7010737484487475 8.24251653477797 13.361985787527155 -0.76702332214935 -0.7166312428500432 -1.422274362119699
Ni 1.8312551074188315 0.589299067017655 6.943254825973591 -0.5820429912177911 -2.006520531636396 -1.2899250271202947
Ni 1.3585022621752687 2.7119781211027547 5.697615870776362 2.267139375138876 -0.9430366736956082 0.5322630915811866
Ni 8.66648150314436 6.736333313238954 2.405090977381831 -1.6004099022152825 0.6746597835142639 -1.7772652900468617
Ni 9.190227115909105 1.0721561039200966 10.715917079717721 -0.2882085801952908 0.5529638144636477 -0.1231021053695235
Ni 2.862050826249834 4.856122159317557 12.291785122640073 -1.1207798634487796 0.20079390092504773 0.912846523265473
Ni 7.272654276880122 2.1576256365169404 5.482577370789545 0.033074928177097875 -0.3303623307452052 -0.13268177863815858
Ni 5.823835583113195 0.7852559201768325 9.740600520303042 -1.3017749844803452 0.7875432964795728 -0.9118342799508748
Ni 0.04659886892000789 1.1719367483184533 4.234462584996289 -0.676485523869093 0.30504210681286176 -0.42428190101350155
Ni 4.7565844266003205 8.16664400545596 11.509491790697203 1.0745737972063623 1.2232822902900804 -0.27900531642946785
Ni 2.441720190343273 1.1020342406978068 3.9170601683099773 0.0534375509938499 1.161671973677451 -0.06441539016159228
Ni 3.34730428031409 2.2978604185786757 7.211320945948818 -0.7338347512125233 1.6984198405028685 0.2606851779640414
Ni 9.015227935176368 8.804642193159612 5.801264416558701 0.8025348847923985 -0.26290532554381174 1.6052374055109129
Ni 8.544577210250187 6.173320092945529 -0.1791482991013981 -2.4151382437500795 0.3274060763303587 0.06659697119394337
P 3.381153088802409 2.948041561366171 13.71700588086193 -0.12261462421014367 -0.03208762456316409 -0.7622654957493905
P 7.980779198371606 6.189697945907169 9.701670186300838 0.9151744000677012 0.3103429502004849 0.20504676266413072
P 1.7761141558046836 4.369196351756363 7.210008288595074 2.628908502330137 -0.26302950982650186 -0.22195587971464353
P 5.705247968942001 3.1988198438512545 6.62436223955118 -0.26366122987322976 2.13129488250202 -0.05624776674913538
P 6.055965722693865 8.517165561311538 7.778288955266008 -0.2637594460139909 0.07659599138818421 0.8578164309735226
P 1.1950694145666116 7.46216275918127 6.645063920436749 -0.49650470303465455 0.006899041112678441 -0.2884762320343806
P 4.688970894436377 5.645519723657479 4.86796877515062 0.12367134760943217 1.3160998857434496 0.06391171105229639
P 1.8311523370922043 6.859592305893216 3.0085004102454445 0.5107720115869462 0.8558865609406615 0.3520809533692194
Ni 3.9301054598617955 8.822038406630561 9.191668703308979 -0.1250296614095395 -0.20949220002999405 -0.1888794088756489
Ni 7.1389220536668185 8.652149713958304 10.907326813061479 1.2125489630329762 -0.11197437088747811 0.6721694129922423
Ni 3.558702842186901 8.785620339976553 2.130761473136506 -0.18205210154117032 -0.77228585609987 1.3608100841666306
Ni 6.036037622085093 7.074970882233602 9.421611703483878 -0.07130543241320624 0.09743118296598059 0.0480289783837689
Ni 2.2439153398561933 7.268459379002325 8.457712927357516 1.3360274779053118 0.0013580566897912095 -1.3814925522166468
Ni 4.593216978290426 5.402271703287103 0.1870999195552784 1.9376674174184239 -0.049304502662082826 -0.5382061965384989
Ni 9.080178781604962 3.8260271472590155 4.980957275072007 -2.1950428142829423 0.7633317322303758 -1.7898073883779306
Ni 5.964472103724474 3.613040316701961 11.780005712997557 0.08962197133420695 1.2621486283379746 -1.5665510446843085
Ni 4.4181617410158935 6.253452919444096 2.427598613188955 -2.886399598836913 -0.9019591869290079 0.28036131623673005
Ni 0.5454544428512647 5.172178284725049 3.0489760362498455 3.0175723970297126 -3.280365365365376 1.7321969369533134
Ni 2.985608787127013 4.05362604971111 9.340400722831419 -1.9272691049032358 0.16266752636697146 0.5450443025062549
Ni 6.267093344614659 6.57838466396942 3.584042267630461 0.1818019332035772 -1.4586945526199457 1.2945879798136026
Ni 0.11117039941577599 8.637238673840347 0.011629863871448928 1.6616276113751836 -0.31132845404220577 -0.6889309487212975
Ni 2.709427548450999 2.7263566240736417 11.624790754416315 -0.6450028798797794 -0.5389536162274847 -1.0626384792213572
Ni 2.0578449921185835 6.533277833336904 10.504994064174486 2.044827654746711 -0.13401515273760145 0.9515110297152066
Ni 6.259357541846697 2.5467981779414304 0.060570027687171075 0.7861376743812977 2.306141724544003 0.9653222245666858
Ni 6.3909596164717195 6.7254957151582335 5.950886800820012 -0.2989285377159562 -0.8313698067462197 0.8251685630315144
Ni 5.7913508171419315 0.8873666481625441 1.3739841447438563 0.14297698991657956 -2.2695271586447623 0.5533939600225307
Ni 1.0008708682684615 4.663885591982296 0.19796928300968367 -0.03917718442009381 -0.6121570369943521 -0.48848543227460395
Ni 2.5716779397422562 0.5133882323920849 14.116151815347772 -0.10732067416555066 -0.12033148460292178 -1.2598562327593723
Ni 4.673919712963929 5.693111727642988 11.22617829135324 0.03541797448797771 0.40069511483249703 0.21382168064328336
Ni 9.40703513406531 5.403570346505396 6.519427196134604 -1.7696648519917844 2.6321190388476343 -0.6558645051846318
Ni 4.877750641694168 8.794477273580453 4.135352750548101 0.07335640140496398 -1.7440348101285061 -0.007696597313309325
Ni 5.870259742477936 7.8973390359070255 1.8948979678721656 0.4773990925534552 1.0704572039348275 -1.2560803106567078
P 6.440868624184831 5.687216447997354 12.357406779018836 1.0439450165769117 0.11905107522860142 1.324694826501312
P 6.556186273417875 5.423825443607984 1.6718601993709397 -0.6675972202405277 1.0174855368338025 -0.2371457000812045
P 4.072236821587658 2.28045486235076 9.979472393310477 0.714287425208215 -0.49160289485766306 -0.32714253825632694
P 6.614830758894326 0.7327860627793034 3.735441644266732 0.2621234530724647 0.7365927735736347 -0.005593692037693592
P 6.950132963652061 1.5655938130866898 11.348848690318636 0.7537253194888632 0.921454062428826 -0.2720296564425831
P 7.937512890861419 8.575819389544954 1.4094679357012496 -0.061587433794493926 0.3610846995297265 0.9690266700014667
P 9.027737886754027 2.385280595510831 0.6001646933692738 -0.3514626030589302 1.2079741991781003 0.08854853576437008
P 8.096442529612398 6.136799255964894 4.5967709630403455 1.5174440027450125 -1.172584763935213 0.38170854642766516
Ni 5.387313949384315 4.132366805421723 9.381915263410454 -0.1745830468576348 -0.45825980062084304 -0.06670804285051092
Ni 5.257430942041061 1.2533028187365516 7.180541233123874 1.4417000749444782 -2.13621931638683 0.6533728491110296
Ni 4.106590138952148 7.589411109060074 6.827681185199674 0.23802244625920294 0.4165557360138375 -0.5360392707941671
Ni 1.9611941713038827 8.351621250628533 4.694102870837877 0.3752972435846827 -0.9094891767574659 0.626388864323018
Ni 3.8887544175296678 1.9198618144856872 1.8694772604429999 -1.2807641865566328 1.2347337266601315 0.7956474136439459
Ni 2.8930874648913454 4.5240618912270705 1.5454704488573245 -0.25038688136182685 -1.0558157998725688 1.0383695793716634
Ni 7.875803981100076 8.279252255168826 3.853134222320569 0.0002509396685415033 1.5367123640563212 -0.34040377414160733
Ni 2.3961368791054842 6.89754258468967 0.8546221535476226 0.26463979173641516 -0.5162664590426141 5.306468190009074
Ni 0.5868690159307623 5.5176547518189105 8.816370155979206 -0.1769075812257534 0.009215347950680903 1.125035296291024
Ni 5.6544887703449715 3.605883764865899 2.257971517711748 -0.7788529677944264 0.022512836390535418 -0.20790711493106126
Ni 0.7857716403613633 8.79663545043963 2.575264624141557 0.12719195916818093 0.3397545705933826 -0.7048021114255991
Ni 6.675427880576699 9.048002326613581 5.852392654055892 0.15330228310198757 0.7041626780693873 -0.6189000121451406
Ni 3.0182056661818693 7.276017669387931 12.589100611849188 2.949953412329158 1.461765992456418 -2.8697403930136773
Ni 0.577045106980868 8.76526247254734 8.774622980751714 -0.8949459888359684 0.5587917339993345 0.09158269460500357
Ni 7.492218408341337 2.18762522913521 2.319190867008066 1.233964966814907 0.06565363344406758 0.6258664161606446
Ni 4.875442980723531 1.6398407026965907 12.183431564449588 -1.3969158287502523 -1.5355193721894846 -0.31023676363992375
Ni 1.3602306722140043 2.0675147455785363 1.9437419012911366 -0.3132213001895444 0.6441119926343939 0.5041953868106929
Ni 7.730720308172915 4.041078727105586 9.757720188167793 1.2688723202150534 -0.9045598577766486 1.4323901103974621
Ni 4.66051285671752 1.7538597087113421 4.263411117455869 1.09776720460369 1.1962365990261978 0.3257518285563874
Ni 1.021452961864864 1.5884929104106946 12.807296963690561 -0.7741774166956279 0.23293680420617946 0.0371652961963876
Ni 2.2482690646024137 5.815090762592889 5.456459693690705 0.6075917862211729 0.4246891637542492 -0.3517796200787167
Ni 8.408219672329398 4.320305704552561 1.457286968681035 -1.1467534046944057 -0.5338846863450096 -0.3324706353374597
Ni 6.715433565905703 4.2740590575701765 4.38805003531403 -0.6125925818698741 0.12298409173442043 0.7559480381717948
Ni 1.8096172822852554 1.5400880865691322 9.011758969514842 0.9846954868869752 -0.29566400803207143 1.489738309299628
P 4.450497022875698 8.621925895172845 0.13840173314497922 0.43129818443033463 0.08840429687702195 -0.510669681681127
P 3.7061502326264955 0.30262497799297144 5.7831469422499655 -0.5477491030319276 0.4095193979923464 -0.05336813120849518
P 1.1399378057094298 6.753290417132495 12.947415895565918 -2.825556242297295 -0.6656138712619117 -1.2534225613188865
P 2.1419765185986583 8.900713763042413 10.554330360885574 -0.5450317041007645 -0.3816499252755879 -0.7208185414585134
P 9.080701975995066 1.4988398145636317 6.679577933221057 0.11080400472846079 -0.3423904655543329 -0.42328457009723874
P 2.3916336702478054 3.62201870614642 3.5553123556838893 -0.7787724922654781 -1.1740652051354814 -0.4491195288824717
P 0.7607106290753939 3.0985066623058275 9.958783792284661 -0.9792038676447846 1.0454519401397415 1.7513179740534806
P 4.07566561339423 6.252004792114346 9.311671745160544 -1.6285909926351885 -0.5516831479790112 -1.6439715888563171
