# total energy = -340863.18472613976 ev
CRYSTAL
PRIMVEC
9.37086211715087 0.00000000000000 0.00000000000000
0.00000000000000 9.37086211715087 0.00000000000000
0.00000000000000 0.00000000000000 13.71520392971142
PRIMCOORD
 96 1
Ni 4.302181530388553 1.173288159698344 7.558613271303115 -1.1319770177161794 -0.7789619825684649 -1.815221714685977
Ni 3.696692646862613 8.728508241836188 1.397921780453011 -0.2761740176282598 -0.546026463913866 1.0355233681721197
Ni 6.963600074515245 0.45989567329958286 7.394538846849349 0.6036453999789152 0.3577605202525 -1.176213876047368
Ni 1.2592377068506626 2.658541689462959 0.1173475576940281 -1.3874333431811137 0.6747752260462057 -1.0566529510618832
Ni 4.532648512798509 5.338486427955127 12.213059564205446 0.4158162867446516 0.8564172366331508 0.25299680818084813
Ni 1.5929622187058223 4.963136546665754 3.4124387901891495 0.03166313543123579 -1.4715809216643108 -1.1456190339796464
Ni 8.98952423468188 8.169245821034016 5.743269250004499 -0.42978020512391146 2.538622672159686 0.10397618317334996
Ni 4.078827032310106 0.8021917127147322 3.3703467518225136 -1.2611350994717958 -0.26378952792097793 0.38703510084690124
Ni 9.243755723369452 3.5829772353173244 6.9068670012084885 -0.5050847313941816 -0.0548305746866346 -0.4748462442246144
Ni 1.1303227569842815 3.0172114362199367 9.3288759492262 -0.24163021821511935 0.8046053941681821 1.1101727773568946
Ni 7.189868910705813 2.892325957055202 8.095125113106553 -0.2850183553927672 1.663070000248665 0.1312375899924643
Ni 5.4223931271703325 2.7251216646610867 1.8576422186313828 -1.545853150015325 0.13543491590326354 2.166576588522449
Ni 3.443838674903279 2.1054734085068048 9.60494904328911 0.08130059595270515 -0.7297358985528014 0.14846912337940238
Ni 0.8973771815497074 0.690495721951315 10.798583218772139 -1.3486960745119159 1.338052992975773 -0.6198232952903583
Ni 6.302504495306591 4.78953195545949 1.5436874145419501 0.4292996659430671 2.128389793040083 -0.18554211697229983
Ni 2.4029889092197316 4.173491481212496 12.455037713615177 0.23023071812892607 0.10496605789044502 0.01551892157120553
Ni 3.2071494400610128 8.492446854754412 5.582142898766402 1.2003002275726102 -1.531381181651395 2.223972095722783
Ni 3.2862582578826296 4.340452131192093 10.39030975059169 7.636176389019106e-05 -0.4861467568390983 -0.6404926507142519
Ni 9.01161135664416 1.6116758303132341 8.143073003197511 1.400608704220807 -2.225388259344019 -0.3879732963904544
Ni 6.692191795604146 -0.06084125925001572 4.726808090014217 0.8140421141010497 0.8578208018488968 -0.8332654811070359
Ni 6.748744948358643 5.728782834288976 10.02813155306565 -0.9704065810681287 -0.6306309274288237 0.5355864995274647
Ni 1.2754961525886994 2.4200907325464853 4.516938262493139 0.3766786973132416 -0.14761577424017158 0.629576003801748
Ni 4.668516642340754 7.861047537530679 12.118452277561847 0.399165565561848 -1.0004234391451932 1.3043532867304828
Ni 8.901316309764221 5.774268998907092 10.627870475608963 1.2344912716320222 -0.35937877258221335 0.5938543820304224
P 0.15034985982671845 0.4800439638940225 13.13206094712985 -2.1165966570598966 1.1699267574870755 -0.13748408512280838
P 5.397729018131419 8.560329379784001 6.238497758840259 -0.37667484065849965 -0.19156852567203783 1.32250733193169
P 5.810590460394487 3.4567704645969335 13.725079087377297 0.8959356064427473 0.30394681686615393 -2.5654163953137625
P 3.103376513200483 1.2341706507415857 5.4166965801016564 -0.8462950605974845 0.7999231582011642 0.1245349811613081
P 4.151263796318765 7.213605304397137 9.873986494089708 0.6513429631651944 -0.08567738486416213 0.12993301224842785
P 8.700695523132735 8.544755006979035 9.551226827974075 -2.3228037585807155 1.0706297249569499 0.10466729570310361
P 9.214874726386956 2.8436068450136727 11.679744123463246 -0.04129654475594178 0.12282751155189815 -0.19266458694969402
P 6.706435505991359 1.8080422455527498 3.3230707525439 1.554903176032735 0.7701721521909768 2.4972469374263766
Ni 0.0240915493647946 7.955955628847588 11.561327350403966 1.3921893698088603 -0.8112285559116544 0.08168986097132383
Ni 6.625921058855214 8.070954848500145 10.4572945470324 1.271078583837753 -0.2925270050649865 0.7060871487856099
Ni 3.2238670580417947 5.941557629060078 7.218901715654278 1.3663500401482533 0.9249767308701037 -0.8581925833660188
Ni 7.47220361482184 7.229788783238399 8.08453697602332 0.714079422962467 0.9250685192529616 0.9431893972233886
Ni 7.583791840671144 1.2182682977632295 10.208884237879392 -0.04229259012062394 -1.7644696809440903 -0.42291715945549097
Ni 4.908851142538696 0.41225702165782063 10.938135971290865 0.3122028862273591 2.039829944421803 -0.5590393312337663
Ni 7.844582932826512 4.3663813066140795 13.020241260986754 -0.16015350169586615 -0.1070792475787059 -0.5299089895267132
Ni 0.13652127863039523 7.927861784281228 0.41362610461017063 0.8341586823452666 -2.6952717602467193 -0.05495064520426665
Ni 2.750741601633878 1.6487563316304739 11.865022934669767 0.45810553443116586 0.34814896530466494 -0.14533597706705936
Ni 7.776915937625149 2.41510543391096 1.2443998838065087 0.5459421317301759 0.663744936373973 -0.20099444697162805
Ni 7.022495942793954 7.107527145460782 5.738358918265749 -4.104992196960808 0.1720394545001747 1.268333674102764
Ni 3.827725411562882 2.4862209063639638 0.020155787284117117 0.6009354572469199 -0.8332210010223456 -0.8266824285728794
Ni 8.55485679631944 5.344333845903561 1.5268995150954412 0.5424904257361496 -0.6496231522606103 1.018963921151542
Ni 5.525734994374406 7.192876957438902 3.442831307227867 0.4340891169119105 0.4524722474047885 -0.5091311335494135
Ni 7.163892880973341 3.424768970536187 10.635715761356447 1.3816049094247949 0.9259622347118247 -0.08090567450713164
Ni 8.047733852224148 0.014963392596251903 1.2718518243192338 0.04267491316070715 0.694828545152655 0.1985966361634128
Ni 5.137012892872827 3.1406819152080474 11.660487938940426 -2.331660437640397 0.2416916675806741 -0.6762710938654418
Ni 2.7702704782437153 8.662509260088067 11.00889253972556 -0.30746280043921237 -0.7275273209372567 -0.4643450875829745
Ni 2.9907106382100417 2.8207419414973556 2.0630412078460534 -0.43278942426388045 1.2083588362110285 1.69932229771248
Ni 8.797843250490791 5.939392959915706 6.3997749809581155 0.69061964927763 -1.00238416241599 1.8280216946641228
Ni 7.688576820638134 3.7690544439744977 3.352516812510835 1.8528161279999833 -0.564043469316577 -0.7712764409987491
Ni 5.894759543748403 0.527077257844328 2.031345203889664 -0.30543574270685464 -3.432162267566431 -1.8572952468172592
Ni 2.145196492935357 6.8790467858153574 1.9013385485889998 -0.3347658591295396 0.030381954725967025 -0.3036621957461996
Ni 0.7002835874114761 5.377993982555451 13.601024803680554 0.8444032428914102 0.9385403284871514 -0.951342365347826
P 1.4211380912979599 7.540245444507077 6.836439350033395 0.505814924691987 -0.6942379627565076 0.6671107675224124
P 6.4267902392971274 4.411773762611227 6.604529254860523 -1.6163612833382164 2.113909340035721 0.8170762729416832
P 3.356024326193687 7.844657899723287 3.5286749636384913 1.6285598822869374 -1.778815665253117 -1.4232066441259812
P 7.8129750149738335 7.267590840937096 1.8335722222494109 -2.3532420204659146 -0.03622761487346664 -0.2892678746977405
P 2.880349995295426 3.928040490309674 8.130318322797487 0.5658527546111738 0.7301678438838973 0.7192727942379483
P 5.645888188180231 1.7712147575121246 9.041117390128514 0.6802398487052027 -1.084758451048848 1.6140925419086976
P 2.174705337678341 6.897441788111476 12.490134403426513 -0.16088292366272294 0.5919065142754322 -0.02190065672783325
P 4.908101473570947 0.34268305601974935 13.754704130810284 0.7256519582914148 0.37609634244721035 -2.013331126800326
Ni 1.825069101982728 4.477407280737572 5.7773379562438105 0.3587054006642726 0.392645247944827 -0.13538477939161844
Ni 2.0259803853392166 6.134569275668921 10.432840345304458 -0.11835996269884777 0.9301891283089786 0.7862574877886137
Ni 1.8922019580445697 2.316102275857728 7.051727410018872 0.7009079185775156 -1.1894095488020355 -0.4281874067154948
Ni 6.531612702712504 1.6177668906761875 12.417128828088575 0.9234790632786547 -0.9602394107271397 1.5565787639629451
Ni 1.8051747617511134 -0.2554328332083878 3.922986784380842 -1.2758441235471962 1.8188896504558676 -0.3115737372837924
Ni 1.2811655241572943 5.470924821969923 8.118564450469407 -1.3615880999832357 0.23971911723533554 0.7005227673239548
Ni 5.839218444100368 7.223866398393189 0.7439236921965118 0.39464093821861707 0.49416114250314247 0.12308642164023964
Ni 8.002744343297165 6.392108678676681 3.957344113172737 0.5919137133642838 -1.090866620829115 -1.7529686222830263
Ni 7.502396532497896 8.66368998871227 12.638080637125388 -0.8772711972640246 0.5067384649475208 0.7276093391281018
Ni 4.134780449890404 5.416002199220279 2.292359322562936 -0.37744000095929836 -0.36249263562084666 0.32404924404298385
Ni 5.13953365477688 3.897866314357813 9.196551879728984 0.5538737278724268 -0.014638575848781242 -0.7722768572388055
Ni 2.014763463409286 9.124370940255568 13.445507850493632 2.580375073506124 -0.8335758132586031 -1.4056061574353986
Ni 1.338843180363413 1.0298577444439403 1.6420111850931605 0.5456479975285249 -2.8414885972568356 0.28477512903370955
Ni 7.200785965048644 2.829475584971621 5.566960227997083 1.805267945907375 -1.409627877000282 -0.4406048065432412
Ni 5.91637812260584 4.791565432534506 4.116330159507914 -1.66662737858262 0.32423513480154487 1.0088723412434948
Ni 5.43769574497449 6.100421854187996 8.142936188610898 -0.6141696965490068 0.08371306204893969 -0.9318297492361953
Ni 1.2326806836681865 7.937804268965986 9.041995439906989 1.1087632986038776 0.3873019813550426 -0.7504183666028174
Ni 9.195992439261802 0.9180849126113291 3.377890295810479 -2.267237077059005 0.37516380333061194 0.4802723003361922
Ni 3.84689819541304 6.011548598061459 4.8395742332290945 -0.6765325750569446 -0.1471303499633208 -0.3694538974300282
Ni 1.0255658896035826 6.7501130942247825 4.81453060427526 1.9812561006426526 -0.5774345459115023 -0.8371501608734228
Ni 5.164047830022242 1.9011605022091596 5.218306058649221 0.40688298881076373 -0.8011650010280653 -1.3030345679190591
Ni 4.109038691710354 3.4920236478052873 6.360727535686746 0.0813569031119373 1.6701737011729818 0.4121046422210193
Ni 0.13271670861907367 7.85411309957901 2.853681458853997 0.7160074932231152 0.7272758670480829 0.28246370729171355
Ni 5.442849719127757 8.745188376368583 8.710580845558702 -1.634198311519637 -0.6991505695667766 -0.8253102308157013
P 9.112619879186118 4.570366232738335 4.812925375598069 0.7750068545754589 -0.2106419973637211 -0.3099698831317823
P 8.805152522926335 4.668629092685917 8.749037926517971 -1.4633261378546862 -0.46612660496342945 0.624119351562551
P 2.5884851244269003 4.844651366313168 0.8648987106082311 0.026086412674406687 -0.4268206082749552 0.050781858538557705
P 0.8000748349670536 2.8692267819864634 2.4364513206813774 -1.6099669497760982 0.8490276290372992 -0.09060644673466332
P 3.6965239713448694 3.818448258087 4.067984007777839 0.1937804457216921 0.8523716058088675 0.4126353179135087
P 8.706308669528749 0.9593138945788451 5.655972172882653 0.05632747094713525 0.4937451380116464 0.5445251967779913
P 1.8666101336580694 0.775867086912258 8.680750580245796 -0.1837793686449222 0.11727907092984317 0.4881974687205398
P 7.30013584499946 6.525484158901163 12.164384495215774 -0.14640529887183817 -0.3305731612044307 -0.3307981327310432
