# total energy = -381161.4864269368 ev
CRYSTAL
PRIMVEC
9.32468515833872 0.00000000000000 0.00000000000000
0.00000000000000 9.32468515833872 0.00000000000000
0.00000000000000 0.00000000000000 13.64761928285339
PRIMCOORD
 96 1
Ni 5.120147254140781 8.37813625736292 9.792562296563803 0.37542939828717276 -1.524479312325239 2.965696019875396
Ni 1.8582512078888518 4.588052751971696 5.877128915180107 -0.9730900414375628 0.17882536707375654 -0.7482614681608145
Ni 7.276667162253639 7.642502530243398 8.012381081664463 -0.8967814993828104 -0.6455039878859141 -0.39829087626637855
Ni 2.548091406800035 6.91560603300195 6.637001228580376 1.392578120606847 1.2782324212737148 0.15334059253909074
Ni 5.335761946211925 8.919863159173465 1.6723654766472376 -1.1083586069662912 1.412199237271884 0.10959661468392091
Ni 4.988874338213885 0.042353651898817034 4.033963182741356 0.8721999533887043 0.4328513878500675 -2.4703136033706428
Ni 8.858049822074488 6.132686828068445 11.848494029795416 -1.4882331855090112 -0.203069841443418 -2.12395232609402
Ni 6.548036273595625 0.8041645673179234 11.161500657225508 -0.13564394659027607 0.8990481839297999 1.6823093080942513
Ni 1.2655835517304865 7.414840345106652 4.897229468749992 1.058855358029841 -1.1839444119224063 -0.29919490400346543
Ni 9.033922706525201 7.5768380982248456 6.687811437337702 2.1577996136607673 4.078193331600409 1.3363856325756793
Ni 5.282340825644716 6.821930247137368 5.384231659025392 -0.9495873303299323 0.5463254832115236 0.49390634617985907
Ni 3.827941726634524 1.8671189833574182 7.979080766466414 -1.0575204412685013 1.1018472882103345 -0.19009194112651132
Ni 8.922613941258875 1.8961374031872589 9.288501527484833 0.2219196271600694 -1.0782833848474653 0.6331742626759675
Ni 6.773218092512983 5.443499357109732 6.9919071332402645 -0.8295564076865649 -0.06101587756174008 0.1619033945074373
Ni 1.7440331408915137 2.9653057893342747 8.88405450370092 1.2651951284737821 0.12220967546224115 2.0692868162303397
Ni 3.0746936694833296 7.961080394474279 3.4767852778273265 -0.13603938225648182 0.27807354864381784 -2.3140692069211957
Ni 6.704448540377676 6.50671859420423 10.23583730883469 -1.1380725890909562 0.9192794233750103 0.18722541821199368
Ni 8.81857843032008 7.20421435952939 3.555600313151157 -1.3099222961778278 -0.9875692088903444 -1.0395898249320097
Ni 0.2957034793707967 3.742322468640438 10.863217969973949 0.20120579165148575 1.461324019822993 -0.0013603706826363668
Ni 7.2637804475348595 1.7568266087599396 4.331577290075885 0.674588049736064 -0.6817593706735227 0.09979222699898942
Ni 5.5893933791719705 4.634265891006622 8.977389938561714 0.16660902751322273 -1.032766888472905 -0.6088292581726998
Ni 2.380955752227393 3.759647733436018 3.145039093389601 0.5155609483351573 1.1385366732115683 1.4997967219768944
Ni 7.468671751815415 3.840996285683938 5.602934686780228 1.0674641827447744 -1.147660232779391 -0.9962780495182519
Ni 3.487991684302745 0.9678183844983859 2.3144586258351882 -1.2209610983560715 -0.24344978792236138 -0.26207511633303254
P 4.11293207536827 7.592494244399107 11.812955790188898 -0.41279164098571486 -0.6683011882860878 -2.185119127411327
Ni 6.002085289464092 1.0722175581535576 9.070357980832116 1.3580556613499448 2.0679007345160905 -1.313889765466008
P 7.685023094004347 0.6770495284482677 -0.1494467270606857 -0.6222758705959089 0.3281892343532864 -0.12061636283319227
Ni 0.5317588135078133 7.073351729744049 9.142594450863546 -1.3917728510967322 2.3101205066860926 1.4611144749153482
P 4.8753835966493 1.487716198641303 0.09334755695133914 -0.865128905474536 2.0739263718848795 1.955988327214799
P 7.514968813015658 8.83114810574766 3.374360139994127 -1.068404692281173 2.353506586981211 -0.8535645976757041
P 3.37261735636103 4.764410520044246 9.105540949938792 -0.2812725151970898 -0.6273324591832099 0.45045727385728873
Ni 3.9994693078587904 4.841674860246707 6.99144369639401 0.2090556267132077 0.10306344155109347 0.34661247405548046
Ni 5.147356685073773 7.0469721957791975 7.647197509158669 -1.4848848378620685 0.09145182545409411 0.6858602802157737
Ni 6.498718014443946 5.660102465794619 12.27851679969414 -0.1578410515126056 -0.2568128394928286 2.5638107413895392
Ni 8.003768802565864 1.3662155526313988 1.8083231143358642 -0.5406423167838172 0.9226622238043142 0.7162939141152825
Ni 5.1643928846332585 9.04362037896191 12.88309301111108 0.8492137769061763 -0.4193196719122198 -0.9981842654020292
Ni 1.1375836002509812 6.802702746594589 13.245410175437025 -2.1501194714076903 0.7611180124085085 3.032131268680494
Ni 7.447961626352022 8.292218609447703 1.171390245846446 1.2241240694650855 -0.3109034506896452 0.18348574866390335
Ni 7.03081251661303 5.615278704829952 4.138176795164326 1.0127662769812622 0.5231757845679377 -0.4202408981749085
Ni 7.529291529229872 2.989372801410373 7.974659000822677 -2.122939825669105 0.8156410831570533 0.34151551914854733
Ni 5.668550630436596 2.780387960399324 6.67142050598266 -0.6809175914985176 0.08381256374128145 -0.6008526677251266
Ni 7.808416651076417 8.562802319801918 9.924153184250402 0.3141918916329298 1.1236150189047294 0.6997486081620916
Ni 8.103076698191764 5.357796176950329 9.100300476948954 1.7601610262664076 -0.5266889399275188 -1.6180037040376458
Ni 6.833203791345041 6.0841331930896585 1.5722053048091111 0.5957991644616191 -1.1034776247249058 -0.4704051777341253
Ni 0.8237995565967459 1.5205297652805088 11.408823008290675 0.7361207190332225 0.16675275217993862 0.4865074826126266
Ni 1.5978500535931817 0.18513416162776977 9.750145236806748 -2.0073353142282073 -2.2359251543196006 -1.5433062152237549
Ni 8.382835898620709 4.626358558096691 13.608628104337376 0.2249969805338125 -0.6682111996754427 -0.4565435892606847
Ni 3.2703069121537647 2.6128047209449874 5.55871609787435 2.6784750004043545 -0.3926185084719496 -2.0116920485350067
Ni 0.11806729697990831 4.01378269938797 7.625825331057772 -0.21304880703300083 0.31423200084224595 -0.7428043017009852
Ni 7.020946999845687 0.7053163786642634 6.977440816876507 0.9487301245359595 0.3583475031042216 -0.5732547035021999
Ni 5.172617256834389 9.004148987207502 6.070461339890908 -0.8264366311106607 0.6425878426803837 3.0380453201720843
Ni 2.991433556803173 9.111401514483473 5.3122945113835955 -0.2689286489197562 0.43994531858237135 1.7821650413413241
Ni 7.096691416387395 8.107850936929836 5.284507882446918 1.1647405853004458 -0.3233005388024174 0.15287573708753027
Ni 0.5715677588604982 5.2659666787227355 3.3731731075891336 0.28358830781446 -0.6465100605529253 0.3340845167917988
Ni 0.4967427562632706 0.5127196716027463 -0.098985261523679 -0.3792235752222824 -0.4816699520146673 1.0885199749738093
Ni 4.571753202529999 5.3440049677831265 10.973177453315667 -0.6352013204083253 1.3084701371123337 -0.10563454471237936
P 1.0516286535956245 3.232383418115217 12.863795575430537 -0.2741418176895795 -0.1187991071187954 0.3618701715454994
Ni 9.107708939209498 2.041425320722203 6.3449278490938195 -0.42623079720975626 -0.7865403091363551 -1.1602367838928211
P 1.7769772531212138 2.5785551528103463 6.837716938902124 -1.1891043588567907 -0.5481026297166044 1.0929255602406724
Ni 3.444221612747067 5.823256479857189 2.246152510546136 0.035803382851854464 -0.08142915111076944 -1.7007873122937807
P 9.282668004526752 3.249848553186326 4.028108213007695 -0.7551885342979511 -0.8322031012807927 -0.23391947983442293
P 9.13840580234569 6.138337587199834 1.345998703006374 -0.43649798346371926 0.3638604625026508 0.7461714184010053
P 0.19233375094352168 8.241287179784917 11.17123096605984 1.349016433965812 -0.5576100549864074 0.15320458118185873
Ni 7.262018082063189 3.9861629823134233 10.666501617063838 -1.3682436576265404 -0.9191529250994751 0.6258571601892641
Ni 9.287302372989295 9.167256377844897 4.867928510963582 -1.0376648399951547 1.6254691591767554 0.5909194677718146
Ni 7.583831612001317 8.327512542306298 12.26081668256014 -0.034426814219302 -1.6510750326703179 0.2740358882393345
Ni 3.2391717888209124 6.917293800993338 9.27538635798269 -0.09588466441446712 0.6718110012115591 0.4825281862499045
Ni 4.953048898308279 3.3333231336222937 12.531721162079567 1.068651003964024 -0.04290656955553901 -0.7484422167130529
Ni 4.14399260122084 3.193368935927539 1.3531227623733397 -1.5398061724902965 1.1596356599737125 -0.21652339584516261
Ni 1.6427297626680601 0.3197145433366834 7.30215898620313 -0.6086672786735388 0.09462585230670155 -0.11798561007856455
Ni 1.789500305123616 6.1614068579771555 11.290961786850046 1.1291665448505779 -0.34998576140308757 -2.363925725432006
Ni 1.2666931892496867 2.258904949800406 2.133491665949692 -2.085404033507176 -1.044628930017814 -2.0320032492885325
Ni 5.401118663624312 7.07055432423346 3.065814704392721 -0.3840814175352159 -0.004388615985998894 0.2374022961767008
Ni 2.1034251515218845 8.75265290712054 12.103773134601198 0.9249728742153619 0.05447704800195779 -0.12997646389185358
Ni 5.075136999475407 4.740968261865512 4.870030294970538 1.1090029254185094 -2.8555867272211146 0.5128849441648908
Ni 7.694496974000208 3.977770765781657 2.2418538307448648 2.0928949425675825 -0.13377372615075672 2.631309398462146
Ni 2.927690009901891 4.0663739229870375 11.996570960624418 -2.4662990828946105 -0.6841741507626025 -0.07570304726026962
Ni 6.474054222525589 3.1237694868240915 0.7088942603123064 -0.25731060506485365 -0.6815297711612198 -1.7648905705315927
Ni 3.2659243101871755 6.2504482753791955 13.177799681651603 -2.2156751458213133 -2.612823680953132 -0.6525606376223795
Ni 1.7387087457363597 1.0786795648830176 3.965766166267217 -0.020750088063157812 0.4730963514130433 0.659262218012271
Ni 1.3689197112916345 4.657372460524085 0.9803004078866329 0.7920604676236359 -0.5756658840468537 -0.19996754836901046
Ni 0.24162776591410937 9.093796509136835 2.435608663687765 1.9158994296137133 0.386706770973205 -0.49600282369757154
Ni 8.871253576084467 5.737581273752892 6.011776434621274 0.36077719559163673 -3.5611306019087445 -2.072920042107553
Ni 3.2642085681406816 5.953112043658718 4.5167478179752925 -1.232479383408316 -0.323361731057656 0.2776467455190444
Ni 5.590726809132018 1.9367557312010073 2.631165025779485 1.70895210749276 -0.6772825658490916 0.23833689217582824
Ni 1.6268404993679164 5.613516339358281 8.109838027310857 0.547339783408651 -2.191580052545323 -0.055811707652981296
Ni 2.5590572364015425 1.6521849932938504 0.11540043705981369 0.22764110302487892 0.25867406107128355 -0.7565846433145293
Ni 4.982570851130026 7.084737170172145 0.33548072079436153 3.010662557283757 2.0105463649663373 1.3416293974731217
P 4.5650953774147975 9.28921393342153 8.092574305436509 -1.5073969029216554 -1.4439924705230809 -1.8623479787498185
Ni 2.3175478939873817 8.245455313995695 1.0225393661595157 0.5097613109342446 0.6827513022731467 0.33114034656181035
P 8.758191770031505 0.003753185726706558 8.133776358733469 1.3724600097007333 0.48557365794444757 -0.740426545497428
Ni 8.012114395672453 2.3287281913447013 12.291837112267057 0.5730119913637745 1.2298064645618432 0.1706114638043965
P 5.2256840393702575 2.5523621125462004 10.41378866557977 0.2030032498715407 0.9726038458297636 0.33907888468259667
P 4.928422405130063 5.076684897191266 0.5444786163644604 0.7269210548118256 -2.022913628282439 0.1872148766890324
P 4.34371802999184 3.2691879499495293 3.6234290045664026 0.08988756629076777 -0.5565163077015964 -0.0816993740530206
Ni 3.2590706666862332 1.2926437877029149 10.403538971788974 2.2108751533295083 1.602624393368098 0.9634738585040374
