# total energy = -381163.22353052505 ev
CRYSTAL
PRIMVEC
9.38107535250348 0.00000000000000 0.00000000000000
0.00000000000000 9.38107535250348 0.00000000000000
0.00000000000000 0.00000000000000 13.73015203202555
PRIMCOORD
 96 1
Ni 5.015272908196898 6.830445295154531 6.2905240777943385 -0.5185192596325329 0.31234275423933305 -1.97300980147346
Ni 0.7886913842864308 2.887532476084962 3.835586751834754 0.08809242206355795 -0.22183195254226953 -0.26785829867371286
Ni 7.492242627411064 7.8109928011333505 6.545218393720095 -0.18540841960791293 -1.1831391424122915 -0.30372004556732857
Ni 4.032708471046429 4.404161525337667 9.941948127722144 0.01653116488580379 3.8973046542397207 0.7573300061209861
Ni 3.8032004658632004 2.4566503102942043 9.279372166222602 0.4951227350854634 -3.022148446436169 -1.0850351017490023
Ni 7.037166668635734 5.553521479845903 10.304643948298338 -1.8502113433872844 -0.41236483786094147 1.3577625555895583
Ni 7.54644648001473 3.780413834161174 12.435137725986454 0.15145931635597784 1.2326727303660447 0.24115225013743627
Ni 2.1377688015188796 6.043363703375333 0.3338818480472634 -0.754662486591152 0.9281651559004144 1.499658139516501
Ni 8.042405164585626 2.954353874855456 2.8449283229870814 -0.4465512539346632 -0.7948678551654439 -0.2885273969872902
Ni 4.869490999325147 0.2452588304725255 12.546901041798899 1.1017858388447799 0.8464729809362453 -1.1131711978635863
Ni 4.138545761644312 6.365331585897042 3.655611761904661 -0.7769860897890166 0.8082689590626982 -1.253103744526887
Ni 2.9910901654051196 1.6275133583173187 11.895816897440149 1.014675063968201 1.899323270422587 -1.1652676614485094
Ni 0.5441877303688716 1.399609516996192 1.7091981326615837 0.7686698566138375 0.6072416019706058 0.9891861756684771
Ni 4.925223967189179 0.09132476723722598 1.468467547196291 0.6696319912823693 -0.8847011711795086 0.41042494052575124
Ni 1.36292951289783 7.83857316227125 12.17556900337796 0.004514085820269645 0.10304235850517093 1.1710765548208024
Ni 3.2835733285198843 1.130006796335623 0.3013792367430193 -1.6568296757659078 -0.3447584515658772 1.496188950020978
Ni 0.8460491543780432 3.324390386788931 12.671461082314813 -0.433456368423918 -0.9232378938021262 -0.32323240456864333
Ni 1.9983660237946699 3.6364706160319504 5.672708040477539 -1.0192763101856381 1.4712898727864532 0.5830549774220732
Ni 3.6056162596433285 7.891079040260643 13.35041733925071 -0.4191075559014137 -0.5019155896375808 0.42085950559551394
Ni 5.223692256292373 1.6365754769769139 3.3554154787465014 0.6228091173915596 0.3592977828326328 0.015840823686998524
Ni 6.339242815718642 5.451708670516102 3.936228802977477 0.27631002898549184 -1.083448731098489 -0.37504913212961866
Ni 5.901315462439937 0.9500214872227913 10.06280076731231 -0.12968027280767344 0.2738373990752832 -0.25253195272928763
Ni 9.249430588452592 4.773344359426398 10.344076359865358 0.23258867683814138 -1.6169122707456796 -0.3021205622906926
Ni 7.458836618563425 3.6936482694793966 8.75534718081757 0.28474144758229675 1.19546938184287 1.2506002613787428
P 4.695340718997271 3.7328424017359074 2.8235648003954705 -0.061520842222616626 0.21028050025924427 -0.29018910096042927
Ni 5.8932195945276895 2.8098759354388645 1.2032748699952207 -0.016192807709778566 -0.03639525079958248 -0.5650125180980656
P 6.750265245275069 0.5439982326494888 0.2753289289730087 -0.7805815204497589 -0.13329575807307364 -0.020349767300945596
Ni 1.5493690017599389 1.1521836581485458 5.628442498958733 0.8557842310348424 0.10482850387131623 -0.37042834552815557
P 3.8438768080039925 0.42231255358005343 5.82695261730252 0.050326773279010105 -0.43141388407259246 -0.12958771309386713
P 6.089227780111111 2.5396259205883247 7.6883774575099135 -0.949205007289849 -1.7123120251039285 -0.9729853975388985
P 2.5258826453954604 1.0882047251687943 2.5426044119697133 0.6385604666885454 -0.025736485534155678 -0.9214908292040324
Ni 3.7986318822325345 7.157413290766885 8.62658535671197 -0.774771598636201 -0.22756114171656291 -0.23571308139973599
Ni 1.7087253264706483 6.690761085173813 2.7004466311404034 1.111975634893588 0.2722312309304279 -1.661766450945893
Ni 9.028768937198967 6.563910186089912 1.0924477854894308 0.177336698343372 0.9803917173052986 0.8704405474954364
Ni 3.0681087929364628 7.707585209016664 5.34004010356335 -0.8270177004251111 0.9892586807776254 0.26450737992360895
Ni 3.2698769587031045 2.4058236447686476 4.111260904375747 -1.2014723935038405 -0.3404369413723879 0.2650725083984596
Ni 9.344742312657031 5.026924203616377 6.8629338348459505 0.5958241041622835 -0.4571138599418579 -0.02752314512093324
Ni 1.9791911060511787 3.3719149138381126 10.439693907121871 -0.405573783081037 0.5468916401276387 0.4958043345335203
Ni 8.924826623794914 6.84674960388163 11.105661127312349 -0.8133360891729606 2.0652818088360045 0.10425489075603336
Ni 4.799179840573939 0.5347860167864219 7.9143891359597776 -0.5988927157852783 0.5058483490330837 -0.7046956677547218
Ni 2.5932762897541894 4.414161751518959 8.195939594016682 -1.369150742821842 -0.8403056757832689 -0.6210905920385562
Ni 4.6223184295083595 6.100316211017573 11.354011960176388 0.4702727659213191 0.9135147529770912 0.3889048070657883
Ni 8.448652626856614 6.293950984571098 8.669204519530199 -0.828596871986773 1.1249825886762173 -0.822008677246294
Ni 1.5660485534957156 8.781071027170029 3.568727057567628 0.1830059808140074 0.49659751985877704 1.166067017421353
Ni 0.5419428390694502 4.15803963594518 1.4638539344045838 0.12054102951056661 -1.580678485224626 -2.349528833280386
Ni 7.184365119865247 7.7097616184670015 4.104272003339103 0.5581073063378001 0.08205521473054256 0.3058548325221442
Ni 6.9918466942625415 0.36022765968660864 2.9895347831341454 0.9008618400997711 -0.2072741093327527 -1.0967500761930853
Ni 0.8803998375000309 8.899432053182569 9.763373732321943 0.7941173501526646 -2.0043723749451416 -1.794219144292381
Ni 2.3753351503134876 4.4574647947205035 2.8911310565381925 1.360647076226205 -0.44727604791582964 0.13591802618726914
Ni 2.8736953901399276 9.003796514971388 10.801716166497487 1.0021712750742353 -0.25972538515393334 0.3236664067822684
Ni 1.472941381967265 5.93157881108989 4.78830811250499 0.977029485701285 -1.6001808169236118 1.106660393328262
Ni 3.6789012192383166 2.528593776133165 6.655416946186348 0.2827511566251453 -1.798058315532813 0.115851080234065
Ni 0.6339289721094726 7.7271072265431835 5.830028671866164 -0.9012169094463448 0.9583951584295495 0.23861431420693097
Ni 5.862365238139068 3.2388443618853597 5.233577095248496 -0.4713809113838333 -2.7124698692925606 0.6304663768265013
Ni 8.733677835173884 0.45512849279654444 6.396383882972742 0.2765576262199237 -1.2907400668224223 0.08241696894533548
Ni 2.0174096064851237 8.979077381774665 7.413375928061977 0.574752628203965 -0.1403817183855776 0.5067562055593337
P 4.006535271191076 7.3819493260851194 1.747724332362646 0.05045301444422924 -0.21023961971897986 -0.7054464298778174
Ni 1.2111061915863492 8.566028639971371 1.2275624737319621 0.2895422114050497 -0.2019359849492909 -1.2481872810618762
P 0.41998604692624425 3.4324228489875845 8.706014920574077 -0.290840361391183 -0.2478340330329861 -0.5612610214754334
Ni 9.183481629677274 2.3003240728785768 10.741043124424197 -1.117601722831114 0.07390301793705337 -0.6100752147646591
P 2.7684866315815824 5.9395058196482315 6.708799016601008 0.06190393659364823 0.3412401539999736 -0.32744978508410055
P 9.26982504597429 8.238075631461236 7.8759858283440565 -0.14292942450809576 -0.07473399847878097 0.30837039985514636
P 8.52262240494244 6.207767046552774 5.043221945590823 -0.20743120373590726 -0.645747728465604 0.15795135183822476
Ni 7.918893928278966 3.8214654193106457 5.091647993968356 4.587364831469454 -1.6054222678282093 -2.434009369622969
Ni 9.331571283052401 5.223326394358911 3.174026760781211 -2.0510350691090036 0.307927913001089 1.844961150731939
Ni 4.20640845976389 4.527466377989552 4.764582435173746 -1.710632066298344 0.3343519115205726 1.639188308535061
Ni 6.235544410270229 0.7624722171625147 5.70192633734832 -0.18046290267717952 -0.03583680719295118 0.04905356299354133
Ni 5.77036503348622 6.114369061692598 8.133110780858532 2.7989178137741604 0.5138365094448828 3.6257295688360522
Ni 1.8816842102459679 5.8462860752171775 10.871781541078011 0.2529870379888353 1.0097328894715771 -0.3352775086586355
Ni 4.973555266707022 5.658749000554683 0.23045643188766482 -0.09997246133059556 -0.29657469277179893 -0.5626661293530761
Ni 2.4489765907667205 3.29061851600783 0.49140511066057657 1.08953736049473 -0.18826671499231448 1.1630706537971904
Ni 9.085214866779491 0.7878189442912524 4.096281203469285 -0.9363978282228518 0.4191708050391813 0.07309003511745477
Ni 0.03466213481919119 5.308872419262482 12.852204382305178 -0.397435984465251 1.8576086642926204 0.29558378961343934
Ni 7.039427507763024 1.6612477047975511 11.945492505036583 0.11715205843367565 -1.8335351682831842 -0.08040816604542281
Ni 6.5380184184910695 8.48531386880454 8.543765472266452 0.28710223450498945 -0.7151559438560973 0.3814221255354979
Ni 1.4490384023144192 6.458860905810256 8.687203988549005 -0.3561877764487414 1.0266016402024576 -0.9220431021630765
Ni 6.244099950868108 7.923875279219179 13.435969930906934 -0.4268355206732907 -1.7065350134108352 0.5574365055230206
Ni 5.760937052893163 3.2507114220348297 10.632245166487838 0.9810208662488653 -0.09068512249139866 0.5917244801716133
Ni 6.80705827463862 5.130153555303941 6.20195077991825 -0.6350614523963515 2.9867422990227337 2.705480839569237
Ni 4.886864750626979 4.345933191465919 7.341649165060528 -0.6358957753721888 -0.9381302375329262 -0.23331809880499818
Ni 4.866395244503547 8.523607417840223 3.921125271878151 0.4199920153888961 1.290949868840383 0.1432191878343727
Ni 0.8401550248192196 1.0657651932497965 12.39113204025116 -0.3368967894296133 -2.2172237212553556 0.6251902160292265
Ni 8.372290674590458 1.7960162313645762 0.19737688445757687 -0.19020841209971756 1.696669176360349 -0.15044990125485705
Ni 6.1877665941901885 6.738473233727334 2.046699199527555 0.0025299655107053204 0.7601209386025618 -0.547707965381347
Ni 7.6670871073049955 4.628050266465929 1.2785035883751654 -1.3756049830876178 0.5134932671728512 -0.7337205942321622
Ni 8.070426436258723 0.9753410092333998 8.864007236948238 0.7670842572942724 -0.521334874704457 0.4503487733038825
Ni 6.434357537343525 7.902786622131425 11.021261469800292 0.9354344358683181 0.19768877963716278 0.08711488864163706
Ni 2.850936901663552 4.734722472758122 12.495289180277682 1.9605926587560298 -1.3578391744637646 -1.038285247187973
P 8.816662826543222 8.424787171504637 2.6815128070299883 0.4285702439762103 -0.2078441229036098 -0.7780286721209182
Ni 1.5344343300145187 1.5361135424783567 9.005222438404367 0.14618521244123212 0.5950286048441817 -0.9934729759692891
P 4.729834932570079 8.568936773288634 9.88231826121298 0.16767217867041445 -0.1419655179329297 0.1680503879454396
Ni 8.364204187753428 2.4778609213597784 7.012977566188772 0.3163621598113713 1.4602102179335237 -0.6071269307696124
P 7.045497063428406 5.960322425554694 12.627922574125325 -0.06423181339587648 0.4354399745128501 -0.20909625014315605
P 8.777853318370608 -0.08019787392237504 10.975320468247734 -2.7422897808674707 0.7616558871898496 2.6548157091142017
P 4.599222222324173 3.298573667791823 12.500904691902562 -0.26706022825244974 0.00536794918013269 0.4558913003886665
Ni 8.636564944527787 8.539395767430387 13.408042469986007 0.036652104005394946 0.6988682624396674 -0.8080861536279309
