# total energy = -340894.31864867697 ev
CRYSTAL
PRIMVEC
9.03540804605344 0.00000000000000 0.00000000000000
0.00000000000000 9.03540804605344 0.00000000000000
0.00000000000000 0.00000000000000 13.22423298844521
PRIMCOORD
 96 1
Ni 6.528299272592004 1.7841317027060928 11.397768076281153 -0.20963232515228414 1.1908719922801747 0.14969399692543894
Ni 4.629661841797213 0.2730310613754808 5.9764147327984825 -0.7365061273970992 -0.1048794117139097 0.09272914950462094
Ni 2.7126463907284206 1.7966367076516272 4.817482679083206 0.6037137913230054 -0.826679343249086 0.05436109124938379
Ni 3.3759718481500007 4.488013747482802 4.8525003070939805 -0.1798270688653935 -0.4292796113384091 -0.5858726493765264
Ni 4.962092580204802 4.590592736750615 2.5936157302143443 -0.0645665710274759 0.008511637015436955 -0.14284843475851527
Ni 7.345560979476784 6.194594541628546 2.680128860165932 0.5507945747264708 -0.6320028680756857 -0.37040571982033627
Ni 5.004558998733712 4.507719972761856 11.507304329861148 1.1806626558473408 -0.1840292798721992 -0.39468156164856544
Ni 5.630875424177756 7.798867408752408 12.371772430415321 -0.5407150790032818 0.040896481104045694 0.0046177012776694665
Ni 1.806548550444439 6.359526882868277 0.6977042820727818 0.5876215137468331 0.30897229510520335 -2.2678325445511587
Ni 3.0258497804914315 2.0258469428093715 0.10615881799571773 -0.16913333659697324 -0.8967046233982878 1.0261306141033104
Ni 0.7295649384593018 0.07520893075551997 4.72299489785638 -0.59019056002559 -0.43303085085072524 -0.26709879479986903
Ni 8.395357951736042 2.415363390209653 1.2683625930193605 1.265068115977615 -0.46752322820064 -0.11472030906373146
Ni 6.862564198863714 0.6810719026625652 4.901879716434906 -0.13053105084374295 0.49495587049029593 -1.2011170670469506
Ni 0.7016274563121974 7.312319712717665 2.4964841885488895 -0.3176991334552399 0.12800237088461827 1.0760616946057984
Ni 7.609729208951199 3.560041183952333 3.6219716788206 0.9225881760332691 1.1455537279593497 1.3557025877367361
Ni 7.605030796688426 4.014883632621555 12.701624463323304 -0.3230382862799662 -0.37903485625024397 -0.5692851773314904
Ni 7.864094020531175 8.592393098301986 6.752650265221056 0.5731600869058645 0.6774340038252914 1.2690047320278595
Ni 6.924772984304468 0.5255363859483817 0.4081438449405375 0.03963175545900917 -0.10330898190299628 -0.2003760966613388
Ni 1.684498256510711 6.52245336348813 9.298302434559046 1.5358101639570259 0.23823893314538325 0.23838805712873784
Ni 0.051829812044125186 4.8982393504720765 1.4675590092261823 -0.30935513236591883 -1.0540304258373718 0.14420777699988713
Ni 6.469876323186059 2.0690904064432787 6.86315240393738 -0.5697410339219865 -0.10383348694789858 1.1671191128349512
Ni 3.5107439968260064 4.384946846172317 0.5087657647927412 -0.025264430993743585 -0.24910775753908712 0.08449776273376414
Ni 6.106797480172074 5.57487396416878 4.502891450621037 -0.7345752289229736 1.4338978052912401 1.0648740534200951
Ni 5.306287420085719 2.9028598041051485 9.062355399049142 0.5957225455874127 0.41376814596637124 0.7756663425363286
P 0.1736930730281619 5.524564811324318 12.556502254556902 1.1069938654082805 0.4912185149350507 -0.2647128110661957
P 4.0698731269123956 6.078688325269215 12.564978370987108 -0.1264136862412597 0.9804390256034664 -0.4199804454246703
P 2.3602654710204414 8.379672483104937 1.511027454524211 0.4625221754416227 -0.0770446488898286 -0.6632952504310641
P 6.223950582862681 7.6001516762617 5.789265226341574 0.7273414301786958 0.08178884844303334 -0.13750079729335674
P 4.931444475598405 0.976799909430519 12.658725248741726 -0.6024130702337109 0.11878702293393736 0.3403698355798783
P 4.042522946298138 6.0814712309940875 8.209630618529442 -0.09703163353471676 0.4825731805552269 -0.14856194020352478
P 4.753645713085236 1.2881691113294083 3.790739550840228 -0.18198139620423498 -1.6610650540034941 0.342204831906088
P 0.2858035144036654 5.4003911964641444 3.6714965582335073 -0.6431910234820213 0.5037187042845906 0.21162698698480975
Ni 1.2927952403266003 1.0435083281536988 2.490559671393697 0.7117752003093226 0.8851313167383917 0.1131236540005729
Ni 1.7777255982939657 6.4894650881585445 4.842528830607065 0.06049780027474097 -1.4501916573552573 -0.51372312379547
Ni 6.081417018544902 5.477562617880192 9.113929509041274 -0.6626216214028072 0.23788617779165483 1.2154501958401713
Ni 8.50146978560913 2.3262381237481273 10.125451588634505 0.7989564234125208 -0.3203463412700999 -0.26199361236281976
Ni 2.381616140591466 5.18450818839792 6.949480308020916 -0.6660668996389303 0.3104486225404137 1.0864288967727354
Ni 0.8742064635095902 -0.13448934039941954 9.018080995339883 -0.9142549735772253 0.6754061747619853 0.6258383911361868
Ni 1.4338018206589778 1.1251884182603689 11.426424776920788 0.7707267391428662 -0.12598868288869913 -0.4543342403141917
Ni 4.136708041350342 6.73888753145441 1.3672795313446693 -0.31283126383997734 1.0273963681896112 1.2335931852977853
Ni 5.6251831170132425 7.696938968874825 8.010195667546201 -0.4870283881131031 0.29034053893662903 -0.232263946508871
Ni 5.201458614176694 3.011058817271894 5.013783246962683 -0.4950782550007731 -0.9512965997115552 -1.335529198112655
Ni 0.859717282923854 7.368239854052861 7.1265264210312225 -0.40934173476390145 -0.5461280224887368 -0.46626518742382284
Ni 4.986488182338431 4.5412503725833 6.80176493710179 1.0937668251950452 0.7354445189018044 0.9962790779595164
Ni 8.122651261514855 7.350792480823218 9.149357344584221 -0.12304862642376872 -0.4790754518146137 -0.3831151969672047
Ni 4.561390297455842 0.5168551657520887 10.559774625286886 -0.5133084048555547 -1.6831626572334821 -0.9664002881222131
Ni 8.326643672392985 7.138198361340934 4.752948179572378 -0.6789077601573404 -0.012596862828404113 0.4258484741696731
Ni 7.214719233366752 5.981304695715045 7.084618390728926 -0.6698582483605625 0.7129355391660109 -0.6144162653421741
Ni 2.3405140687003994 5.135789267396243 2.669576406931908 0.6303715031198498 1.1368220045133066 0.13710870406126063
Ni 2.33120759825683 5.25014139354558 11.437916912607369 -0.2696968945443484 -0.41672157216774036 0.38757426117982285
Ni 1.190080719935823 3.338818249641303 3.598234757944579 -1.307668981367277 -0.7358885484177584 1.2561235051898174
Ni 3.5264927133144934 2.674516968134378 2.6861726447093344 0.08661789440056052 -0.05655578490785743 -0.4877758078020889
Ni 1.0013852551362987 3.2763022603218284 8.18076158579716 0.2471138670375099 0.21818741381114679 0.030855809038592016
Ni 3.5652546144823716 2.831272264955243 7.24317715502604 0.3685640386259072 -0.7184068466932273 -0.3031909125367359
Ni 4.135885819204357 6.653963729804787 5.93368719097266 0.1474836195376815 1.2219134349670118 0.3056956812364606
Ni 0.9271774476090774 7.450191006405461 11.624207151744681 -0.23160960075432369 -0.052955469151108804 -0.2014425902526402
P 0.11605439705377361 5.564447103108703 8.244343753283957 0.06220681254604771 0.19487753544061276 -1.5533119202862151
P 8.48634451228628 1.4864059671856407 7.862586914443808 -0.46295772031714455 -0.290814393249254 0.9854398212521674
P 1.6827273165039736 3.1030754143566646 10.40107129445861 0.5303576470283576 1.1445777371993255 -0.14063934292233843
P 4.054531003792802 6.312551795648743 3.74462644156275 -0.7589708841585187 -1.4163507975464122 -0.8066229388188431
P 6.967411075589133 3.914816486832687 10.522125886408958 -0.6671477914079349 0.1883595318164369 -0.6589344023592072
P 6.273636292541506 7.7854588629871095 10.190633926913103 -0.47886590690696884 -0.16541037921943127 0.3883656467328666
P 2.410674013355078 8.158964567061172 5.825089716304399 0.7486725875563041 2.3340747035088447 1.2960550512774323
P 6.829051869858665 3.9509671550314462 1.7132651891303587 -0.09157009619951326 1.0164717508573073 -1.8290388230747276
Ni 5.4606392983260115 2.8848883772000415 0.32153945736615336 -0.2672080666842237 0.4097081169643847 -0.17937558315027172
Ni 1.4443100003928335 0.8451232916030249 6.861367007277526 0.02184974888523979 1.0216247558131566 0.26656503378358604
Ni 6.576665812673973 0.695046064981036 9.087984334401748 0.8562442013903964 0.21673114098059448 -0.2458486271718411
Ni 2.536130656179316 1.6323368449857323 9.04865500959906 0.9789465002183397 -1.0767978014408743 0.7983887238345089
Ni 6.356879508266367 1.9105280279828856 2.4252056603593433 -0.8048887297365557 -0.888968688206611 0.9841221308820083
Ni 4.0270091504227885 6.780974462839019 10.41838132948365 0.6816457279137937 0.8702826817613335 -0.26421581682511913
Ni 8.149522565494639 7.22744108810903 0.34881283701073124 0.2577366368586787 0.3413705089302508 0.7771596392524035
Ni 7.773550194982619 3.8969896264587423 8.30606191605958 -1.1681856064262526 -0.7472032020996293 -0.30401083733487
Ni 3.0904890907373512 8.520823629968476 12.660272110625163 0.5695476869642578 -0.27511960822181647 -0.1672949978366538
Ni 0.09382819642839775 4.99491821818683 10.312164684875468 -0.3371783252257741 -1.7177799901970352 0.6658514411940146
Ni 8.58725195103753 2.4446381127700088 5.85882431635111 1.1951395093072772 0.2089232149004015 -0.8507145298214187
Ni 3.733755941960169 2.603516730517319 11.142103973002357 -0.5110445485220424 0.3665665485799042 0.026308041766909533
Ni 1.0116765850734113 3.3369117785116007 12.504358913848318 -0.44368421679951325 0.29967595740494196 0.49897013385601163
Ni 3.1593389012033715 8.259393129177946 8.0980442308294 0.4228266566242137 0.009275511764654994 -0.056381207003206125
Ni 5.381010245880206 8.082497907484541 3.7891529331607225 0.5458611419805954 -0.11404925113863584 -0.7106287454097052
Ni 2.901143076547597 8.241846366458129 3.562608143421282 0.7439139898253962 0.7689837883098305 0.4587161714319713
Ni 3.4234348474122056 4.375360278074621 9.292866732987346 -0.5641362861406994 -0.3546643978256795 0.356748791158534
Ni 7.461024460834432 6.310988670030552 11.478713587701355 -1.0387724712370368 -0.3862041203051736 -0.7561298151652979
Ni 0.6691569098723367 9.07606753452988 0.3874590849536791 -0.3269792732055853 -0.2614374827490336 -0.10425874741077529
Ni 4.589987364401373 0.15776184129408216 1.5570348495257766 -0.46760910304622694 0.5323967889455734 0.2687993224307435
Ni 6.135864388343883 5.728801178223784 0.5120962162543915 -0.15379182114389645 -0.41627240044546376 -0.3702493967481301
Ni 8.011569953133062 8.923649233643884 11.105948787099498 0.2648529361884858 -1.2013842046654084 -0.35080568620122166
Ni 8.945478779849383 4.938781227054888 5.997189846867317 1.5274111412600533 -0.832715522140837 -0.6982740804990941
Ni 7.964847857343064 8.882248993282294 2.6098550693679634 -0.2321176507389938 -0.316205579628849 -0.03007085124345144
P 8.543891027097052 1.597740266996967 3.68071448167674 -0.019531899385340556 0.1795164796035102 0.024631682505751124
P 1.812647450977846 3.337887602596946 1.4993898487656503 -0.5808338014010385 -0.9036396599552244 -1.0227231310836582
P 4.563070883380602 1.089823830574804 8.109734241955508 0.6752665638603274 -0.7246913941503583 -0.1335731801041764
P 8.606922034683793 1.444002796514114 12.377908376122338 -1.1095762814234762 1.7526631752274655 1.033654433284181
P 6.306470965931731 7.715985609355451 1.6151948685531687 -0.23044180569846764 0.46279882614177714 -0.8456386579604082
P 1.8348835905522396 3.2274568436053834 6.15793066224416 -1.2947941822871376 0.08754631975210084 -1.5633981008776237
P 6.884908763336479 4.0750052387686555 5.710567724480946 1.329681481082626 -0.9082031109561907 2.2761822020674347
P 2.5079311471944803 8.514887366782627 10.43308645632531 -0.17625297836089002 -0.44918612045434897 -0.7062542704910933
