# total energy = -340890.2490617278 ev
CRYSTAL
PRIMVEC
9.06001323295221 0.00000000000000 0.00000000000000

0.00000000000000 9.06001323295221 0.00000000000000

0.00000000000000 0.00000000000000 13.26024516660068

PRIMCOORD
 96 1
Ni 6.204804503031218 2.228509603799331 11.236744977799695 1.0190721645946321 -0.9737248468080844 0.23540712012354295
Ni 4.770984910239865 0.4388588926763866 5.8757339461323985 -0.7367048736714668 -0.1882104078330823 -0.18540122051906135
Ni 2.7951137787135747 1.9699911828619474 4.192412457689879 1.6233292300156175 -1.921436814492175 1.7495739947791804
Ni 3.1981122325481492 4.498776809130183 4.676835063506245 1.821598050525966 -0.14908233148336905 0.07495331357843865
Ni 4.123646956361122 2.9209301841091535 2.4487558103410536 -0.4536079036711285 -0.5662507613805409 -0.4306883187604776
Ni 5.0905044010648 5.037539563018963 2.3992428373816788 -0.03144304900062972 -0.39454040808501084 -0.3135959099201438
Ni 5.172261961537884 4.290505222233548 11.488822635246352 -0.3325529106386208 1.141962925284298 -1.0437691531206799
Ni 5.698476596936502 7.909989615690675 12.284476631674803 -0.5394475251447678 0.11959872020195533 0.7594005154967696
Ni 1.9471599492191982 6.3808677424675455 0.29894601250908026 0.6963256985234718 -0.026200569654767778 -0.43457351274749667
Ni 2.7746834486086542 1.502159273492645 0.20728313944011723 -0.27818384896943704 1.7306167369503873 1.283045269281326
Ni 8.037880764143472 9.15768029421352 6.844010188926734 0.8645403799609175 -0.42325500241088404 -0.06323602514151044
Ni 9.024289717657092 2.594063022457127 1.2785354939739317 -1.4040100165928722 -1.2455670698302097 0.19240104887566217
Ni 6.858375746094965 0.8946736003378547 4.76670042992651 0.12897270521768756 -0.5106709672327077 -0.9033936053826893
Ni 0.889322756453169 7.402991268608037 2.5925237261889116 -0.2652627700323948 0.13937975948362447 -0.45763810787644404
Ni 7.656662582403012 4.114315142610316 3.8954225020631275 0.8913431019760585 -1.3446982662064324 -1.1753638693422468
Ni 7.783520889333874 3.778840968275507 12.58922377073208 -1.2128014453634146 0.7987098546193535 -0.44748430727189387
Ni 8.493481655489873 7.161387892595659 8.95017518444632 -1.2440436912071478 -0.2632028021795725 0.42427753013812736
Ni 6.836631714054252 0.8292421839220075 0.1613715217874856 0.8862111800661319 -0.010839513817665203 -0.5347668318396468
Ni 2.04595033479084 6.726344171541083 9.019473414560075 0.0786706145290258 0.745546897443129 0.45539482036822215
Ni 0.03366972761370991 4.994685699872057 1.25289203218725 -0.2658135003295422 -0.6423620998228228 0.7045249465048125
Ni 6.53947233617785 2.124382870364364 6.9188513352082 -0.0221870776200005 0.47959687153572245 -0.06831421099536622
Ni 3.5393213953336966 4.018387721257367 0.18391917701237054 -1.32549058292973 1.0170505061789128 0.26266158496412184
Ni 6.227527016513763 5.7235818939301755 4.626910765940767 -1.1113935371378731 1.095767400564842 1.1935500533329702
Ni 5.847993997256458 3.2585968816747344 9.041935905659466 -1.0961242696836284 -0.018618900652767934 -0.1913432970351092
P 0.20994678336510464 5.729063202007105 12.40777072935366 0.1056186038727794 -0.061688992369364724 -1.3718213476754697
P 4.13211806884365 5.940886314137057 12.539484297438948 -0.06338103535980696 1.3403325330385691 0.051742936900246374
P 2.323159563269887 8.357889495689323 1.2832693509494617 0.9622620975841235 0.24881053801364245 -0.29964253306384525
P 6.591114412274544 7.872444920367043 5.7016403535984255 -0.2568830306091318 -0.4348241953057221 -1.1025348011956624
P 4.802604356832402 1.0558448958302988 12.604765317633179 -0.43868342115081216 0.08840403976670581 -1.3698153729890346
P 4.138804358696169 6.278571131729338 8.18226113689381 -0.18010423378618015 0.09264224621776948 0.10850878093638086
P 5.001571310018282 1.299513954886545 3.67547436996063 -0.6183215139338514 -0.39291444244581364 -0.4283545284209784
P 0.4836434446682413 5.4657792140474655 3.3980440771558356 -1.193597361631138 1.27778710620618 0.8410708360840675
Ni 0.42328744773123067 0.0921838238366051 4.559774255012394 0.9059839918176849 1.4189586674829047 0.47782101058222226
Ni 1.9934203773858163 6.612849384301908 4.755163408926241 0.16659720043868081 0.37197203586619165 -1.07750074104517
Ni 6.223549670652983 5.947953124550289 8.97794231336231 -0.16368619743947294 -0.28954966760421746 0.16888625358317366
Ni 8.702831383975193 2.5053292517043153 10.281968154897305 -0.4989943022257277 0.5328945545175984 -0.27946940055007996
Ni 2.4452523031784934 5.682213872972718 6.885541290124497 -0.06188002533424826 -1.4559105621169055 0.2528271153722033
Ni 0.5577190198216072 0.0030061124296286486 8.816458447409282 1.073882941786925 1.1427298853573091 1.0100200816946927
Ni 1.4155727259038535 1.1648912165144771 11.262893988331324 -0.5317923225923551 0.4220620105440473 0.04370618263869892
Ni 4.2159231923339 7.133501171503443 1.2171819895670533 0.3197521593295267 -0.6545136475836921 -0.17856285744098926
Ni 6.096664183682068 8.136390289301255 7.793404457897714 -1.430412160735485 -1.0252965482377892 0.1511430706671397
Ni 5.368592450838825 3.1107555838245826 4.937107503028247 0.28253698373181024 0.24347986982934844 -0.8215510208835851
Ni 0.9861733931665124 7.626338717719567 6.647586381488283 -1.0423175082758178 -0.06310618443186551 0.6493935527483075
Ni 5.162341246919308 4.7979565699837 6.91475349116986 0.47710007325579773 -0.6555464597235807 0.011993424916450312
Ni 0.7551702327739817 7.666320556634429 11.10973808664989 1.4292860175508417 -1.6197201725081203 0.15650716319253047
Ni 4.595084751043843 0.4675863830075094 10.350496283876284 0.058264025848215786 0.7745417420135822 -0.057237641466230456
Ni 8.500485045809652 7.192364078240325 4.591240587379311 -1.2136766488795163 -1.474802513925402 0.7048368213182764
Ni 7.590270804572033 6.127957469793996 6.859975744452628 -0.288582932815574 -0.14202542463658765 -0.303878939742696
Ni 2.420310086425125 5.163111348054083 2.510323131062999 1.0820063422250075 0.4137887147916615 -1.2764665876225436
Ni 2.6532158496212186 5.548986376656596 11.020271360817038 -0.723886895971192 -1.0760642657089596 0.9646277696028225
Ni 1.1639217950859955 3.4182886769870753 3.529850963378631 -1.9909779559161065 -0.5460120657361629 -0.48148868924179655
Ni 1.5267572097387023 0.8776253732166002 2.5386737248387496 -0.8911510405699103 1.082731136206174 -1.049106249062877
Ni 1.4072465736349302 3.4653826263819205 7.944385050373744 -0.5456953058266925 0.5733464918850578 -0.9879471610550533
Ni 3.702573775892704 2.839824944597292 6.617193660703376 -0.3255343132289426 -0.6110743454531348 1.1020576044489279
Ni 4.371556101665307 6.87680381324947 5.902307871290156 0.40523851122880533 0.9402981917185225 -0.2602378060139776
Ni 0.6753433611458471 9.191564744143632 0.13752194264416293 -0.7261576942832397 0.2010039600533248 -0.008552774666017528
P 0.4202650272775715 5.489724829332302 7.899897666819779 0.8423049656014849 1.468733939133819 -0.7176473428193834
P 8.790106492578607 1.8846277370754463 7.934612919974113 -1.0556391650853882 -0.6659028632572402 0.9707914752113731
P 1.7860094917574598 3.378488038339219 10.079523968587582 0.10508587129776095 0.5945421521260664 2.358826713642544
P 4.141975363368774 6.283526959031951 3.7377846117772995 -0.6203251746274413 1.1716316559933242 0.436201535269223
P 7.109854536659167 4.414681765212722 10.323631532289982 0.10379594884174381 -1.8695383258506708 0.2764426979086142
P 6.562058949460142 8.055004189375534 10.085251709027638 -0.7543588393078041 -0.8971699930704807 -0.18307437215809763
P 2.4988422821455023 8.761078209804255 5.338137215961802 -0.3084634737895849 0.5027563403713212 1.538031854198693
P 6.934887558838226 4.126002559832199 1.7232217872372295 0.8780245304902814 -0.2007676756728026 -0.41194831914881314
Ni 5.48601928387203 2.907657264550968 0.29540264128777893 0.845810664761898 -0.2056334884055362 0.5848616916135089
Ni 1.4537788022020572 1.1659693581031625 6.8852232836559 1.14872621215006 0.30021434640691524 -1.3228300053784314
Ni 6.687404234161504 0.9641938007786911 9.011053038152308 2.143675001333927 -0.029117743301562755 1.8264270964834932
Ni 2.6026972151799606 1.6773889917007454 9.105929497956621 1.324544674076693 -1.5786339439907717 -0.8612180004559039
Ni 6.900948748828012 1.9968813024856298 2.20973997414152 -2.9767162822452993 0.908025704838062 0.5143404456644949
Ni 4.428978466279491 7.160971131981546 10.307493836510432 -0.45304046120343267 -0.9186155645387662 -0.37114542619983826
Ni 8.51930269353822 7.172042468295608 13.767449514895523 -1.3075198573839224 0.9399107264721167 -0.24708249957894224
Ni 7.962474273028947 3.9190084348179566 8.284590363680078 0.2223960525758557 0.055362793041020784 -0.7094930891433652
Ni 2.9588100999267466 8.631619679041856 12.398740614047417 1.2560402014473915 -2.0719998442861285 -1.1279401286426447
Ni 0.2442362158919749 5.16392674925561 10.154510075082651 0.10522908174384459 -0.7217161135721183 0.7283022514300683
Ni -0.37791037086626655 2.249773455132479 5.631069191608955 0.7116610433289614 1.3291078679673434 -0.3396800086017053
Ni 3.5111538138276224 2.5686587450228933 11.365196941078876 -0.048814193289225614 0.33893413157461627 -0.4438544238287904
Ni 1.054304693560748 3.636870559076348 12.603968942459687 1.6578689156636994 -0.12483245779706889 -1.0405830420832143
Ni 3.110211983023565 8.450754632529872 7.546697576365114 0.9222495617469277 0.3976295885332958 0.47386922502332585
Ni 5.661366782253684 8.058890935102811 3.2199060946622895 0.0726336643063265 0.004279601211960372 1.2741515663361218
Ni 3.21549839816737 8.352190747291987 3.3806071754618534 0.7461467358106569 -0.08792941412313243 -0.2985829814510793
Ni 3.6232533590108513 4.018822601898182 9.10896641443164 -0.053862297236094335 1.1116799580300403 -0.390591707849908
Ni 7.153351660753946 6.151721884811825 11.423077742368587 1.0816191340889179 1.0705831879897305 0.22038982077910427
Ni 7.916603425436392 8.930871920002177 2.523027081782786 1.277027088111704 -0.5744494951412494 0.20171487007742034
Ni 4.638908035619231 0.4221649120771288 1.443072584426011 0.16658305937129378 0.7601628475840908 0.6145373643010708
Ni 6.0812259209331625 5.359668337688784 0.2306244518344882 -0.14991305491478055 1.7386192955398896 -0.06852272746174651
Ni 8.025196745453055 8.935374746637274 11.325363686382959 -0.5965296148697403 1.4033723830088733 0.3732388183937572
Ni 9.34449776949665 4.835619045480886 5.539454336610748 -0.12339212580611654 0.4007943594145226 0.8682687366550982
Ni 7.390198529757418 6.344183748412191 2.628499227200272 0.16210085523022405 -0.3480381507584135 -1.3377578303328572
P 8.502115848212705 1.845923360042976 3.4433278358832915 1.8101916084612375 -0.8738156346152564 0.7643622303774191
P 1.9304261045611992 3.0831587831595773 1.4735975814058329 2.4615584828858315 0.6833002327980813 0.051540848191769295
P 4.859609960832473 1.1864721683148853 8.044327869643544 -2.0018344390146363 0.42230112313804685 -0.49153501773420505
P 8.55952009280019 1.7910830992336264 12.46459060308005 0.49893902350776004 -0.36756979303343795 -0.9146825480329472
P 6.498213035380596 8.041713149790647 1.1747847510930018 -0.4383247522598129 -1.7317343954945983 0.1419053541189556
P 1.7897150372177315 3.2914575500962626 5.646027273650296 0.02339343922327584 -1.4718951104706197 1.5301640214148422
P 7.184391266492064 4.033608543685867 6.071999203337219 -0.9672204700306632 0.7127774163215919 -0.5189681742444933
P 2.5396938823419926 8.704190385977737 10.116294032769764 -0.48546078651566715 -0.82766330442891 -0.37782515221285895
