# total energy = -381170.1164158313 ev
CRYSTAL
PRIMVEC
9.16740295227266 0.00000000000000 0.00000000000000

0.00000000000000 9.16740295227266 0.00000000000000

0.00000000000000 0.00000000000000 13.41742087593857

PRIMCOORD
 96 1
Ni 6.49585674222122 5.520885099914881 4.157213737545755 -0.45126022937455834 -0.17268351584207678 0.7023917022118935
Ni 5.364865068505865 9.242392341849765 9.748789598621576 -2.082841929206955 1.210432688020922 0.01880710540417406
Ni 7.976300650338142 4.029999519797554 12.693484114221958 -0.9578691107227504 -0.5353846679293037 -0.6312942720444353
Ni 2.9250616053667877 0.723243006989148 10.58111186677315 0.20123818755131792 -0.0858974712947682 0.7645715181747477
Ni 5.178895131543452 2.273066737640095 3.500363813197979 -0.5240934112862006 0.30742397678147704 1.5039320843015067
Ni 2.2015609943537493 5.398601111492243 6.964003926776627 1.6707650549000774 -1.7191997533626973 0.05976940674914868
Ni 1.8322888346976853 0.43000345421363495 3.187750787693359 0.19119545860333523 -0.9685057645009902 -0.7769796620311133
Ni 5.009206502283162 9.037757572409019 7.487766078283439 -1.4547193700222816 -2.269316842406169 -1.561591386686188
Ni 0.6748262848619035 4.889764408786009 8.941410000512757 0.6785699172019475 -0.7492392586930515 2.9892041302996644
Ni 1.327339110857273 7.838587922691028 0.6343687020066086 -1.943079589572931 -0.2940228728842227 1.6002713197548892
Ni 6.242323045256197 3.3734209505781467 5.440160616186386 -0.7895703542119306 -0.5383388654616212 -0.7206457633260751
Ni 2.329482935612425 6.31259118913951 12.649877528441168 -1.086612216428135 -0.8420982489073175 -2.994610903137533
Ni 1.1186065122820412 2.7424469378970424 4.876668773621323 -0.4268002965599811 -0.4693122017802627 -0.841865564071221
Ni 7.083954811139473 7.584119150621492 7.216492539801313 -0.874066831394114 -1.9323580893903687 0.3629412931224911
Ni 4.698028175345763 5.5001759365707965 13.013046947929832 0.6184624103870897 -0.4725800738982571 0.025284999819033874
Ni 9.060621075454678 4.822805697380436 1.161883988295654 -0.21802106343661162 1.6136405419729434 2.8087872503690723
Ni 6.447342845622329 3.7795552376386206 2.5980282549660876 1.9569892576754877 0.1766784959340828 0.12466507898126918
Ni 6.183064952358384 5.90781367772088 1.563545499439537 0.8716931889556149 1.9551072101614266 0.03679480023084631
Ni 5.285814552562511 0.01893527086640351 12.14318233107233 0.9949783568702217 1.7961140473222486 1.5688087303702336
Ni 2.9412420716360694 3.7929579808033176 13.141746284961672 1.4883859090367917 -0.1367978576890612 2.1407601416799777
Ni 0.1830097825384168 6.7578611195447795 3.1326858649210814 0.48238086203876285 1.791008350664567 -1.4046355659920131
Ni 0.1834635689861955 0.08471505424805043 4.772509657641178 -1.1063654877956626 -0.20377380948897808 0.17503453257275664
Ni 6.472048996668061 1.0368516124579856 2.2956937216887305 2.6692997616629897 -1.2624959843750643 4.57117305220094
Ni 0.4475361124232678 3.515524864255281 7.012467402659098 -0.13620778951354606 -0.377981218174749 0.8957607714277798
P 8.720327076635556 1.9539677745232837 8.26950536698231 -0.9015876625222021 -0.6130417535921507 1.3780411033329365
Ni 3.183362351884234 1.4223225731893026 8.464514363288355 -0.7091593599530303 0.3296005128785162 1.4143839036280286
P 3.791298680862955 4.808339535469429 11.183434078163593 -0.899717956303315 -0.3106928773407359 0.39196930492372495
Ni 1.3917951212478241 4.183810207087081 11.749447873289947 -2.2485536417168888 1.7551522601979064 -3.0121689666259543
P 2.6496636522815162 7.408205854734096 3.184343264003675 -1.3150488187711158 -0.30747128507964466 0.09229771839415717
P 6.94497698188037 8.753659753890576 10.901775705579574 1.9127032912739186 -0.8398572753919407 1.339822683281686
P 4.965285474579972 6.866999052086312 7.234270884410955 -0.5172113394543866 -1.1952639507002836 -0.15296701124975592
Ni 4.013589868453637 1.9473030725528768 12.372136387152821 -0.44732592731715864 -0.20013698406733918 0.9305933057259328
Ni 9.103680367277239 6.015613169426539 7.208495814177122 -1.7048527406124059 -0.3892439355727619 0.46101216655499955
Ni 8.247994972617299 6.787132637277254 5.2833237691713695 0.014659916005019914 0.2813190521643091 -1.8056075886349807
Ni 8.767264179920952 0.5513037802959353 2.2914409634437902 0.20042314784919033 -1.658979375119059 0.0820690986876135
Ni 6.070736763577924 1.7803463293822448 0.5263858622412408 -1.6565293709166697 2.7445886042039764 -4.719681770569027
Ni 7.050264605168022 0.31812171795856437 8.264688813453766 2.3465962330146235 2.6551602369378142 0.572513454460801
Ni 6.822436306174142 2.3162543731044507 11.577383053175835 -0.9501113211542023 -0.6044882075951847 0.5035317850847651
Ni 6.936817993223338 5.088962908256395 6.648600343803243 -0.1779023410388549 0.9779399133306965 0.7855465777645181
Ni 7.938228425739656 5.938432803692213 10.747662493991527 1.3194523471554502 -0.41961432033450313 0.16526794010429602
Ni 6.010891956889043 7.821307368063494 5.136014604079109 -0.5252054134034567 -0.5882565762276708 0.828837013022037
Ni 5.1310229531535425 2.0288654569142386 7.757549913780434 1.1989221162781611 -0.9791655582076816 -0.9716440530196556
Ni 6.649245728973417 2.9235673186801625 9.011569052300544 0.7303488495464517 0.5235172270677564 -0.7248880835421967
Ni 1.8621195640122712 5.134442394467108 3.722717339128961 0.4513682157073324 1.043043330698249 0.9008518127974422
Ni 1.4637959042953832 3.1152852173144385 2.503770850950504 -0.4877614096243858 -0.04044396694765938 -1.0585691942479898
Ni 1.53650257737282 0.9806554321573062 0.7933919746336503 -0.23154969405066572 1.3241561803890227 0.07949388176126955
Ni 0.07846288541198788 8.223701354705915 6.991482300485153 0.8368439424869136 1.417219573304611 0.2979836573041835
Ni 4.123232008159366 5.257725629815156 5.525347791688187 0.7108251776912274 1.256188811210114 -0.3791479847893406
Ni 3.451142193088614 7.977437408308335 9.205035174684141 1.2400170865462579 0.42891014381413234 0.6760270961754358
Ni 3.373164263294555 3.5020304470607297 4.058380882700144 0.2729408554029429 0.05284362616359286 0.47122355987036263
Ni 1.3088484590356628 2.5401865258295238 9.752049527123194 0.06101484912047556 0.08840506820797032 -1.2207978333053298
Ni 6.665252014585977 7.015657658898028 12.445919313340749 -1.2158268624532995 0.8337881863797253 -0.18178753502587403
Ni 2.617174376101156 8.873936081059403 7.142791203499956 0.05203064334399426 -1.7801302702994826 -1.0725287417518754
Ni 8.508065027910934 1.0750155110863264 10.42245162330433 -0.03416841835159277 0.2744215537135274 -0.5646484498904275
Ni 5.239775854769687 1.0395009919207747 5.438603991159461 -0.1227344376174596 -0.10114051349676774 0.7309546014512509
Ni 4.4653411527696045 6.3298809111700285 3.1626201858894025 -0.1701980304160617 0.3173551198522599 0.4183699064044407
P 7.47724556661736 5.152511345751388 8.798017149975871 -0.2395003163563101 -0.20882217054616292 -0.27545565140499656
Ni 5.91755862709439 4.846879297620172 10.898005152731665 0.008184849803637517 -1.2591180690417672 -0.30393267579876687
P 4.207480441595459 0.30977204731943564 0.9478425466515604 -1.0404866257146663 -0.27263206591327244 -1.9459461124874489
Ni 4.532464877428915 9.085015534798906 3.2535369882570957 -0.39183689311091874 -0.6730947530199891 -0.8476644301411854
P 8.298837389574489 7.663728878146957 1.1047215637203105 -0.5880722281310066 0.30331741081227115 0.7685371876907151
P 2.793720222794547 3.6730391823509216 8.302807791807478 -0.5759109101781242 -0.06888936677254588 0.4801126348298764
P 0.8250231818945745 3.2759164524251245 0.26298803966389606 1.516175420445234 -1.7979868388649294 -0.838968187918768
Ni 5.7338530386693805 6.960662408388439 9.57432291892528 1.012567787817211 -0.6045051768760492 -0.6850964054665556
Ni 3.662166642410203 8.053407676848584 5.204751791663855 0.8731054959221092 0.11761768521618453 0.05923693128444637
Ni 4.280627150016197 7.392722111091706 11.585996745020944 -0.7273835962705408 -2.208223317528958 -1.7465084684799792
Ni 8.300588363544705 7.809710603286927 9.552841860249824 0.6893803775538901 0.24699816739525202 -1.0525484419752067
Ni 7.90444654573835 2.490600043081338 3.9145727488080184 0.343020385828848 -1.7473278790574813 -0.05285442479687026
Ni 3.6496623047380776 7.118497585588569 0.7638206828235522 1.922814668676308 2.4482987896624477 2.2179713980546576
Ni 3.5028921829413604 1.9251362921341098 2.0039988763162624 -0.6991809085840798 0.33013555944637984 -0.35111087614646624
Ni 2.1642404968000677 5.524790413586672 1.4535494979785692 -0.28172811467726966 -0.44032815584308677 0.1508031708292177
Ni 4.884639830517155 2.2078406653987677 10.305907345890871 -1.0558247987336333 1.0543250742596553 -0.3571180015724946
Ni 2.774184487032598 8.818537464818457 12.574136444975554 0.4708831458118084 0.7866925184435033 0.9841146746828408
Ni 5.972086340051723 8.427666903728722 1.0920641304183287 0.8735729224768309 -1.992978017065271 -1.8150684769375645
Ni 4.8350533477689694 4.076872451262052 7.395226645587325 -0.33770463004288936 1.925660622765535 0.057597081688178224
Ni 4.312685558256241 4.232149923029248 1.920609428539905 -1.6244594869653184 0.2035614363678559 -0.4324194425189714
Ni 8.265348866468717 3.564332117749705 10.288692796564831 1.9748797648026635 0.6499275708749065 1.0017277597789136
Ni 8.577049735376287 4.6056482554615945 3.527910025688596 0.6470129683312729 0.07570638969437929 0.7155680916928515
Ni 3.7995585109528265 5.552026767856383 9.121431209677924 -0.2659471976939291 -0.2832810609866863 -0.18659215550336897
Ni 3.062508478327324 2.4483199805125406 6.442294356798254 0.4551762765995129 0.7546249484849972 -1.5044411627274414
Ni 1.2774226016016124 1.8401636338621687 11.9884924898365 -0.22715516452739587 -0.7082545887505738 0.3481888174036648
Ni 8.316374631485614 2.5963001995033346 1.334346673699335 -0.6835041212787712 -0.07739868979513767 0.7368254584097311
Ni 0.9989352337102515 1.1833008751502132 6.87504619842692 -0.2851057729002509 0.8346343364301045 -0.2652010635565239
Ni 1.2036066727629384 0.011303407881033902 9.066875994511637 -0.5326261313475601 0.8002581729430799 0.18018805174923805
Ni 0.6106819661728571 8.482873004506976 11.456693276132363 0.38552920572533605 -0.7683106735022058 0.5041239101428092
Ni 1.6825484743336887 7.075218276094359 5.418384367134799 -1.7486108595349625 0.13608591922370109 -0.6482728088803029
Ni 1.6745086619154674 6.990869001225428 8.456920086655225 -0.9073525900304373 0.2570267552758477 0.35832436317577
Ni 6.908454048386421 7.6509403509822835 3.0611040321899563 1.20400672988992 0.2143886088903469 -0.36777496706570856
P 7.109513530662849 0.3518834296733021 4.33512827750487 0.6654482922183249 0.37823164362265826 0.41041028523773193
Ni 8.681723142663914 6.206643512836908 12.956076122076885 1.9875244501498672 1.794804841592522 -0.5695865106219932
P 0.6684338547601639 4.954871304788525 5.51520406028481 -0.7294438212336791 0.4006038406702713 -2.443621438791437
Ni 8.199646089272148 0.8726716756516399 13.044255537913127 0.25721753113041507 -0.9364109408489745 -0.1283913787929208
P 3.13818538997204 1.3595441975450848 4.473193950166923 1.0986411225682111 0.6989801054271833 0.9141271897501095
P 1.2576301785560713 6.508306075475433 10.551178462545126 -0.8293908286429782 0.025178556148156638 0.5230726833311701
P 6.012945455157778 4.127494850547591 0.5633075777650559 0.9812772052340455 -2.2704273018615284 -1.9354624393473054
Ni 7.842639914810588 1.6395075173170999 6.170685291366861 -0.4003469874644589 -0.2151715098029585 0.26941715852040055
