# total energy = -381165.19264136534 ev
CRYSTAL
PRIMVEC
9.24582908993196 0.00000000000000 0.00000000000000

0.00000000000000 9.24582908993196 0.00000000000000

0.00000000000000 0.00000000000000 13.53220545584371

PRIMCOORD
 96 1
Ni 2.0403880716616043 7.085236067787611 2.198955890997168 -0.5755671536854603 1.202471009971684 0.253644469067176
Ni 2.035598732154437 3.225731108027201 8.688338950786504 -0.018349449041465172 -1.8252395039332951 -1.8521144739472684
Ni 2.8686109565516413 0.6758359023508855 12.668674878147915 0.6559295540946123 0.20921606355047195 -1.5034739137181654
Ni 3.7113960223756335 2.5535593277741735 11.53506872803764 0.04411498804134338 0.5018387136530583 -1.057985553830378
Ni 4.928267336191888 0.7916879909468482 1.203032156722957 -3.0968289659691957 1.9932618668542768 2.5969080381641407
Ni 9.013749606559784 5.085844002641027 7.465907195310771 -0.6924124795119946 1.3356677805730481 -1.6303784235529146
Ni 8.437632745495872 6.842570035538355 11.175734200477203 -0.27515508944544226 0.18942499696647377 -0.030348530384870315
Ni 1.722239090114057 8.582422430210622 5.990395830197898 -2.5989860037390917 0.06125961814142998 1.8393600024950774
Ni 6.101452107206278 7.337314354126242 11.555014755294033 1.3656843815397963 0.2318176030000717 1.0422630008887985
Ni 0.9060126685648493 5.196590544372398 1.3062137610320046 0.9837956007805251 -0.830234664700512 -0.29555319348582004
Ni 8.428497866281429 0.5448382210006933 7.524731934203532 1.6403319352212007 -0.1372107768567637 -0.09450372490654046
Ni 3.871783420890754 8.790629257164102 6.9585034874309635 0.8229774689174665 -0.07334688832326722 -0.1510047453170625
Ni 3.527200613762142 7.683607639650272 13.032934658904237 0.3577798035262096 -0.49399633479050403 0.8958641297748635
Ni 6.138342965572297 8.642853169629245 0.24577355543141682 2.5766372037302463 -3.253005485295185 -2.101313762758897
Ni 2.097333133485241 7.702718768533119 11.238158340663672 -0.29220536005950964 0.06341728791438112 -0.45426790585263055
Ni 3.0540268146148355 6.117243983419101 5.9569176073764645 1.7610591126006443 2.7984056500244323 -1.5720948573206732
Ni 2.0440956491565347 6.043582462466199 7.822954304735931 -2.1239384421369483 0.07770670795385971 0.11817690015376421
Ni 7.421682545251537 6.252843313944422 13.459348601635428 0.2694546966265553 0.8918493521885156 1.3146294718455103
Ni 8.52115032033804 2.867936011022639 3.719353907537446 -3.0387665146088247 -0.4595787765425828 0.7545673557741843
Ni 1.7777880317338672 0.36315860250283966 8.037101576927547 -1.265144220631189 -0.8253814503732689 1.696473258299459
Ni 3.382836237188954 3.8380453902698006 4.54650982374191 -0.5005228230551122 0.2971405925775979 0.5193481832917314
Ni 8.129460013616729 4.481453395992331 1.979355428764379 -3.917625882295576 2.891454901872633 0.4433345467695784
Ni 9.034377051425595 9.160638094494857 10.439622888637658 0.5182302676372043 0.13557838345966328 -1.4129985932447278
Ni 1.2257473098140939 2.20694243822939 6.356184871098014 -3.1363997862832824 1.3350386316294813 0.31814547696403916
P 5.081470725446257 1.0466648447285245 12.77092450287719 0.2162356894014147 0.8504553626227612 -3.6152973177591354
Ni 7.9420008273082 8.355825649049121 5.256274220794535 1.2332774538295792 0.9229393887251008 -1.0448379607048262
P 3.337383741016686 9.005798193478386 2.296293206691388 0.5630993602357528 1.2379308934411906 2.502476304146116
Ni 7.245734416252705 1.9452854728764235 5.761363697634489 2.0127559710231466 -0.5759715882127306 -2.6943664748236307
P 0.14253555156446662 7.330916240344466 7.13773758411483 -0.13520223106716714 0.44549633030758756 -0.26159791958629786
P 7.516886848157527 4.196496941145036 5.73891389984037 0.7254213303378475 -0.7631553545535115 -0.10728107917686684
P 5.191375896723668 7.043676065693562 5.686773895433481 -0.9039674756082884 0.25048715438511704 0.2406408577186565
Ni 1.4081952567155105 2.867556932026898 3.7008955341936063 2.0153335019423357 0.012578607995958982 -0.43483885059374144
Ni 5.099204225783606 5.823513236694775 -0.4264000739874436 -1.1508854245849083 -0.11593438397649067 1.6542169207334092
Ni 0.3823825305014929 0.03948801177830338 12.660434070613672 0.7066826162777635 1.3116727032100313 -0.8023050281697796
Ni 1.4072891654573978 3.2488271892799117 10.830514355719162 0.3041216518811214 -0.1061420804764172 2.257668202423647
Ni 6.566101251863993 9.1488311706519 2.5985624766490507 1.9610654846273903 -1.01989980270225 -0.5962303384617667
Ni 7.3082547130624835 0.1190927517180904 11.845917202876965 -0.8874445382526006 0.23950365879041982 -0.5498682062574595
Ni 1.1144922474786787 4.946287457233334 5.571533880728202 -0.17820161744682858 -0.7112278124462847 -0.632987086365826
Ni 3.34214534303636 5.461797908124501 1.4123161227740906 1.3230212954536311 -1.0456211187277542 -0.6061586533190723
Ni 5.070079863915697 3.8588762433772295 9.666175994049286 0.22105650782882574 0.08075603630314479 -0.4118827560182003
Ni 7.6542706237115805 3.7396050471562656 9.999907896070539 0.13006285295807277 0.0030295308549431695 -0.7112980035625879
Ni 4.788239253496811 3.870257859078625 2.626249112081894 0.22837515297742605 1.5418435146352996 -2.441730906636943
Ni 3.839959276906835 1.9556962765155554 2.979534093620054 -0.11702504593750812 -2.0666977153469244 1.546079407093518
Ni 2.905742206475935 1.460998187073489 5.211536427216677 2.2023385766134074 -1.2333967530162628 -2.0543484497529523
Ni 6.473328602028245 8.820067977223601 6.809121399370247 -2.253432824186061 -0.41375631889182934 1.0681241849262764
Ni 6.332301969783411 7.083100281250632 3.7927121652937537 0.05146860019293717 -0.10612536830586884 -0.5989958170220457
Ni 8.352737542108207 2.97775796983757 7.829165652768586 0.025123534540505116 -0.7434918146863131 -0.0620350628548738
Ni 3.7114422515214556 6.067020639397994 3.8249320307659103 0.8359931644508442 0.19047452127691067 -1.3944054036235727
Ni 8.877429101359638 4.812990338169952 12.303169684203148 1.4784498808700022 -0.3000983896543412 -0.37794985071618137
Ni 0.6041742542462482 7.239299319154271 9.386857645826453 1.4599538789483437 0.2198447469089117 -1.1122841672729424
Ni 8.242203654447616 5.658086861285048 4.089094615822433 0.21559085672856415 -1.4448519903098989 0.6540346510647446
Ni 3.469035102488802 4.260441095646136 6.954647052086487 0.4332933604834925 -1.8476081014364825 1.4432239677881726
Ni 5.207685539369698 6.688026001055144 7.95475822238926 -1.4807746723484367 -2.5039644586558683 -2.54029466054547
Ni 6.528442989677328 4.693839337728126 11.745845895498826 -1.258872014469232 1.6383796965908364 -2.250370383210653
Ni 5.270492456883574 3.1355472903574895 5.805871270066154 -1.1704808302183327 -1.53648996363287 -0.5350895052863881
Ni 6.451795065904322 2.442424461217896 1.791690985048399 1.1578137762736254 0.8886979510437276 1.6341772284737146
P 5.923118554283027 5.93200379611003 1.9094347702914012 0.6989649359185317 -2.0543908729551132 -0.11127888748235029
Ni 4.687422732288021 7.601292022599478 1.6699825882596955 -0.11140667130946619 -0.9867598256151715 0.22143805953796059
P 8.38963764630339 8.440295544295225 0.5465884564615172 -0.651048314742911 -0.9672888613747535 1.2352173511647695
Ni 0.5407423186808572 4.82774668151636 9.470974350398473 -0.1767692558756762 0.9042788362011199 1.7289303503868996
P 3.0673408086115943 1.7590929651634184 7.290259555759782 2.5012331757676343 1.1496723781134137 0.6377672813632886
P 6.130844598119956 1.5519124252471894 3.7183257713343627 -0.07305841054857096 2.146205481065265 1.234386884843674
P 6.642370096641259 6.322501390869131 9.720846581898476 -0.8701584974786432 -2.534285735347229 1.0172878190006998
Ni 9.262009365453512 0.5267894378888374 2.296590922390482 -0.9793637902614165 -0.19433966065927177 0.45666186000610387
Ni 4.459799664089269 8.795076500992186 10.979165098692974 -1.7163933942621536 1.724380269122372 1.609336515280951
Ni 1.9098184722017244 9.250452078997991 0.9931851196757107 -2.3953960281261457 -0.28846414784952257 -0.505695111284671
Ni 2.552801169782691 4.249327608990508 13.000321845692593 -0.1522026222799056 0.7181831607181954 -1.8202273954306845
Ni 3.0469167719873997 5.081332038008791 9.502490608271218 -0.7782361601460339 -0.5461077107737626 0.46848327812106416
Ni 4.467806552145653 6.100296378560726 10.729807859877429 0.3007267672669595 0.35767284563470014 0.3111453914971222
Ni 6.034623254005881 4.552942147091594 7.365525228072708 0.6363912269513686 -0.5904906077645121 1.3895925556159616
Ni 7.265335574081266 6.326255197509883 6.237250223058634 -0.3445756461311098 0.8164725779194133 0.3837731422661777
Ni 2.7686820349426355 8.270431170886576 4.195890414751851 1.8993808631333995 0.1882345762027984 -1.0612117740771594
Ni 6.047364006594446 2.3761318661090343 11.190444314677789 0.32527668869218174 -0.9895669560466636 1.1245413873737407
Ni 8.827399919750984 6.922740620223004 2.202230763687204 -0.8244568816764705 1.2453058457490231 -1.0103646095183052
Ni 2.003210592591488 0.9658932811481883 10.335993786197053 0.7294551340875889 -0.2671031656752432 0.272111417523112
Ni 7.652578636974493 1.3732830057906764 0.24878307282443418 0.8919285421658832 -1.4027771726270357 0.3143099052680329
Ni 3.1026228927030046 7.664145169259176 9.088215514649988 0.5765531717478135 0.7320668606788231 0.3060330099712213
Ni 5.596241510004271 8.240761305097966 9.219207648502682 -0.568130494901757 3.0548641915016352 1.1595631548645642
Ni 5.210135684098268 9.094132845315215 4.612100660417192 -0.6914341747591254 -0.12210246046041552 0.8469450354766574
Ni 7.020820375999126 0.9790408502199874 9.521855072873171 0.43628972410765504 0.05047615437268081 0.6465846225446026
Ni 7.694850567914201 7.776121406269416 8.756906944452728 1.7927983526854543 0.44351220999802327 -1.4079006098965303
Ni 0.9181607635039752 7.01276725879692 13.209042740747613 -0.35115767022400174 -0.4490249122861364 0.8280199164373805
Ni 5.035371021232481 3.1974481166132533 13.597024545391077 -1.2288592701572256 0.2059636180514453 -0.17855411569024088
Ni 4.382449057299767 1.3071660814359392 9.017415577823474 -0.6309849683341326 -0.03146053250212646 0.41200334075646466
Ni 6.2303112282707405 1.7975463686582236 7.602366387948383 -1.8497829976006146 0.6452203952072243 1.4236025940128192
Ni 7.309743291557956 3.564720188511341 13.352429833178123 0.8837195239925296 -0.41187144316429064 2.11584795181933
Ni 0.12378870835069718 2.9292820875285375 1.5010326273554093 1.8649550773553625 -3.005218246339734 -1.539359057650549
Ni 2.7060415423537187 3.0144916491077933 1.275358579944516 -0.015083633805999828 -0.41513777262038826 1.6807087963763507
P 1.4021484844419827 2.086709675775327 13.414015376659378 -1.079104080976548 0.09580547443709951 -1.2346733057358414
Ni 5.814720453159415 4.765947559381404 4.299979959484843 1.1289883674015007 1.3379558052762766 1.1356063869386506
P 0.13340991817918824 1.7829472044076111 9.355463432898677 0.0510166002571831 0.32223918741743857 0.19517449785574129
Ni 0.5751321802579017 7.4110036125666365 4.316705664443272 0.6124488572031581 -0.49053074483940684 -0.46511101921472153
P 1.5269024573574446 5.526786841321179 11.547599600304173 0.25549412068140515 0.7443428498326987 -0.9582465486668271
P 0.6649729776656134 0.8813771567562635 4.424205995555018 -0.03498037272992685 -0.644785878772967 0.6689149106106866
P 1.5524856666553832 5.10919896711034 3.450266069285038 0.2993957071603618 0.6682163418817653 -0.3004496023461729
Ni 8.677469554020817 2.3704549270020836 11.782112660396248 0.2092245481909042 -0.7765747132832109 -0.0317801206250743
