# total energy = -340861.2505724038 ev
CRYSTAL
PRIMVEC
9.35593672748212 0.00000000000000 0.00000000000000

0.00000000000000 9.35593672748212 0.00000000000000

0.00000000000000 0.00000000000000 13.69335911324831

PRIMCOORD
 96 1
Ni 9.137129363169691 0.834207122227581 5.860428672351635 -0.32040161998806754 0.9186703290361017 -0.16182446164038583
Ni 1.3774745535227093 7.829496876766775 5.386200568811412 0.8778039298390431 -1.4750547391455242 -1.6621816841064405
Ni 2.5148102809551696 2.0726487147018027 2.2572956093116883 -0.10647863788022953 -3.626682162557309 0.035101471688823424
Ni 7.404447318653006 2.3256987333741432 11.73524958205764 -0.7154351656594131 1.269517667108536 2.0627770401362797
Ni 0.9072592112132541 5.006661093362186 2.1067230359945395 0.052577002765767517 -0.3427650752849322 2.25720180431019
Ni 4.232550894635914 9.006295945004497 7.368917213616954 -1.5143836186521338 0.3924760693568144 -0.23590437147493565
Ni 9.163541172343058 4.706354238652058 7.152794141323061 -0.2154543311506999 -0.5769540067306579 -0.7439296735546801
Ni 2.8305824989538446 2.844775454857492 10.545858358677716 -0.6334030908573222 0.5962812463043602 0.3069454944831617
Ni 7.868876014142154 -0.029343959720631838 7.791275068755457 1.5661494383705155 0.42424256313513387 -0.09410648946812179
Ni 2.3264097845598233 3.491102270767672 0.5729135877696744 1.1978113997124855 -1.1847753924641338 1.7009657468531738
Ni 3.5582872518778164 6.025531950885628 13.004664938417566 2.1183763746681388 1.1975617455955248 -1.2354022134820661
Ni 9.104832669841157 6.0517659972625735 11.163730028849365 0.526893342628841 1.0843257343868034 1.3740762051479174
Ni 7.091612864763589 6.689653758311126 7.2361873470920575 1.3931810442981682 -3.1215629783807657 0.9551360280623034
Ni 0.18736011623945578 1.4069083302352168 1.8815218983655713 0.1250322325127008 1.1485665466437445 0.7120019716081479
Ni 4.296498721663881 0.29789957220913216 9.529413495528575 -1.6073883904156445 1.498093880353175 1.641612601705837
Ni 1.5855412287641109 7.135445427986125 12.86115890405495 -1.9187646669766505 0.8854133667551848 0.9609148395276095
Ni 7.0148661163933745 2.479753586313795 9.489100635675157 0.3372829691244385 0.7645802599254962 -1.517887260930018
Ni 1.3325192779017312 2.6169958210867663 6.377997216846408 0.37952465140246894 0.9859643262970696 0.6761553942231839
Ni 7.541642773742709 4.79668580704343 4.995022308164995 -0.518349823934204 -0.18350528904792912 0.7885498833672161
Ni 8.810635241765889 0.9795384998313326 10.537697175134703 0.44868346978631757 -1.937107431149896 -0.09755228192487715
Ni 6.104056327220044 8.529676464055592 8.90640728732138 0.6344171339441332 -2.912580370997339 1.0363926581509506
Ni 5.9198098666989365 1.2239342770990105 7.84391250396278 -0.2460859399936278 0.31806731542793604 -0.3968423167453101
Ni 1.0212472654334805 2.827270497378439 3.8772199052781082 -0.9649859242731897 2.9448361457072507 0.178768288583576
Ni 8.143725365217591 3.5192075044753555 2.5065284058293233 0.24621140982789855 -0.24808111604678568 0.6288890050370525
P 3.8605962770318327 3.9216344077605028 13.057343539746164 1.1873380109849876 -0.08254192455897398 -2.038549535047483
P 3.4709308713423175 3.7924289225730505 6.615686658720722 0.2389058773054208 -0.41308243275325635 -0.30423863707495985
P 6.514070895131335 0.6146784889917445 10.376402698412427 -0.12205875170667366 -0.055055803323563246 1.3344974144140307
P 2.847245422134066 7.4094621006993835 7.771624795001713 -0.2586817743807674 0.8402761080969142 0.7126735437538758
P 2.7147840709911297 1.8725158737427297 8.349018940834839 0.7265510730669165 -1.6393443744969507 0.5811991551602572
P 0.42817818333076274 5.538321549644746 5.017411064577274 -0.5455834628391766 0.2940678671895452 0.19041667145578173
P 8.782127702782097 7.993160276649766 2.2478741811014227 -2.6427374377934294 0.4219897625452152 1.242196353585764
P 8.070028652196479 2.1441000029260295 0.24537534383531917 -0.9154682771590362 0.9796671804344482 0.6775874986840201
Ni 4.7658392838962165 3.294964414759725 8.699185453159808 -1.4037135683983761 -0.5562190881761517 -0.06441976103696648
Ni 1.9844970795507397 0.3440140483815025 6.909244140728877 0.027988000572493732 -0.15185552335313202 0.0643346575223279
Ni 1.8001009240431727 4.770788574386018 12.549990742483555 -1.2420341169762867 0.34123346913175423 -1.8573530966383884
Ni 1.8807210301880155 9.120335456876319 9.415854878800753 -1.5458307814178218 1.1232491509248785 -1.8628598853892304
Ni 4.406664875761075 8.785477128104116 12.577076179095986 -1.5723537674090147 0.020747774070312655 -0.810133780185579
Ni 6.166479136573461 6.4422266575676534 1.5126640957938617 0.5944426504337247 2.0570949021498377 -0.5217225970611788
Ni 2.458534321983227 6.074828381113919 3.918751843677501 -1.1986369809375743 -0.9490872507650622 -0.0396860057357123
Ni 1.5907244176702549 0.7815528463342817 4.345847545137432 1.3959946024875634 -2.140270603638069 -0.2359020574820905
Ni 7.703771800014495 4.948916252335613 0.6609623076175465 -1.841088812260726 -0.1095423644072178 -0.8426150406427358
Ni 4.891657920015033 6.430335262080813 8.368120956700677 -0.9561850381521082 0.7162923714533858 0.34638467431539055
Ni 7.090929881387869 0.5305966862850366 4.651962565322169 -0.8585463671610117 -1.45043256972147 0.6609100380283391
Ni 3.048781653591192 5.703912272478397 10.158541293088277 0.35939291364960035 0.025490945182252873 0.4116084193108911
Ni 2.315874999887769 5.592819880652487 6.872683011473589 -0.4510128892504426 0.6616137489635832 -2.258543663050065
Ni 4.908779284091285 1.1924889740059599 0.7970696672744257 -0.3039704710152378 -0.5940510714222608 -0.002385469513041053
Ni 6.260459520259773 3.243151237571592 6.638567537400985 0.6398087372733496 0.5314706775868782 0.9194583721550358
Ni 5.028787883548161 4.531098833255147 11.19369148038914 -0.6106323728197097 -0.7885120881507451 -0.8410127291526226
Ni 6.918172511077493 6.168125781424511 10.249506258391106 -2.3382946551274633 -0.6783894257600251 -1.1503022983879285
Ni 7.029498801319745 1.3966074439795044 2.2945144609137302 -0.8436833340062502 -0.6261728916574699 -0.9721461894670547
Ni 0.1971613954778609 8.982980950863503 0.5699823728160734 2.786716386611962 0.7637474796115555 -1.38216309592111
Ni 0.7881300698018253 2.4052990424237333 9.162513890498483 -1.570981055431204 -0.014314873960775347 0.17016152075117144
Ni 3.3319858560983744 7.143734787861294 1.226830875086993 1.9984989468835002 1.0245432150115323 0.36999305776294983
Ni 6.455455951995969 8.150508419291517 3.188826926985609 0.5872286491837886 0.25901781756394743 -0.34375160756791767
Ni 3.3039554698839204 2.7199672598972735 4.68793520616194 0.0008667188756694751 0.5637562770934613 0.9811730755560133
Ni 4.693835995409422 6.5458904356905325 3.437444102871432 -0.750119861525792 -0.0032994966868781887 -0.5598024346520359
P 8.537722569577765 1.7855056628634172 3.8581721538448615 0.4142972789969639 0.05196508021338147 -0.11397726025011984
P 6.167517645542021 4.278666306401949 3.08152649628544 0.6551574518152781 1.6939126966611344 -0.5785231509899907
P 6.012854656719878 8.364244792145055 -0.017822123731613182 0.28462574794003886 -1.4617755055381147 2.0568899852278832
P 6.18098083838668 6.663812661273635 4.94964227301994 1.2762698982307052 1.2420659986554867 0.6479678760453744
P 0.4726067197181382 8.49931644961437 11.43528328344171 0.30799090502854054 -0.010128346683253525 -0.6402987895358909
P 6.20821596998557 4.763060570710071 8.380513830392154 2.2381584145254934 0.16322854107676407 -0.08280391997110902
P 1.1604448909670735 4.49155128902 10.507010638504266 0.004164672900650892 -1.0544117204361905 -0.7596344858844466
P 0.21940232809101165 5.687342908664713 0.23443731829349074 1.4379940868478007 2.2073262596359857 -1.28996385077803
Ni 0.17467159494972204 3.6183991448777717 0.45209476419858935 -0.421895403059196 -1.9447094118668702 -0.28905884401072796
Ni 4.555433624491393 5.039201041043717 1.387438626058889 -1.6403424767441621 -1.5779536300942953 -0.01842966746009729
Ni 1.033466118703199 5.889094326664874 8.833215794879568 -0.4368849344894927 1.2279133613041884 0.4819887688066667
Ni 8.495040786563633 7.666871985852344 4.382600471094121 0.09861209064795921 1.2266211248553263 1.8303984224264154
Ni 4.9515265586619925 2.157095398938004 10.968845868353013 1.021927117544924 -0.9981981493591002 0.9602242412184883
Ni 3.706129762879418 7.445594728055933 5.584904758243467 0.7821897454771432 -0.15254740721383403 -0.2763959038310788
Ni 4.583230112289504 2.903455889549433 2.625057831701251 0.6296881038995801 0.044557217785084556 -1.9669785076777158
Ni 6.086981742827061 8.324014264534188 6.464045637437722 -0.2743161384839147 2.116281696922639 -2.8148740799931007
Ni 1.319561305636371 7.2947302495151884 1.94445741304761 -0.5816742950244628 -0.31132845404220577 0.05637452213498678
Ni 8.3155471418626 4.417414846976165 9.60093401768404 0.8093387950881095 -0.16962801684520462 -0.601785463952041
Ni 2.356563968394665 4.018356080886345 8.493702887622156 0.6783570298601931 -0.2955148840487169 -0.141076430459757
Ni 4.214568784387522 0.7715429297084992 3.7515696760190576 0.21948222136317042 -1.7670598102687696 -0.22600253898019143
Ni 4.968488871815132 4.962070699270701 5.500402873981008 -0.589042819574392 -0.32697593077147563 -0.2554067031739214
Ni 5.88741025806721 2.511095974103655 4.3819708165573275 1.2351111646042083 1.2548353825060132 0.04047456307527868
Ni 5.821974837111306 3.5176263511808816 13.552262297196023 1.3672393847317421 -0.9642940404124877 0.03587434529910596
Ni 2.2825585094639806 0.9122627661356474 11.807221995953478 -0.4490737632462008 -0.34021274117672373 0.6745322567974641
Ni 2.7539667336967812 8.053721254609098 11.040312126075886 1.191481600839716 -1.5060732990142254 0.8344307050597306
Ni 8.580320149162013 7.30710815370802 9.074917997984649 0.31591401653035917 1.1392871782243474 -0.5094946875364194
Ni 5.952246899077278 6.000981973106347 12.620306219998024 0.42526354820048046 2.1735057115421146 1.8666234661967207
Ni 7.585774726938163 0.2810036862062343 13.236027895926654 -0.042564869945404114 0.579803046143679 -1.0106551441755305
Ni 7.0246804939430945 8.006801232290846 11.571860311118602 0.07077347116913618 1.24085706594905 -0.38362838915819736
Ni 8.06987895721002 7.381955646937536 0.21288217583705546 -1.0045251200183927 -1.4718136065004073 -0.5790697675220802
Ni 8.124498915394259 5.8899457169003595 3.092535626945837 0.09872547629737191 -0.07463038302138116 -1.859705656030965
Ni 0.44961918336002304 2.8612980389879077 11.931297621073712 0.09390260098743182 -0.5499988182980527 -1.0954688954878167
P 7.343774069453829 4.633686678662852 11.84134590371048 0.3926696734248592 -1.1937907085888666 -0.2603331939412613
P 5.23241048887906 1.1275213498827399 5.776831507163588 -0.5974629253172871 -1.1990851242185867 0.9473144751353557
P 8.423336888049757 2.4479995373111727 7.682412196634123 -0.05361752821513992 -0.04565867837937943 -0.7227018745241554
P 0.19899609465564944 8.387803040639044 6.892880607521573 -1.5559503863503268 -0.4332784480851571 2.363577083843336
P 4.75727860185809 6.955633681438866 10.837772938209483 0.3671090513469355 0.033522557237477754 0.11364841615579135
P 2.7397737777931344 4.062675152814872 2.8177096657120333 0.4085346654815738 1.6761903396807065 0.5939520839505512
P 2.2295009927009075 0.8668855377715877 0.382420168344898 0.20272274251664443 0.31910578399477946 -0.30055167514167597
P 2.8009148238249955 8.283512414760366 3.1719160714840657 0.9047174664004355 0.26647298829041205 1.527684706636414
