# total energy = -381169.1723654404 ev
CRYSTAL
PRIMVEC
9.19923439291349 0.00000000000000 0.00000000000000

0.00000000000000 9.19923439291349 0.00000000000000

0.00000000000000 0.00000000000000 13.46400940688943

PRIMCOORD
 96 1
Ni 2.5320801194727665 4.559103861922205 10.463407197159274 -0.37897057867121187 -1.3240456229530873 0.14068562277924157
Ni 7.413377973396447 0.9436850811297217 12.707453762327523 -1.3216418986076013 1.4424503228469416 3.370600801913866
Ni 0.5054418249523148 6.1720608565993045 5.643977875493666 1.630686441711637 -0.22142160447772835 -0.13999759557328148
Ni 8.258760033782456 4.549030700054868 4.283534350552898 1.9964178959847554 0.4178559428824997 1.665753974838731
Ni 7.001647831207946 4.201097249692836 8.783543249443516 0.4993681406253787 0.43081327437411604 0.561050191016208
Ni 1.2137562099893415 8.516320203610498 10.128153051821672 -2.6744869622908842 -0.6973510544641925 -0.24589953501443454
Ni 7.691112064662909 2.0614932744283543 5.554590752906869 -0.4925968833398162 0.8238634710668457 -0.5733308081557739
Ni 0.6105918359954414 4.761910187517927 2.4911380060419255 1.9402079244520907 0.6089169327904996 -0.38057597548511873
Ni 7.606304321051054 2.5217309805679675 11.03350032283073 0.7792995684135416 0.8191418972214602 -0.6163638759868482
Ni 2.199040229899062 7.535359823954337 12.486966507865116 -0.8183947346427907 1.5511439661006188 1.8907836083826919
Ni 7.5506029556567835 6.427496003238893 5.4166381111910935 -0.8504723319036257 1.193145875916016 1.1409712507949898
Ni 4.014380385381108 0.5084922911397204 6.07020877115384 -0.34395215361449794 -0.05664783040103147 0.9111452243036503
Ni 3.741172317529012 6.281439755779797 11.432021284082875 0.520621136466884 0.9361039511315169 -1.0775215669807765
Ni 2.153550014890859 2.9019721427821352 2.9270087796206234 -1.1085193009138716 0.004945516930733419 0.34833588450449043
Ni 2.8930580844721354 8.095758796223237 1.4447149531764887 1.0710231037406264 0.6206997843580407 -1.2976943866530684
Ni 6.840578432910955 4.3238150390172905 6.2663925677739485 -0.34165281605736 -0.6589822248780071 0.9509258466356978
Ni 7.2113075865672895 7.806304880099251 8.151690142482058 0.8166574402367097 1.163291511558745 -1.6338866938164895
Ni 8.475659586757867 6.8321243363300574 3.130947530993394 1.046700467834862 -2.717388646750417 0.2041229652982807
Ni 1.7216183535601919 7.773794785086312 3.328720955349279 -2.080792502877094 -1.3045769727055145 0.6747741976049411
Ni 6.03358477843581 1.0079969300927847 7.661304704770172 -0.6126455465949965 0.06831189700252108 -2.0395952027031776
Ni 6.281163778742335 3.4940348804824253 4.213992736729944 -1.983357463256371 -1.8025140373113213 -0.36004443119067026
Ni 1.3463079810819998 1.3857726974389644 8.56204683894746 -1.720474506310063 -0.14035575024364857 0.6465326862607446
Ni 5.793843525993187 4.796306125620185 1.6018673173884466 -0.35514622255810446 -0.30455102610905616 -0.6770377968281373
Ni 4.732408242213314 5.163052010702495 9.348573116401015 -0.27498771062964256 -0.08489088440712478 0.10404920250313049
P 7.3690376627109995 0.9875838285552312 1.6900429007807873 0.29108461619150516 0.7995092105921972 -0.3500333268115714
Ni 0.45428212167119886 9.287271256993199 0.08367623775826354 -0.32204249802560025 -0.5878534272519811 -1.5903368342499966
P 3.591657157867066 1.5510737436436959 1.9992034172264244 1.0715488943371094 -0.23612240102301268 -0.422333519037879
Ni 2.1367614117786307 4.838852585562134 4.504115437208043 -0.6510974228132915 0.3874174238869844 0.6805962036033569
P 4.955894447149468 0.7435235354763381 11.757244584032216 0.37662650391906755 0.385641048712852 0.5523832593698292
P 8.969557292233176 0.6954768531777855 11.44634725209749 1.1089152508007096 -1.008328810035199 -1.0335690726592266
P 5.253784061385186 2.5781498862596375 6.1670417542113425 0.5507904609614128 0.1807809481382306 -0.3099351732391049
Ni 6.206824764084844 6.290160630163573 12.769751898840576 0.4365252371572289 0.3301309314606895 0.04745459393753763
Ni 1.6116415041318672 1.1930395337105806 4.630246142562435 -0.3719134147141143 0.335020655452823 -0.44358368666590703
Ni 3.3556599938993337 3.437450388568279 0.8990577543253144 -0.8202914374448711 0.2616637398272268 -0.1751314631619371
Ni 1.596637552528555 1.53956550118156 10.907678711758292 0.5322024135465802 1.794449000915 0.7519931672891049
Ni 1.588542226096357 0.6732156254126995 1.9636851725051563 2.040137705470209 2.203425639029999 0.7208169987966166
Ni 7.683127129045696 0.5897684485955289 9.639584462939741 1.7743882256093828 0.06228908784720885 -0.25175985044995347
Ni 8.50318369662734 7.372606965728832 12.391991770193187 0.16811877928952984 0.1786641589055439 -0.4816501545203253
Ni 8.863701699897607 1.9628498820051068 3.2530259735143963 -0.10458142085751668 0.027833477272500455 0.6420062591453007
Ni 4.052051250994575 3.5702045428217417 7.7592011193453585 1.034901932538037 0.18113396060227516 -0.06261201840426638
Ni 3.1893470318905774 9.066894393345773 10.74110265164049 2.7787104855883498 -0.691087590052984 0.6639364835594888
Ni 6.050023810633921 5.6675564336509 3.971977433498639 -0.6611990300236678 1.5246546615608387 -1.3988955781844423
Ni 3.8790228477409268 4.504110837590752 3.1658061905951294 1.815573698708757 -0.6591817424833228 -0.771662106472942
Ni 7.116288692569367 8.098812942104475 0.7571825589837556 1.212340703676912 -0.6966954231580647 -0.8458368900141433
Ni 0.45922763018250523 6.717934237463157 0.9459876495456071 1.5510753176462126 1.1558345410600674 0.7513218522536932
Ni 2.653960778450254 1.0432024008382634 13.241718629072295 0.8097594275652958 0.4039778993488268 -0.06551685075588717
Ni 7.813176708332038 3.885894675973713 2.2917491960934337 -1.465886956603327 -0.6377330856912435 -2.7119476782405036
Ni 9.177202415219051 8.402571668003535 4.827480491771812 0.9810473486114264 -0.07994562458670747 -0.5270638067684342
Ni 8.99605108782946 8.923128755297606 2.2958557344108574 -1.4548155292805138 -1.2884870091221874 0.4599839824008014
Ni 5.346668732960074 0.17442208729282718 1.3725212000235314 -1.8330446018000108 0.5734987011922058 0.21147554900860996
Ni 3.7509051077168136 6.7494232174374895 3.585721811714732 0.884012115532284 0.36119062897997145 0.620806485139234
Ni 5.3387665904540995 2.6855601492395724 13.370622903653175 -0.35826214247926685 -2.7858254993665765 -0.05560447673818165
Ni 6.962661475049249 8.326392806429636 3.130758946684462 -2.2409524323308636 1.016735031821023 0.4116112475243685
Ni 5.7395864404282975 2.299100304447944 2.326890272196838 -0.3900564041717282 0.9542654525318921 -0.27097061905044945
Ni 0.3356828296691254 3.36716823636147 9.789546705402374 0.2514011815589542 -0.48495505052384225 -1.014959170867523
Ni 5.759208407791794 2.3545900874468275 9.63904630771669 -0.035120754962533064 0.440144579077371 0.4266678847471749
P 7.705205292042598 2.198092708737111 8.088732420849471 0.9813949617588323 0.5625303751061603 0.5584937431429414
Ni 0.9367120613165331 6.259352393548311 11.31417080977578 2.4065049935551137 -0.0038034329064902243 -0.4164881160006957
P 1.99136750920944 4.007471760209993 7.96796026963912 -0.29722543898192033 0.0345859655049856 1.017646230781383
Ni 2.80176488047994 7.16646131797983 5.729622749452487 -0.2761529345823373 1.1088265477416452 -1.1967477343346615
P 6.465553236704806 6.0413489324230545 7.434529773470938 -2.034886227263283 -0.7155693772444321 0.10169510044865712
P 1.530596247464068 8.989593225152866 6.217248416789758 0.205433199469272 -0.11192911947183949 1.218850736881288
P 6.1245284115138885 4.453653035908245 11.063713368968532 -0.21170977650660316 -0.41258955227723787 -0.2345771680230799
Ni 0.23279675025663954 2.5098823664262966 0.934825298303756 -0.18942062609109958 -0.11949587607550387 -0.4052004589020182
Ni 2.4885309429613747 2.0500494266082927 6.773137004343081 -0.6054415726473895 1.0167681990518038 -0.7048103389557152
Ni 4.630342734525547 4.758920436278762 12.85854659072029 -0.9899096840980628 -0.6776088388402588 -0.5302802568232028
Ni 8.53168292536251 4.9164021330887575 11.220138073725051 -3.0192639257995224 -0.741676101633813 -1.4781367205049574
Ni 3.935662535062566 2.2878128436157774 4.547200052373042 -0.8453851471887054 1.7794422430935226 -1.0022697483253125
Ni 3.05008901878761 5.896396593113803 1.2233979277547808 0.05421248148666147 -0.9438738248849229 -0.2372801687765397
Ni 0.363057911938369 4.618742499717591 13.153072044869353 1.0310177669922824 -0.05123308714336337 1.2051058764913698
Ni 6.515431486608644 8.386638593707437 11.731891493524106 -0.9809473326984524 0.04141121595693513 -1.0804585381219136
Ni 8.639405962318234 0.5402084922082302 6.824071326376937 1.2988529257375439 -0.9602430102715657 2.0100385720919833
Ni 4.4335343098773174 5.233131779748499 5.758098980101201 -0.14026344764015844 -0.08494796289730532 -0.07084109118227801
Ni 3.8699891993813607 2.58378901705843 11.20633738200507 0.1945638608549359 0.42493470410615203 1.043415369325687
Ni 3.746167501907061 1.5243499671828606 9.090670735046523 -0.863377727111384 -0.17298459202226338 -1.135790992145631
Ni 5.266203028070944 7.050587759184415 1.8882735270954 -0.2975961920577778 -0.4193052737345166 -0.6174267700337238
Ni 5.773724799962259 0.8495180362540963 4.367940087613518 -0.33395801851626356 1.0295784634425946 -0.7907440628050575
Ni 8.57495612483644 5.795968549181638 7.748389258941083 -3.114999723340951 -1.9540587142922539 -1.8196401554686468
Ni 7.21806902398509 3.7910413681982673 12.92565132730246 0.454832520106849 1.3327092121653563 1.1524915927297636
Ni 7.108423347001721 8.684794985746034 5.400696757583871 -1.3991112937396744 -0.21791050600067632 2.2062535953970968
Ni 4.390914256058712 8.092566661823268 12.969839850617303 0.847877574593256 0.1971478195320282 0.17708884399862404
Ni 3.433476319228836 0.051799970008026185 3.607156028290892 1.5340738979922095 -0.24764839938474126 0.09960170825473814
Ni 5.683057143921642 8.828036267423027 9.38506096044723 -3.0729092219288043 -0.56973614882598 2.6520078073517617
Ni 1.0137556509411436 5.664842659449197 9.070178520091565 1.0332836802083238 -1.4570781000624453 1.9806395501045762
Ni 6.422979179059111 6.547592010707466 10.29771886317864 -1.4920654147709076 -0.8412320442522803 0.20415356142590005
Ni 8.466469551410407 7.037267267509617 9.869038211349265 1.6313675269390613 0.9740647466460064 0.4441051063870158
Ni -0.0002005433138885384 3.535955792472796 7.1443537174322636 0.37197075031461097 -0.5464802636218331 -0.533687482732539
Ni 2.749743208918487 8.724949644696652 8.088934804010277 -0.8364207389065659 1.0739672739706148 0.32932000552361995
P 3.908671980798852 7.311579243511559 9.467096974679515 0.13218169907328847 -0.20993185867057393 0.5608085073190471
Ni 4.694213020228672 7.808163125484824 7.451440726403108 2.3136652866145573 -1.2963661547599479 -1.1022347534567405
P 7.820352111306032 5.826666394981917 0.6296103335703573 -0.699985406763246 -1.111367568995944 0.8401614368959207
Ni 0.6207533105147663 7.451609992319418 7.798166317264518 0.8796484392469496 4.084535728878668 -0.8237431434388974
P 4.945158940392224 8.051234500846148 5.223053098340412 0.2774989070872705 -1.547424865377819 -1.774420878619531
P 0.6982541020981042 3.2341749020088733 4.97466916500796 0.07595218715659822 -0.49838546499713526 -0.16624393086432016
P 1.9690225684096576 3.2702267023359 12.516251351233592 0.7040251240502585 -0.7049224390535472 -0.345104007830754
Ni 2.7197261064772804 6.383017704034716 7.768828118335466 1.3698858212156537 -2.2127026934565506 0.9388120940912993
