# total energy = -381172.331436764 ev
CRYSTAL
PRIMVEC
9.20547241806857 0.00000000000000 0.00000000000000
0.00000000000000 9.20547241806857 0.00000000000000
0.00000000000000 0.00000000000000 13.47313938725329
PRIMCOORD
 96 1
Ni 5.677051726808847 2.174599568629889 1.839663053617701 0.223000518929074 -0.3308593249862818 0.5903679661437188
Ni 8.401116744862598 1.844666227933938 7.016891682677334 0.31009920962079496 0.08166569260160773 -0.7855617472731696
Ni 2.341982675515146 7.104627200199305 5.019660396978373 0.825599994141978 1.4243384437375792 0.7353069648826756
Ni 3.559839073887185 9.396301968376392 6.17220672944166 -0.09882523510002979 -1.6844597787783506 -0.3584166657792602
Ni 4.197888785399636 9.23456181614772 8.752353390071217 -0.3248948798727308 -1.5639871406118744 0.12201272896008665
Ni 7.450311104382068 0.7827799916131708 3.254476980449559 -0.3697840270759373 1.297813685839752 0.02576116812450402
Ni 8.702310600341821 4.375121747884476 1.3200353022825584 2.407079635111661 0.29338755329306887 1.1401245865239784
Ni 1.2306612106514976 3.619996836824827 3.130928492624205 0.4045651393108645 0.518099912706927 0.3636977116725414
Ni 8.840024469285527 0.31917858714735936 10.498378377185217 -0.3684249419448816 -0.21698568019356176 -1.3557858914791618
Ni 0.28188537686228254 1.1710097487026188 12.535678323134931 -1.4567346006800976 -0.2846064646663292 1.708166635476987
Ni 7.696539083426606 2.4194927541585964 13.889459967139464 -0.4712058192585498 0.09504519923230728 -1.9955282942909502
Ni 6.545542031988935 3.5218664997299123 7.6703126922086495 0.7790637982536518 -1.2927357570962124 -0.6748873261440377
Ni 6.638646181086305 7.568058303423442 12.505929918129684 0.9395443442716335 -0.6439479562527038 0.25951918268039825
Ni 3.49614640950072 2.963895193694822 10.96619220587754 0.6895672967537156 0.00043040266919925875 0.35493924875362093
Ni 2.3760889512127683 1.3652912463000086 8.325578478433568 -2.6231008945094247 -0.47754975919870657 -0.40881902949121207
Ni 3.3239396350134243 8.571592890515575 3.4186068733451958 0.9203117212942666 -0.6026462692904394 0.26146627910444004
Ni 4.882720708273847 1.3180487613121004 4.152826156305169 -0.6446992325964316 -0.15242939357873103 -0.0719680056978696
Ni 4.681222120218445 6.372773723677738 3.7424066076990887 -0.4029923955071059 -0.15974161096942813 -0.621002146089808
Ni 0.4558209390893928 7.213260981442934 11.174042569973796 -0.1328111051271713 -0.12291518616969799 0.814350646480404
Ni 8.134774808355358 6.876340687102045 5.126772513613955 -1.2464145054321696 -0.5735426670562638 -1.3862004992152772
Ni 7.893692688451164 9.053655870126212 5.614149812512106 -0.9022301812022073 0.734281866052271 0.12311238978216861
Ni 0.1028518239519487 1.9296419447935211 1.9075948381009957 0.5905430582690023 0.11253204316316102 -0.006324913776763301
Ni 7.820647263981356 7.683955202487699 9.047941112783949 -0.035925767362331676 1.5591077010323857 -1.153720065820226
Ni 1.8250493659874778 5.480634559586127 6.9783317993730964 0.771480072369123 0.5988765178353621 -0.06876955336522994
P 2.0213560675399225 3.418037975143276 7.638528957228574 -0.7820557910024403 -0.7278150273810046 0.15541701545214523
Ni 5.816192443993616 5.547963385619167 5.739462989420114 0.5800316172147171 -0.534425389339828 -1.7141809599918674
P 5.741821431480499 8.079560384162555 7.281154102941634 -0.06840831337106928 -0.470880574708647 0.270515790901218
Ni 3.5235879230917084 2.782786727277809 2.6292026237044923 -1.1427283426954127 -1.8233446009034278 0.5696646721580964
P 2.7175291325624387 6.29576994602305 10.258380661944226 -0.038429507620791885 1.4820558530537058 1.0839732361433911
P 4.360696772440974 8.529450237305394 1.4864914180847513 -0.6735030442020014 0.9883932474535365 -0.7985424758035538
P 8.571012945746626 8.345791854999517 12.72927401302936 0.7402108299421961 0.6067569490247033 0.05722632861232079
Ni 0.6257235838041877 6.6212018106552675 0.16848316085175208 1.6804293174627187 0.32048595217175774 -1.102495977537927
Ni 4.285515678345837 2.481721748413908 8.54705018022207 0.9581550173942854 0.6084492491254618 1.2006704664278356
Ni 5.002244563512155 6.437920852722833 11.228649432980085 -0.4935780163061628 -1.6585541146561824 -0.017800004295898376
Ni 0.7990525053920339 5.544603388148281 4.697464255937982 -0.44946714202987753 0.1114120706261049 -0.3041609897594891
Ni 8.149080112656062 4.533989792685981 5.346868917807523 -1.6621636863843117 -1.7702942580456675 0.9794784614624099
Ni 0.7277064111499675 6.323671733240188 9.03174592497428 0.8826730850058864 0.539373991594355 -0.8969987575999391
Ni 6.781864922598752 0.3235410605759973 0.7752729287706845 0.09613329009016347 -0.11905647454524011 -1.3186437352112257
Ni 6.692083949082175 2.1587661558903717 5.410435467220423 2.5369853936665794 -0.836602773010385 -0.6160946814858616
Ni 3.1480598769894614 0.02984966520299912 11.159666383534667 4.074737254731009 2.175523513303092 -1.2650956267814406
Ni 6.97598992716325 1.5358962685683064 8.934388847571295 0.14892857951432414 -0.45609287487651123 2.278634520262669
Ni 4.422272178147154 4.464009790566324 7.389208859963567 -0.536470959014947 0.2645485175741895 -0.5649071028684529
Ni 1.8526841945014492 4.5743649951717495 0.5089061374876335 -1.6598838892111996 -1.948823948255876 1.7817135556262025
Ni 9.071744623633858 8.885039229922876 1.3682112221842964 0.10319739602579646 -0.28637641208255843 -1.5108036146103594
Ni 0.8122172516471406 4.854708455386433 10.604210012592853 0.37774621934580754 -2.0752594888740066 2.027318956438986
Ni 8.36191984285977 5.058066548891477 12.64010888562457 0.18002941468418673 0.08313636360986328 -0.40706065203920866
Ni 6.832384555804839 0.7104710049452012 11.85090623583212 0.3252216670845302 0.8758573476356335 0.1421652926485616
Ni 3.9061397447289856 3.6615871616836286 13.356232971246131 1.9668041868833805 -0.6365966580939553 0.2594135103404694
Ni 5.381924277722265 8.207267904473788 5.061332650542629 0.8115838823685442 0.07743365679813116 0.4429599370389791
Ni 2.0867149224530457 8.012829913843508 7.45175084028466 -0.5174635646745088 -0.41033623746668685 -0.7260296533458077
Ni 6.260770739490699 8.29013556812561 2.4921128857978423 -1.7319555103664688 -1.9069802727472125 1.7781052694496537
Ni 2.963149550420461 4.508380168127064 9.187401259865265 0.23694463981399191 0.28598997527741715 0.5215552182453792
Ni 5.85481860670002 8.45827352375775 10.320923562812572 -0.08789650400266798 -0.06929148730697099 -0.28631470560668754
Ni 1.5615335095447922 1.7855947107540067 10.741204934132517 -0.33565443238208 0.26013779010100363 -0.6642992662155462
Ni 2.3535263380589564 1.94303590731445 13.148814343811203 0.03872415604307525 0.27584131687918945 0.005353808112745618
Ni 5.855168414655893 2.9162936952785175 11.804369810586724 -0.2694562392884521 -0.010928473987045694 0.748024412449344
P 9.22692127395365 0.09621191662112674 8.093934729507179 0.25846374483269036 -0.3999235267737951 0.4015682614660697
Ni 7.807188863152767 6.633610787616238 1.051496019484085 -1.315465080372928 0.4709080855124729 1.0082095108485154
P 7.916531465780665 3.1942989654723655 3.0042676345388335 -0.5031558898025851 -0.2673314796359654 0.8348464524409105
Ni 5.626090230921657 4.356425433190314 9.812043200648004 0.04892757893863831 0.07289411705656479 -0.19932991478501155
P 0.7591182450401156 3.3630905096536376 12.354262393935652 0.5952453488406781 0.2958265017518647 0.4040717446142138
P 6.195669637808219 4.923022266979432 12.651803517917758 -0.9217901056120059 0.7104485110780989 -0.42789584361700506
P 2.4089985154824043 5.630472035842593 3.3064427933890057 1.0131231461000487 -0.07435604631407194 -1.5195124552382668
Ni 9.091600827865916 1.7926368972340825 4.509931290247185 -0.6122467684946812 2.288633026236278 -0.8161871854685105
Ni 4.085747719124753 4.7616227172341095 1.9854151411684706 -0.19648190381325514 1.017578353657925 -0.046960685020254606
Ni 1.0600930102732915 3.461064353715662 5.671693221253223 0.011917063152560121 -0.6247240750260854 0.4697336055883975
Ni 6.809693066035705 5.761438293426959 7.774998246287175 0.43347925124205344 1.6739848473889558 0.5814135851639084
Ni 0.9704593243170829 0.4807668490794031 5.906543236259364 1.5463663422063174 -0.8027392874937208 1.5445637417799398
Ni 4.626182600003577 1.1880490783426458 13.414545036942915 -0.27965400575706034 -0.5045689681000278 -0.17819236147544798
Ni 4.041524629124381 6.6711875264550216 6.73919663690751 -0.7238403590039727 1.5452949635190096 -1.1896877421640866
Ni 1.92942101345297 8.469522611180826 12.576044320148178 -1.7673554871323176 -0.8354899995621805 3.1296439556166877
Ni 1.7635383985889581 8.45486749892425 9.637067420025797 -0.3536120453017652 -0.08043464840798406 -0.09274663300611768
Ni 3.216576208977966 4.683643159491988 5.084991635473927 0.7991525985837269 0.023403466525604856 -0.15865917653852674
Ni 2.876314328111236 6.797753568173406 1.3800540625851039 0.2946052277502539 0.6545997795395953 -0.40035984298026533
Ni 8.948676661474204 6.815474102780134 7.159100583854011 0.19795154638024615 1.2734871932792455 -0.970689145305554
Ni 7.4923893192845865 6.248435406309913 10.742942927344853 -0.9509944950901041 0.3302967676145925 0.888272947691167
Ni 5.727746263992871 3.8393632470473245 3.6881375855343936 -0.5175656374700119 -0.38537031154996854 -0.7209362979833003
Ni 2.1866035047998484 0.6964667195959992 1.805562301203592 0.675897512576107 0.08399768316889404 -0.6384527374660875
Ni 3.18973305110097 2.382882589934724 6.035899456699463 -0.21805628754992126 0.21872914524722972 -0.20530618697310446
Ni 4.815668046416496 6.635958183109596 8.87949937655855 -0.2588956901637864 0.1199177941042709 0.7523464368634655
Ni 6.469541650839252 4.283996775379546 1.270929629656 -1.6365999789825945 0.9395530860223819 -0.3623265423566276
Ni 9.210351423412293 2.580137455157035 9.017666154750389 1.0245794675661064 -0.33767506235653455 0.6968152365653805
Ni -0.20759353141286419 4.401265289849725 7.566905778263565 -0.4424171771616316 -0.0045822200540437215 0.22873665008190283
Ni 7.403970755701411 5.3262864017934035 3.328929921668129 0.5204090204560778 1.754329764296611 -0.8715222105953894
Ni 5.57331525694744 1.0975868998593692 7.276519147526315 0.690353797210753 -0.647549300450717 -2.4742047108949325
Ni 8.170446014381888 3.2454813927001074 11.071026888610938 -0.6556246212596838 -1.249156329843365 0.03238381564734423
Ni 0.7601308470176428 6.87650638560746 2.435095109537787 0.23597456259123878 -1.3670550366350778 1.026300564022271
Ni 4.497241546374264 7.933092110849497 12.857376448111829 -2.305524145564662 1.2338335834433654 0.47115928229133053
P 2.330669149784409 1.1722432820206976 4.140336171185996 0.7661555748324159 1.234078609574636 0.1936809440293503
Ni 3.0438171061392914 5.643249231704482 12.577323880828871 0.43190213656292065 2.3554868506360336 -2.2082500570018357
P 5.077950369541103 3.2854699653399115 5.59005909091948 -1.4000410046427954 1.4000939693679177 1.2645654653095835
Ni 0.6960248569148964 9.01352000992604 3.5572992840180957 1.6447161803318255 0.3381838836721531 1.0233011150743152
P 4.963609195333229 1.3528270365039003 10.403405517165682 0.4075239648288723 -0.048693351440645176 0.32283516913022464
P 7.887267268630127 4.739722898101952 9.466686090739806 0.4816846073026866 -1.796126645727739 -1.5021765350629805
P 8.234276760856197 7.89402408546199 3.221077685041701 -1.9156742009767849 -1.4511869313889911 0.17432439387960943
Ni 5.425456957283415 6.567662782461643 1.1020220965209386 -0.17566548128853618 -0.9815057763050838 -0.1859807471716152
