# total energy = -340875.6576353736 ev
CRYSTAL
PRIMVEC
9.24470861851634 0.00000000000000 0.00000000000000
0.00000000000000 9.24470861851634 0.00000000000000
0.00000000000000 0.00000000000000 13.53056553266605
PRIMCOORD
 96 1
Ni 3.102570351536733 7.012407127104368 1.8112694868218127 -0.018377731176239316 0.17139976403364676 0.3890765567569622
Ni 5.839836051947965 7.58241735560231 8.764815555752929 0.6412855789291924 0.07762314710111794 0.03877840631977838
Ni 3.805519486353408 4.772904259302282 12.667748383112022 0.37731067447028566 -1.4603290028995755 -0.16283027719708087
Ni 2.2271149585901875 7.89597012928885 5.700210448067317 0.08343538290752082 -0.8430338733477094 -0.7181101413884149
Ni 6.617445451537247 4.646140818172765 3.209680467148657 -0.5910652493210594 0.785780291041879 -0.17597761321231628
Ni 6.705593745817435 4.554655184172057 5.673880594167012 1.9487570995736823 -0.6713487168631599 0.8285819595884375
Ni 1.5912084488516383 5.153416455691644 1.0840067689996953 1.160701896454698 -0.040370947617878856 2.295422024133653
Ni 1.576953108549588 0.7023547000686711 9.921421944030206 -0.2009653935059055 1.7395790883499977 -0.704505920341419
Ni 3.9915877316577983 4.956069666179406 2.652802346886164 0.4304381504228845 -1.2371083975398953 -0.228035253139504
Ni 0.2772867072332889 8.947749844920876 6.87961613611951 -0.035493050700287264 0.41754792472377766 -1.1469907175161922
Ni 3.7839330923162566 8.849108806644042 9.544189770169487 -0.039355618979487056 0.4128448628211535 0.7246530847132552
Ni 5.675779457265612 1.3985672158982483 5.418585199197354 -1.3343392915696115 -0.8853362336603463 -0.20486112901588588
Ni 7.935260139848977 6.850476815346446 6.887260585468255 0.5171213508437417 0.3920621217478474 0.23618847837425774
Ni 0.09063327188926215 0.41087644102106446 2.087806448206531 0.13606380773651403 -0.38550760845878124 -1.1631310747214807
Ni 1.1065638574153913 6.023962908495267 10.739805129872533 -0.8745753955994163 -1.091886577453197 -1.4706208717438864
Ni 4.468124713856109 2.417315588534666 3.5470781171264294 0.4608635567922773 1.1716082589545564 -0.5304234672692865
Ni 8.416743041023679 4.903504254404141 1.48757711699825 0.2400613310661027 1.695345829563235 0.904402763373494
Ni 3.6543592598431442 5.855912599798333 5.478905072350933 -2.6242473494090417 -1.010300589049589 -0.4714894119372396
Ni 5.558122053877677 6.603680080778651 6.040828954440183 3.272264847745429 0.6891834310517356 1.229639857076992
Ni 3.813617850882978 2.546112865504943 6.725503149756797 0.27201525826487993 -1.0347183557723212 0.016348873671668616
Ni 0.6733762372211954 3.781261371598168 6.571686918532668 -1.863377191345281 -2.2574432308970347 1.5417836079316416
Ni 5.584589653932651 2.791624585609712 8.320796835235852 0.010214478639156602 1.2103447562928058 -0.9388537459625121
Ni 3.3891470662081096 3.0653511556508355 1.0221790839114442 -0.11165272588200127 0.9995448931949817 -0.4972220408166534
Ni 9.140936515667924 4.119506761333201 9.270697091250051 -0.3013258343035391 1.1234736082308585 0.30928725524246087
P 7.407941974590249 2.844790903428838 4.062565829087793 0.6013506904074676 0.6095743638688406 -0.13615816722253324
P 4.763335986142345 3.9885739567301273 5.207075516466736 -0.3343583392784758 -0.7182296976854147 -0.3464265832969195
P 5.718277381629119 3.8907834316230656 11.214226922796453 -0.0854963792016076 -0.3122535369596364 0.20842827754185395
P 8.767209935220004 1.1198947268807329 10.94155887186336 -0.0657096834929836 -0.7661550606117837 -2.2389264030397698
P 4.752556656186321 8.452030092860856 5.24857408785576 -0.45044673233432747 0.7710334717500076 0.5069007015569981
P 5.17968991687091 1.6831285841455992 1.3920376783785737 0.03269517624017595 -1.251329940455916 1.5504675088588844
P 8.498586444197514 8.199085627228948 0.45106965958865514 0.3078296968603279 -0.19211668486602398 0.4751478346254333
P 4.8116210979436485 5.68813963235241 8.107122041805662 0.6594648209413804 -0.5791962657976154 0.9111773630931661
Ni 0.5647804969746804 2.6407971686006633 3.801168926595856 -0.040220795193259766 -0.1633558106832477 0.10064043393189763
Ni 2.815170857820686 2.7396046116281054 11.700231410833497 0.8794062413291565 -1.4977066722170853 0.5562296296991129
Ni 6.816345352055155 6.713664376221904 -0.21696960749222008 1.6206141450772993 -0.10231293653831411 1.7783657221998919
Ni 0.8122890740867404 6.0856990709706835 8.186221615536144 -1.304471814586218 -0.5349599216870593 -0.8677005228564542
Ni 1.735952847755143 2.838458278197382 8.5702190669799 0.6966280602552389 -0.5645402064473374 -0.16149176089131542
Ni 4.9822876591084695 2.216649948718643 12.923285989440899 0.08425839302944844 0.5886625534168378 -0.8323067167381922
Ni 9.392069018459884 7.305344201132301 4.817976834946022 0.1878548242658765 -1.164553408990304 -0.7424011527252956
Ni 5.020616219998418 -0.1899769080019951 3.1132073129839055 -0.34240614928361673 1.6496658110276168 0.9456823388485713
Ni 3.2182308979173775 0.4203568894515137 12.30461438951111 0.8822215992907646 -0.2523362917787138 -0.4583387334878945
Ni 3.806129637105636 4.23693304701196 9.57280676491981 0.6223476043741089 -0.6945513802318684 1.444018695775326
Ni 8.954424524361913 8.406287275860503 9.105366575754715 0.29118360366321466 -0.33602235724446 0.5254509537553597
Ni 8.852094847446612 1.6289083695726252 8.344732309669082 0.32123517163295645 -0.7867897061429998 0.008413163764359704
Ni 8.077425265118064 4.833549546190382 11.707226881654874 -0.39747018013729607 0.29285584915931495 -0.1886166421325655
Ni 3.813969149800927 7.384626820088452 7.367582351272051 -1.0337968723993163 1.235412240784395 0.7469386355843329
Ni 9.017584371925862 4.706619700310258 4.394051488064813 -0.9950950849537444 1.3901062620275866 -0.18041636570996025
Ni 4.898660027219787 6.745530885963257 3.7819417821339854 1.4959981741664106 0.6145353074185416 -1.505422552804104
Ni 1.1915227273089346 4.138412189943898 12.684431383831269 -1.0360432452313317 -0.508352089291544 -0.8380932415129825
Ni 2.6496351097996 0.24805863725990196 7.46741041010322 -1.0253122319670729 1.1179922734013132 -0.029627078837813486
Ni 1.921179824598128 5.8581960427650035 3.668989010834062 -0.14828194706926073 -0.3793161349360886 0.8196998266074593
Ni 7.212360924376125 2.6270225531337013 1.815869653705276 -1.0644572775976509 -0.2939020310356422 -0.24529661132311303
Ni 6.058713767247153 4.558445514602563 0.37966630557377373 0.2903999314196547 -2.0913219416535083 -0.2934734281386559
Ni 2.657678006078967 3.6652680157163084 5.185833025580841 -1.9377615197941274 -0.034630445589675846 -2.3160571838855013
Ni 7.348091732621718 0.7830979829468219 3.4108259073289324 -0.20576178645328436 0.28881098966598 0.05161129641838853
Ni 7.891736052856724 1.6333088507553593 5.732805440827998 1.868599616086485 0.6419687210391459 1.5691262616106525
P 7.337460317999566 6.518924594469184 4.4084205382797785 -0.2394992879150456 -1.3828482949135925 -0.46757130782975603
P 1.7026071846750548 3.9691693138676083 10.499826367725465 -0.26936805045001994 0.2013770271220274 -1.025350798514492
P 5.3776468571353755 -0.7476454508298742 11.116089721125626 0.09004157537012879 0.08454789924540923 -0.6861713836982892
P 7.2355004294189476 9.125941598696507 7.217757985120832 0.5103536931026049 0.21133439544505542 2.15077304583129
P 3.6341225932275876 1.9027736102392547 8.770430791615098 -0.23866650760110508 -0.9560544261115146 0.6253485959839618
P 1.9283999418328241 7.5534259501631205 9.034859033980604 1.6159581343625267 2.372221646892211 0.7257440037845889
P 2.211278773157365 3.662919859791068 2.8367239709077166 -0.3571401130596817 0.496057588194907 -0.03887893645338466
P 2.057234197636569 1.4645744336392603 13.848939224349898 0.8128560642127485 -0.5048163082241435 -0.3142893364427426
Ni 4.6161140053964616 8.582639332671082 0.9514737053782779 0.39705237587358716 0.5900010697226032 -1.114876610590467
Ni 4.725118361752802 6.910401014981914 12.623827698130821 -1.9044379659413329 1.778367264861789 0.07465018051572304
Ni 7.047999254317659 7.957530642305294 2.321546881147486 0.4006313514740971 -1.179803650281155 -0.4375125407711626
Ni 3.6325509928051822 6.604012890279867 10.436815359966227 -0.7775455618369125 -0.10206328242135325 -0.1790832487208335
Ni 6.772636370895562 0.41656563455017076 0.19417308112981657 0.36923098278594474 -0.05477169642424116 0.43318383148882167
Ni 7.011149846766444 0.4150448800237847 9.829888237545989 -0.8823815219073964 -0.254516073038852 0.230718456398622
Ni 7.444384614973312 8.469382410465881 5.251212527623727 -1.2390040719007112 1.3277726940956875 -1.3817270368249557
Ni 2.882925325443078 4.847167001615103 7.519489550218376 -0.695518372130828 0.16731813776510537 -0.7882999721399392
Ni 7.2465293665008845 2.8211429394258256 9.788998892438359 0.1373177347482732 0.27108194781733314 1.8120116923891116
Ni 0.443586068165497 6.492207387288299 12.987109607065603 -2.101004459048595 0.23870635970010504 0.7727784794655723
Ni 6.9933445384514314 5.359970974737503 8.429203983431679 -0.376761486835035 -1.176577944255006 0.3472377663443052
Ni 7.835361821234219 7.940899411952901 11.713234093151808 0.6717706348919269 1.2084488248216736 -1.2711055804209463
Ni 9.428493169426211 1.2879727697027687 12.940226917523589 -0.7374186119090397 -0.7999689238374352 0.004940374724410847
Ni 1.8338635540709771 8.269595017944733 0.20216420704232788 -0.08157724665285951 1.0608361359052956 0.4340292102082525
Ni 5.983489575264153 6.206555143453632 10.84349008103445 1.3332074919580137 -1.04936773025438 -0.608021931780056
Ni 4.841296611802003 1.7971250830201675 10.521299976320538 0.6966889954001614 -0.2828396025738935 0.5499396829253431
Ni 0.5758242255900042 7.210780079245352 2.230215633776509 -0.5864840577082803 0.35018733589093237 -0.7026423847701189
Ni 2.7214942279369785 1.2432838494562628 2.411755820922699 -0.9042294710204234 -1.2043396877493064 0.005726875181448202
Ni 0.4494490622119045 9.70407792584912 4.381115367646745 0.9688940010783442 -1.4044013384940202 1.2867049775211001
Ni 7.280401977957896 2.3361100702381608 12.142653570215579 -0.6992796389454732 -0.5543984900276452 -0.8035175604206419
Ni 1.4380698547508175 8.22574736615963 11.268444363956917 0.05346274780483051 -0.13452063161911026 0.9165843930413505
Ni 5.1911810893712005 0.5044504546418975 7.780386313987654 0.45342201291256756 -0.48585262263744705 -0.6373687603732895
Ni 0.3402034189671831 2.653610334397448 1.3873154813446649 1.6920471042073053 0.8373995578800675 0.18588998723002179
Ni 3.121216928313151 0.6558066689695438 4.771675637560296 0.04794233220723356 0.6803182673516219 0.5383815457740987
P 5.099371890577645 6.216585652031923 1.1306666610700644 -0.519373380102712 1.308666569393856 1.4763893987965477
P 1.126800524030948 5.636360020788348 6.033982323423517 1.4421415333572711 2.882061890693507 -1.7549470861656356
P 2.49169851205626 6.423260352286553 12.41674253282469 -0.05809767547368058 0.7539289508592371 0.5786406504044616
P 2.2699456924549084 8.368051162054224 3.3444581459616036 -1.2122692270090283 0.1150964614562276 -0.04564376598104398
P 8.15164178388905 3.534584818239146 0.021974671788569346 1.1766589340045863 0.28444937026317463 -0.8944507943671048
P 8.189619045861049 6.547777329282868 9.859790246759337 -0.6056732290422214 -1.1638676957771892 0.4985968096769929
P 7.728012267675587 3.3488031588941354 7.711055623588673 -0.13197678215133402 0.3691916449075771 -1.295802311836678
P 1.518221476293475 1.7763522233193196 6.108319947874112 -0.182727273231324 -0.8440026650188819 -0.11966454044288423
