# total energy = -340889.48781251564 ev
CRYSTAL
PRIMVEC
9.11338344433988 0.00000000000000 0.00000000000000

0.00000000000000 9.11338344433988 0.00000000000000

0.00000000000000 0.00000000000000 13.33835786570698

PRIMCOORD
 96 1
Ni 6.517536469863095 2.0506024253054833 11.539146577500349 -0.3868193852916693 0.5518770091573721 -0.8340008166111638
Ni 4.569733010636655 0.14632266308261757 5.854418433630281 0.5058452637092902 1.4816910135151191 -0.4647528645443544
Ni 2.747028966956941 1.6400080443014693 4.957200358287941 0.3280421672524608 0.06849393110634011 -0.6043195432278045
Ni 3.5897982211347546 4.4303529231177805 5.129025913806338 -0.901965357576595 -1.4943056169553361 -0.16273823170390683
Ni 4.7714942083338165 4.637919346115681 2.3975835666796264 0.9592811605789285 0.7478768311278863 0.5720074613586601
Ni 7.251154729650065 6.046210501097489 2.843777557718621 -0.6622871208815239 0.86465710804444 0.06066029399453423
Ni 5.255515120339503 4.526271284641003 11.965347627778332 -0.879121363098886 -0.5030918693338691 0.4051444088531022
Ni 5.804113467951228 8.138889418103943 12.58107242436598 -0.04825780656512334 -0.4772944486547908 0.39099819925970725
Ni 1.7433082464739844 6.764235761685766 0.32991906475240657 0.5764963503679491 -0.15748032573907716 -0.04536505839836058
Ni 2.443598862736924 1.2212845251997149 0.26498620718918015 0.8003317064934927 1.3826040401132704 1.0390156975960945
Ni 0.536709027474604 9.172893912016036 4.682937638016148 -0.159383456299061 0.1103401777181648 -0.26034682078801613
Ni 8.638065886899476 2.4911524979319997 1.2969128496592506 0.35801223125198983 -0.4318712833249852 0.15596825996992492
Ni 7.181327985137862 0.5596446797734633 4.695542358759404 -0.527007499609202 0.8096578689904249 0.051472199737362966
Ni 0.6174080385233577 7.4247737990447344 2.7986006929449467 0.17483578629838922 0.0404226267914207 -0.0670728823890974
Ni 7.333184294692394 3.6530451027472166 3.9033633191647463 1.4988770383761025 -0.11464780395458318 0.28791187489047837
Ni 7.428656100423252 3.7985129304558796 12.89257698638263 1.62169529395662 0.6520872975303866 -0.3063723955885111
Ni 8.028909105812993 9.014621780465083 6.957274540018188 0.594993380730872 -0.6466846384575765 -0.04322384368564169
Ni 6.918744065843934 0.975277850524384 0.34627849950493256 0.30697891882425843 -0.8671713898258615 0.007887373167876738
Ni 1.8944992790317285 6.564078519487712 9.237279966568204 0.45439337568690125 0.3043821046313596 0.022251098088716517
Ni -0.22845247534364163 4.9926851396905985 1.4426230933694821 0.6130301836279248 -0.2809606403836258 -0.5078095865245126
Ni 6.567368450937582 1.8016976946715413 7.001611150831535 0.3192469375583341 0.36285490405627185 0.3997756883420212
Ni 3.2818752188405385 4.232164171759537 0.5065938516405435 -0.6962850750935234 0.3090465999865645 0.2065611424261281
Ni 5.825347651547343 5.190955911500501 4.920640197630201 0.26668407585995363 1.6918938664588925 -0.6190015707200113
Ni 5.07420435525594 2.6687450025403634 9.242588512467233 -0.23273934348339273 -0.4309369444361739 -0.26080370581977663
P 0.17087502961750717 5.6803901733156685 12.608829967884025 -0.6555716565345613 -1.1642207082412335 -1.6315858135974544
P 3.9538687792811875 6.095605039763129 12.865126563889131 -0.04900162670968335 0.9039983288462238 0.3811040800744469
P 2.0710072910014925 8.58683044476327 1.5109825831353436 0.32976249237767724 0.15090910027946267 -0.04211389845091457
P 6.487453190871347 7.9255268831888195 5.682913669211705 -0.5049404925068336 -0.9767191535497179 0.9042217577109395
P 4.825408985224209 1.114220495634412 12.883666831317429 -0.8047961700227494 -0.0055507546149001176 -0.5101701163368891
P 4.381623661448929 6.327476856602591 8.167250267610857 -2.080362871538843 0.6097713103709951 0.0038070324509160247
P 4.674299973118124 1.2038415091469408 3.6639401527425624 0.5558110541044556 0.031651822577326134 0.020234581879319993
P -0.05069046180184952 5.4485639233937935 3.880488726535455 1.2685486183270474 0.19900441312479275 -0.7492477433334839
Ni 1.6436807378590805 1.4476974253121073 2.8129533606468873 -0.7194897953447609 -1.6763847150797 -1.658687554910253
Ni 2.028028574332275 6.501998150965509 5.000003186655268 -0.5739969809848631 0.6656082148349569 -1.2468202255110206
Ni 6.237655348652674 5.834060046190212 8.9099700635169 0.5727361119945685 0.367971913567863 2.504918337928705
Ni 8.715219791759864 2.371120123621087 10.205191469195274 0.6082335335702299 0.36691081929320035 0.2686553406537115
Ni 2.657180118856471 5.438994870700266 7.0183770424889484 -1.116934007340128 0.42166040423025447 0.6754226298222175
Ni 0.4995564968882174 9.245800980157203 9.206748309107386 0.8651281341435874 -0.819059621920299 0.2296329366439271
Ni 1.4941210009509953 1.0447673998464333 11.326853953810197 -0.7295068132611308 0.010467218079911005 0.7170590744160812
Ni 3.833089107521827 6.823108219209759 1.7597296522344306 0.7722604021785733 0.36513598678096476 -1.1331342712490742
Ni 5.918468204330647 8.117737254959488 7.890825852768679 -0.6897878974049539 -0.36368305638452203 0.07470340235116167
Ni 5.141552259451342 2.664498165821141 5.247897243057103 -0.28296301552563524 -0.6802300785131898 -0.9110632061128052
Ni 0.8071295452553564 7.583647413907855 6.959675005236736 0.3680796427903209 -0.7200405256419083 0.17225594138635494
Ni 5.16165638349127 4.47154541661754 7.351582393337818 -0.16135574953408338 -0.44295376639139195 -0.6156182560700754
Ni 8.218321668843744 7.28771762432286 9.093185525755652 0.46688328062379597 0.022000929751123402 0.30655391547169786
Ni 4.988328942369163 0.40611241899003614 10.726347596358664 -0.6830811748087396 -0.30822204720274016 -0.3359750489462924
Ni 8.330953975738328 7.228088755966903 4.842503870026609 -0.055135250411246985 -0.20311894951379858 0.1987904973417738
Ni 7.364379406473296 6.255608714182437 6.9424953659676225 0.3806428241673122 -0.5119032969779119 -0.7745818512228982
Ni 1.9730201914197647 5.535268654180676 2.467943444127611 0.3933548724173419 -1.8568854129733505 0.9782474172687862
Ni 2.761501019982963 5.196104973187969 11.280795824850367 -1.38179517105873 -0.7896654850288981 0.759231594019073
Ni 1.0764819744878407 3.4549383718406323 3.963586380126053 -0.4197611303250126 0.9070563989462571 -0.3145737004523808
Ni 3.4059721622003214 2.8630879060541607 2.850233478602521 0.528364784968045 0.6425096811442805 -0.18369683623344493
Ni 1.1330122924477977 3.538307604260056 8.326963225095952 -0.7944387380478254 -1.1181403689434033 -1.4430002818131407
Ni 3.569466262506887 2.7389180556262365 7.268685234184608 -0.5012879833559108 -1.1404107503058296 -0.13151218381008964
Ni 4.361355496505684 6.987732379072512 5.898422405945234 0.2736077995629804 -0.7603849908972259 0.5285846142883348
Ni 0.8653923174220178 7.494545863255831 11.396906710233637 -0.3025244825973306 -0.6445447092964383 0.18536728195733237
P 0.3648925853397241 5.574911872482436 8.011671140889367 -0.8721143356534335 1.1827226237001631 0.508090350989725
P 8.761251491907494 1.6648055608529837 8.00185420416416 -1.0024011316968542 1.046299118631385 0.2071093016201143
P 1.9898799509274097 2.974298525119992 10.265974091904566 -0.48028335607978573 1.2335903570843076 1.054298591897094
P 3.996309806322864 6.056107635597653 3.9414044046441035 -0.6063368307681493 1.328405956804312 -2.071792870481645
P 6.316522569614381 3.960357508345751 10.258037246199049 1.8451084749430804 0.917929079994703 0.2293974235943533
P 6.441066068766529 7.893958122683695 10.341949636276123 0.49934937157230136 -0.2695696249378648 -0.2283522701592906
P 2.378629551639627 8.703828062362808 5.540446878695403 0.6827045081956113 -1.7432138568891076 1.3941045845537021
P 6.838701218408451 4.1719520468584514 1.8022654584646907 0.2989568198507303 -1.1364728487040041 -0.2190140234775002
Ni 5.459572890683111 2.969878534113934 0.675586056223305 -1.1492905692939626 -0.5709520235109522 -0.36739110136372854
Ni 1.5550530831499751 0.9965211475040163 7.081213821843117 0.18208552588226706 0.60928151521877 0.12184509303397081
Ni 7.015756033389274 0.8095090496918137 9.29635565254464 -0.4007251967394841 -0.4036565114536661 -0.3714850689274441
Ni 3.071492760335685 1.2764842891660957 9.536379390940636 0.15140146653484893 -0.4059203677871783 -1.617895203484239
Ni 6.653763326684865 1.738924709001997 2.6067949554024628 -1.4387214519321285 0.5530489179782863 0.06040601189188306
Ni 4.540132740971342 6.662430154410146 10.777246754643068 0.24257304174436287 0.9626097107315292 -0.6662409633229494
Ni 8.276064066811548 7.211046728788906 0.4259312941258604 -0.5485913964275649 0.23725600040682363 -0.1044099282766589
Ni 7.750385878746702 3.9316959171827555 8.579151507811302 -0.23264884065211547 -0.08153173812690474 -1.2012039703338022
Ni 3.202142226444655 8.49090296985653 12.302928314054023 0.30580058224544104 -0.8601800461096929 0.41999407227142505
Ni 0.2700249969360865 4.940264957697099 10.304415254920347 0.05904229877513703 0.3610728724551846 0.40557532574293376
Ni 8.892156132754957 2.2748463401406767 5.737187513412692 -0.5102446783285665 -0.04146006691699956 0.38356693979264267
Ni 3.481239596672558 2.7894608806151 11.934415892781091 0.5048559032128274 -0.8945590378101949 -0.6218835202534968
Ni 0.9843365537409239 3.459148755025785 12.305489174822482 -0.13491606728531605 0.15791201395985707 0.6179677301388583
Ni 3.1274215949834767 8.30404215421072 7.938297467512096 0.6704022937894906 -0.13321939630918347 -0.07610619623595925
Ni 5.596155169462069 7.915638862072174 3.6611259399123135 0.3076813442079217 -0.4514564045457644 -0.09986601765971834
Ni 3.3286906699706846 8.517705430781927 3.3288009419112483 -2.0933623691223042 0.3621799894764343 2.154587020260741
Ni 3.1507609701721684 4.417266104386441 9.023185626956614 1.7905951743865485 -0.07308129336670639 1.2474074654730583
Ni 7.183897959289839 5.993179722408308 11.31118075683655 0.49540812753636615 0.1131424230536503 0.3975869082208185
Ni 0.3399847968476464 9.202239006942856 0.13120447116519496 0.21623774628394374 -0.15587030093947996 0.35192591584859395
Ni 4.715820548424518 0.2539599244711805 1.6584644686014056 0.48210961065524705 0.31965497163003015 -1.4279513578998182
Ni 6.274200016558433 5.811267474012579 0.42748330333891554 -1.0723968441597014 -0.300601811653321 -0.09974697558335079
Ni 8.167131793625128 8.986506992313144 11.35096887793624 -0.7504466487375914 -0.12700298308582644 -0.1473488937320301
Ni 0.021632438455835856 4.764376655806535 5.994364462265601 0.15684192082412987 -0.22776117354251096 -0.005110067533055715
Ni 7.954060886982568 8.864980023105337 2.31904716153961 -0.1357467907167275 -0.3902587499905214 0.020131737752868552
P 8.71693310786118 1.5889639832191351 3.3919576010268857 -0.9455072467232879 0.5279575222272972 1.0504532500090746
P 1.458998020873988 3.413080601344085 1.564389744563803 1.792109554148546 0.2752023977436099 -0.21721347993365175
P 4.791698579592437 0.8604710903224891 7.968188454111623 -0.6190967015369789 0.7320745739883069 0.934716840976003
P 8.567683225992695 1.7761164271375096 12.406313270693252 -0.022987462034108796 0.41540028225315556 0.0756912201857277
P 6.218070687473254 7.6610109265891495 1.4273909841580892 0.54636224998673 1.077796675019034 0.7982416567336834
P 1.8876460146264589 3.309743945637499 6.024775823063986 -0.7431609137094556 0.35807548038975756 0.8006227553713502
P 6.782043313079247 3.782564509299999 6.1399124877492195 2.3425570299482428 0.024734012411570305 0.36251423288740153
P 2.48120068313073 8.414222960939059 10.273296695560994 0.425234494734758 0.0144439433394719 -0.7040783458856971
