# total energy = -340890.16916311823 ev
CRYSTAL
PRIMVEC
9.07778940250816 0.00000000000000 0.00000000000000
0.00000000000000 9.07778940250816 0.00000000000000
0.00000000000000 0.00000000000000 13.28626238758338
PRIMCOORD
 96 1
Ni 6.484528275087338 1.7627251594943776 11.56787069638712 0.6005546768687335 0.5849393389289796 -0.13936047620991482
Ni 4.641755168036974 0.5870751695579184 5.871956318241997 -0.3712732100269541 -0.9197211388981192 -0.035282734461694075
Ni 2.4316311544604026 1.4157902014886297 4.940457107246031 -0.059751923247651925 1.0345736026643406 -0.0955409079218032
Ni 3.3359696193588957 4.018782787794616 4.7908406122994736 -0.5887456000489473 1.4715631810524978 0.20926208629705897
Ni 4.993737376988642 4.831217712087891 2.2834298868923866 0.572765422570607 -0.723352877844593 2.5348698899854734
Ni 7.381441108198487 6.135632514555837 2.5809889324070343 -0.30310632324272957 -1.3448538179476903 -0.9569121461261199
Ni 5.077779551911905 4.685510113287582 11.7066192617789 -0.5365596620740114 -0.1730326716513794 -0.5805918605935614
Ni 5.892810723993909 8.178325779127803 12.695834150453049 -0.7063661134786093 -1.726881695387987 -0.9163452804473509
Ni 1.798727672536682 6.732306538700475 0.0854928056807403 1.7750397431504528 0.11774006972666175 1.7620443593320494
Ni 2.9230845208457494 1.5684786203922008 0.5863108196844534 0.0743511612180655 -0.5214233206532052 -0.8036679699555772
Ni 0.019524509594399567 8.921252069441017 4.917750832442017 1.4996769085695785 1.8674403056710611 0.3648097137897975
Ni 8.454444901469653 2.5169805310675 1.2251965648696155 1.281655845132967 0.1535676209482323 0.8045976808586982
Ni 6.659883934300197 0.4899509922278829 4.631006157524268 1.0599822725454326 -0.2244614197453167 0.6224183097110442
Ni 0.998230041397877 7.477375187328865 2.5623086572334453 -0.33233590953180825 -0.8640109898200087 -0.03840996723676611
Ni 7.691420385267468 3.6844568793641983 4.002872146188653 0.7337617318827427 -0.2191286946784936 -2.0732933662865713
Ni 7.62153048412962 3.9660408309676387 12.620846162748242 -0.1687543559909997 -0.12773523326616068 0.6586230417663754
Ni 7.574407678985242 9.041060734880334 7.049504473956858 -0.14538508513743995 -0.8991363727682322 -0.8971980180949387
Ni 6.899964232441858 0.8317234113614275 0.5504335801368497 0.5183945611292105 0.10263149621999743 0.567618588262345
Ni 1.782305951383498 6.605662297789435 9.26682263568926 0.23551382090473633 0.1425393881585287 -0.2096446664474583
Ni 0.34663266761636097 5.069137496335435 1.2933553315553281 -0.13234804944782366 -0.8768845033485672 -0.32526229051447847
Ni 6.242641496840932 2.1213341547599347 7.204900797459653 0.6734364526301241 -0.11260763359610285 -0.6573500885912228
Ni 3.463530717006517 4.635972616143896 0.560022449155152 -0.9914333198314408 -0.40748308428860786 -2.516080268082796
Ni 6.114218009193559 5.527320764309273 4.765729631064571 -1.166914453023313 -0.11283131957113472 -0.18962657145431858
Ni 5.2965542781649395 2.5182060326460958 9.547693980819222 1.0357712225168678 1.2856099446847085 -1.3975249230891609
P 0.17951419456956055 5.824936092118642 12.40404131681043 -0.6394783505171245 -1.3354677487470998 -1.2189836629147266
P 4.001271731904902 6.49957925003039 12.718128293615074 0.19891905249983804 -0.9762291012871769 -1.3695675186442864
P 2.531459605273873 8.494704897773895 1.5042441820948365 0.7570075897845607 0.9372043832845472 0.07664792767204219
P 6.179496393280097 7.684112764743247 5.633508206647235 0.6254079884669874 -0.30965800831831836 1.1864602363657244
P 4.897830531226679 1.0120010480255057 12.842727308558281 -0.23258713417624463 0.7451974845235102 0.7032887601048662
P 3.85530087720993 6.083462458465538 8.087400824227569 0.17717780416800452 1.1510756862188434 0.5787206117127776
P 4.806090390831941 1.1809659434507238 3.6832840289645348 -1.7296955106876983 -0.0674991712932386 1.1510535747316564
P 0.18121718787433522 5.369802961407087 3.4853718784739356 -0.7324273293420354 1.2615282211451564 -0.1534686334765228
Ni 1.430178497800292 1.1868665066069262 2.590302744404363 -0.47196043803638715 -0.06426600906792157 0.4115937640228718
Ni 1.6322773247949534 6.357021644176544 4.6593724340635 1.2086696825832282 0.6855278365770193 0.5410058707708231
Ni 6.0072090269084635 5.398352609293635 9.206436272348688 -0.14621400879663854 0.31875817084737357 0.21804985979201802
Ni 8.597910286270606 2.304578413023162 10.3967133044599 0.44740614573579074 0.6866395815839593 -0.17526876007074976
Ni 2.1957357172649092 5.430388128337078 6.8133811842456415 -0.15918162470090005 -0.5307391987374924 0.8406406905251844
Ni 0.5728557201304182 0.06315508912925294 9.286074811599528 -0.010336863149633809 -0.41414121303507384 0.8930935090082619
Ni 1.6056430904868038 1.151699150195961 11.517369138001607 0.1604476358975172 0.24532489345788722 -0.4667076742778801
Ni 4.288783480032958 6.971442746737145 1.5605782202155196 -1.6649224800763713 1.5330773384068952 -0.033671681220832334
Ni 5.582767902398632 7.826797459649688 8.071337675758492 -0.22611155375422992 -0.5457035333568085 -0.08055163360182258
Ni 5.23773020239234 2.9350399695791625 4.840145718032699 1.7892528014260414 -0.26508562102458216 0.33917915770588686
Ni 0.44037899948420745 7.640584764229417 7.109465996750186 0.5297423820418619 -0.35375294175500366 -0.5508495963341222
Ni 4.909695202065381 4.673500197817342 6.971169505274066 1.0886158771217251 -0.08206112826781352 -0.7556047958997633
Ni 8.024520792119288 7.0446914299792915 8.99715146720872 -0.4781220867624088 1.190900531525265 1.1988732653180965
Ni 4.849164501872217 0.3206193541080331 10.44324151439392 -1.0106016652297758 -1.5700474878733413 -0.19511407693145105
Ni 8.207973839540351 7.013963112619685 4.537776351877326 -0.9956758971578786 -1.1357040888587797 1.022025076575369
Ni 7.238556701923684 6.055856900683983 6.894958739327505 0.2971069111261851 0.2057633291151811 0.0424892795124623
Ni 2.602556852411374 5.465310384432323 2.3932947417450836 -1.8191788995615124 -0.12604601848919583 1.8729272969275614
Ni 2.5153828401205898 5.347480677097701 11.324280017056992 -0.9825781834336562 0.025587104440484967 1.2560438009918176
Ni 1.2430671012223844 3.5943688966531973 3.6731069191885064 -0.03851589668701109 -1.4829017459937688 -0.022342372250942166
Ni 3.7012961788330525 2.8726029335970713 2.5810025490912407 0.0294733268687686 -0.7245841791485328 0.7000507127835428
Ni 1.227662092489961 3.3227069689416475 8.566716278311134 -0.00048439583558626255 -0.17783703501855824 -0.7098833826032485
Ni 3.93109134150398 2.603464631358482 7.109438763381773 -1.7921067259350685 0.04352440564519601 0.009186037374642245
Ni 3.8721855656261392 7.242115195396347 5.916239590839821 0.6975436300909729 -1.0778115874173695 -0.2864437749853841
Ni 1.0183010339184355 7.80925009260209 11.476354777392318 1.1748810161685574 -0.8833482566960401 -0.9229620144329201
P 0.23951293629971887 5.66425921848052 7.9865983266038505 -0.22366077822089223 -1.4144816055481575 -0.32936577115989085
P 8.420548435584639 1.6991533998284023 8.142857947885345 1.2890930181373026 0.46529793841454703 0.2500904331673306
P 1.9958518709011916 3.3124127556814424 10.777736269708502 -0.1680925540372847 -0.7767068679857011 -1.0243372696483133
P 3.96940869086141 5.969917467761266 3.961471979526844 -0.043638562625557105 0.4949553562696637 0.30523622510153886
P 6.836428783933767 3.86286267583934 10.567627201284557 0.15472076071606902 0.030655262992011725 -0.7924096234329385
P 6.297026533562174 7.841775812276971 10.447944717118888 0.5294235652498624 -1.8976908770254863 -0.9636859745148435
P 1.9816542081684219 8.522119821976556 5.753217016402371 0.67127698308496 -0.3600413458668767 0.4335774673828146
P 6.812182008256511 3.939905875080399 1.5805865759887276 0.5432062208562516 0.39597225543553094 -0.2643777963242802
Ni 5.0834622481208 3.051081352387982 0.34723634061618774 1.394491535579476 -0.6059313677996145 0.4016273968387793
Ni 1.28890993805134 0.9704883167742555 7.286797890730899 0.4019742386552367 1.3761978794766108 -1.299984982459458
Ni 7.069265006077506 0.5734448686670913 9.298988874901088 -1.2782298501705533 -0.25794309644253 0.4056529730584046
Ni 3.039007892391445 1.5945681873320858 9.285078070315604 -1.1767970022443475 -0.26344500009736566 -0.25469733581172266
Ni 6.634293645781222 1.90357614092766 2.71981738234616 -1.0005681922531735 1.2317221935273175 -1.1087363020206842
Ni 4.148259299020634 6.681861262609683 10.19531982170714 0.5803548048820908 1.5187796908373004 0.39669833496827805
Ni 8.321936408560294 7.397063983878217 0.26628696856572315 -0.8592444216693008 -0.24330991991038742 0.385347171621517
Ni 7.589903465612376 3.8210322219566017 8.12363300534349 1.237283746775495 0.2863540434850552 0.901527498708228
Ni 3.384880749029077 8.620187181632637 12.441149504610312 -0.7192604529427742 -0.9419673518908294 0.010870367055600634
Ni 0.12701461472146172 4.893209936385899 10.105371636953993 -0.4466975497045404 -0.02654098371332203 1.0447546569624009
Ni 8.396047481802194 2.0814826589818924 5.956736517449257 0.5042671205888928 0.48555180356757666 -0.6289450550859684
Ni 4.030701925370145 2.331639303436453 11.42998542877404 -1.7313186481134182 1.3487667798488514 0.7072526298486207
Ni 0.8651469244149981 3.156719588462944 12.672689418417582 0.5963072144462892 0.6080820955940301 0.2510049745618
Ni 2.9910317750367854 8.30451613056529 7.899453363239374 0.3116102469486827 0.1365785425894035 0.2891534606070633
Ni 5.466935308747646 7.617926601709601 3.493038071682263 0.5629080701605531 -0.022854536000670316 1.2210829686459164
Ni 3.1149345235275607 8.370783993704176 3.8478207786857603 0.23112880446316322 0.1485979356477828 -1.1655581961057344
Ni 3.5131499142554414 4.273805127405676 9.400083677345773 0.30439778836064346 -0.18231589672551826 -0.5296282250615008
Ni 7.2130390357204766 6.03305349353263 11.500881148985284 0.11734977626677855 0.9206999578716207 -0.650536408103499
Ni 0.7447427559863771 9.146780671060537 0.34094452473378195 0.4108653704972795 0.4806610511341787 0.2769893144407036
Ni 4.904893051435179 0.28174372069813164 1.8147309075952498 -1.4030481669002353 -0.08582625173720058 -1.181188960664456
Ni 5.913008805567063 5.80206914044099 0.4575287593529724 2.063036978665886 -0.00017689189749646954 -1.3353402220303003
Ni 8.09100652220548 8.675398297195748 11.337007985674393 -0.972504344137422 0.372110875436901 0.14943508683709747
Ni 0.07470476067330843 4.638015118774889 5.760285891063502 1.0220045077500783 0.22010571387978223 0.7825494428094071
Ni 8.192024163439664 8.777033228113963 2.5665870194111653 -0.4544355417787464 0.29353436328357835 -0.4581271316977207
P 8.507695214507011 1.550858631028834 3.6370081815778086 1.162212162451637 0.765551879810146 0.5735766056179928
P 1.8213222905302013 3.1803309188772233 1.5343107286020017 -0.6751796605734759 0.758699632775003 -0.5472114853609027
P 4.749417751163986 0.7983480105920535 8.065651348433807 0.022401507623651742 0.2331630612843726 0.868442286118485
P 8.466881473045033 1.402037350439943 12.47924172478886 1.1860406323298027 0.9768942456750013 -0.07010241324404055
P 6.525659739180804 7.850690201537573 1.5495105792923785 -0.21677407840338797 -0.4449584555262466 -0.5820442767693718
P 1.96945365911929 3.211803614973459 6.251678436259392 -0.9971527388137214 -0.597298631825281 0.22460771551519382
P 7.1424955337407114 3.9313999863459963 5.978605820064037 -2.613812527228963 0.390047919531296 1.1519259500342807
P 2.6627516743941073 8.639413939732385 10.166515087936455 -0.9253425988499546 -0.2317767224598073 0.36281196663347837
