# total energy = -340866.48682389833 ev
CRYSTAL
PRIMVEC
9.31022195628486 0.00000000000000 0.00000000000000

0.00000000000000 9.31022195628486 0.00000000000000

0.00000000000000 0.00000000000000 13.62645092468067

PRIMCOORD
 96 1
Ni 8.788523798032228 4.707704491110579 0.26884755929113624 2.165203362324007 -0.9917367100044728 -1.4403831559052678
Ni 5.140769471767139 4.333191497196987 4.606012659277422 -1.3420729127684436 -0.2489180101257842 1.4897894742525375
Ni 1.5788460829775484 2.044282705851518 7.5625444426020145 1.982360389450425 0.2877666075618657 -0.5192738784103702
Ni 2.267597692974559 9.277906312129431 8.302555342376534 -0.4109041941550149 -0.30861876842052655 0.7473181304109388
Ni 8.673188766743968 8.333123594574529 0.573982640212005 0.2777655304850958 0.5138781613160956 2.306785785885905
Ni 1.4466781701451175 6.957286904335156 10.654863022086591 1.3632801429736778 -1.8984429247001626 -1.6817470078328778
Ni 9.322418483956131 4.963353879562659 4.2772752343285525 1.4438317765755004 -0.22277014808582277 0.03634074341256322
Ni 1.5534291766636192 1.6483468909019 10.458709676897712 0.8963624095675208 -0.49691170866508616 -0.4832288118613548
Ni 4.484761912871259 4.199980839490139 11.700856232992447 -0.6093208530971377 0.3940495844915214 -0.22050500620072994
Ni 0.8047076330988757 4.6778559190803755 6.774076629899984 1.7373656256384467 -0.4677988504595298 -1.609606481112886
Ni 2.8097039947845017 6.252614814559091 0.4324439888429553 -0.05114721229777643 -1.1895733280734093 1.1207883480892118
Ni 7.669807511335632 6.164577354447547 1.6553006957831724 -1.1305276868641627 1.1808344055385147 1.962294986159117
Ni 0.3921595888686919 5.598608953413209 8.886544609294111 -0.6737313581627236 -0.514087192003108 0.45455715495827526
Ni 7.174764382205876 5.440642415161037 4.8071534904415305 0.012360578447881937 0.09663594075819486 0.9454421978133074
Ni 3.0969802076865505 2.082175309770087 0.831419591305943 -0.37259270016932605 -0.07813016864452352 -0.07952962009521142
Ni 7.938556382272582 4.517831821745646 7.34048726648374 -2.242747319447757 -1.0796139307334311 1.6626956476283814
Ni 7.036070003686242 3.458337857782714 3.1765574689821716 -2.1742690720707003 -0.6657799645261309 1.5171943486280517
Ni 6.5307763200320785 4.160431016039014 0.8065212643625949 -1.0881546212145905 0.42870959776755196 1.1687211672147486
Ni 4.778117700800046 7.257010884175565 1.7524565874126135 -0.15229801020718933 0.10603589391585609 1.0620849207107321
Ni 4.300763993647019 4.623903182051357 8.86839433132378 -0.9178568319958709 0.32385049776861646 -0.810341782431327
Ni 2.277215152396643 5.572065510226026 3.336164468367134 1.3123424755835462 0.9693367450427176 0.7161738435976505
Ni 6.392770897947328 7.802282661497132 13.610303647381885 -0.47906671006386525 0.4552343835309579 0.047893224136853
Ni 1.8520545502970525 2.599181252817263 2.8843654588150107 -1.0966305198960855 -2.7330502645470736 -0.4681822019408775
Ni 7.100450189459436 3.051862871423803 5.64557529978363 -0.42146371483841605 1.06532399647332 0.04285720437484232
P 8.835624211600788 7.006240052100225 3.5218652272121873 -0.5379231180804412 0.23850504232257635 -0.134322142455059
P 6.390704028642679 1.4264191268707185 4.407108143460055 -1.464329125197904 1.7986733234089924 0.08775123667405532
P 3.197884394730639 2.6648183185730137 9.137025893462358 -0.12685745864689765 -0.45085039553064926 0.7756987384361609
P 2.645099268180009 6.1375870205998995 8.517308649262839 -1.892116725371819 -0.5616261181243359 0.7573667728961924
P 2.281441993226871 3.8472723857183855 4.524594767074012 -0.40692926866766693 0.8318922549085932 1.411199592362776
P 8.987650828157618 2.5189271383754797 6.8475640749245645 -1.668471116659578 0.8531087410852082 -0.753638930422644
P 6.524538471229759 9.157795136907453 1.690388129785115 -0.06389525599206415 -0.4964399112349902 0.0017807460495066106
P 5.647282794515488 8.325749898676861 6.24515267155154 1.3075303989068836 -0.08341147164812086 0.5716603624318864
Ni 1.0316191590164476 1.8040231145191916 4.93659071513408 -0.8644637610867112 0.4052343974637472 1.5697466688034707
Ni 2.0294142811689744 4.525540685638662 10.240168971663968 1.0215000573098343 -0.9509939808694717 0.4150660388421884
Ni 4.758566234404717 9.361149007863073 4.522101489597503 0.20624361118570933 1.6295014202646003 -1.5884668709207932
Ni 4.94951888953244 2.123829243414232 10.660027402281587 -0.6482041604258966 -0.645261789968121 0.2527803212946679
Ni 6.456294543287965 6.513524478493722 8.199839386113144 -0.47746131324995833 -0.7722927980784055 -0.21365713004096107
Ni 1.825697311551729 7.174391973322156 5.193953184451274 -0.33170496081602874 0.3174764759214726 -0.48723613324853504
Ni 1.5168213833938873 4.39651962787367 1.595193901950672 0.3443357622061618 -1.6839810393697192 -1.5370291239657916
Ni 7.879101303986593 0.584107506738158 3.2836343332739286 1.3791937288801408 -1.331874374968887 -0.10160922560307016
Ni 4.716726096318711 0.24577031178918174 0.48229557304000037 -0.5169022928544 -0.9017164747905826 1.3527735870153992
Ni 4.769636088473311 6.203968904123091 12.89259817769781 2.1861735368177704 -2.2359830041407296 0.11474113499933787
Ni 9.204383488260897 2.664697285685804 9.081893551294156 -0.9191313278329203 0.47025708219203527 0.4130364100066693
Ni 3.420035604092053 2.2360732809676125 5.129650273521452 1.0283510187933969 -0.575852289026047 -0.3887425704563111
Ni 4.190158555182009 7.255437456641846 5.0373990068906105 -0.02791600968397773 -0.887271503009846 -1.3146104456821166
Ni 3.92098141402878 3.6180174769000017 2.72102506037075 0.5074964261594679 0.691013542281939 -1.1264288342044406
Ni 0.7734858033099523 6.453389753994943 1.6557913444874741 -0.754370666382346 2.6652572161625 0.5835774255844466
Ni 1.0121701050641407 7.2080949772988685 12.888660884774673 -0.1043803605903041 0.8108526606294745 0.6183446538623028
Ni 5.378459441801794 1.6863512174855844 2.5334296713297677 0.030220489447438274 -0.012114266765030749 -0.6206151950640344
Ni 3.285707719734043 5.673332795931742 6.375925913114437 -0.6819645447057933 -2.8524947185593517 0.16855612393726452
Ni 8.718064037232297 5.971297143796571 11.566431522324667 -0.1935709008140473 -1.793607221739995 0.6202549835111383
Ni 0.9119008751667956 7.470689791432335 7.448804252358287 -0.07327721142759638 0.1598395699998731 -0.09649144476053059
Ni 3.535370635380314 -0.04833308697367435 10.504794345235924 -1.3112171037298515 -0.9066743330164901 1.4442914898207384
Ni 8.222359882333937 8.363661123039615 12.039459700293282 -0.3295426630573873 -0.6860785668741668 -0.5880727423516388
Ni 6.147912056901053 3.69112134077435 9.634609782201299 2.071285334717607 0.7779080873826538 -0.6010874094437519
Ni 0.21459130902188622 0.889546100899259 12.650266130927577 -1.1749208682675572 -2.451420108900249 -2.2306469366397974
P 3.5194780862675388 4.157479675635528 0.25513174010370765 1.343947504083337 0.3511766963873952 0.34184436324287576
P 3.8457827501835036 1.1768586236674705 12.326146576136843 -1.1782401624487773 -0.0962811285219374 0.18538219435566783
P 5.67134971862593 5.2348213353507695 2.726094476300396 -0.1574168194909934 0.9243162144679694 -0.1495217330136328
P 8.535434720655728 6.300478666339277 6.4936033962813005 0.280918988512413 1.0831126879153088 -0.31700030761600245
P 8.217285811293245 4.346961315672555 10.15573922261347 -0.5138017995522054 0.18249381706427925 -0.8446634385313324
P 5.267667798894924 7.902702716992384 9.730103799187136 -0.32505043161398856 0.9430644416097501 -1.0998999346759766
P 8.733155907245072 4.045198397193776 2.3707707811427157 2.4329557315474744 0.46531182237161794 -2.0350402363426436
P 1.5320808374043375 5.153338271592708 12.38159267278958 -0.7778358393838216 -0.28751875321711773 -0.3523306074861803
Ni 8.969002453305311 8.288266944530385 5.312381071518834 -1.0864646351066773 -0.1734049673891336 0.5160054920717436
Ni 6.520814382392554 7.522547728490426 4.136758845345316 0.5788530235255838 1.0810141535150672 -0.661053762695055
Ni 2.4426577989895066 3.004632114745942 12.353277494338096 0.03267280764267277 0.060730228000521226 -0.9732391654209175
Ni 5.303158365513494 2.473567736338314 13.482365368446311 0.2774428570383544 -0.05421530970013889 -0.6347369791773971
Ni 0.13770004680009987 3.2793302176003283 11.622354302348567 -0.7284164084104294 0.30359123329894816 0.10489972342888385
Ni 1.0156893690153002 9.145561505077234 3.5845602627865456 0.4420572227190516 -0.13594605121172715 -1.4671010315160862
Ni 7.028398380681599 8.848407146534496 8.175366536319448 -0.017441592515215123 -0.7033005871794081 -0.35924558943845875
Ni 7.675803294363533 0.4918059649080144 10.323494528374239 0.11809796728671275 1.246481097004047 -0.764730155239799
Ni 0.6734409497650486 2.461166520510419 0.20690665170631223 0.5842430841929035 2.893478102950249 3.520580191290208
Ni 6.509427980772797 6.797449011442287 10.97641947273512 -0.4497386505237093 -0.7784881282558399 0.6688606603339835
Ni 2.0717385508038175 8.628052810037035 0.9180130359708596 -0.9890794748872838 0.004398129067695652 0.3540825571802805
Ni 4.83752622797557 0.6623143033416874 8.842517500038454 0.9537021238292543 -0.8641819681802343 -1.1580539173088895
Ni 7.417072222398667 0.8297809922175725 6.097673167464938 0.7293270931501568 -1.8977564401560996 0.6420491965680942
Ni 3.8818784812381195 7.529046263511349 7.499004038861611 1.0999289881416994 1.1497867922040907 1.3117176975153537
Ni 3.599853233596531 7.946060421279553 12.725811135034714 -1.0837166400478948 2.41583886936153 -1.0826056663719033
Ni 3.3054919416816984 0.47767304777081876 2.4683903218323886 0.05249524168523862 -0.3001387559739734 1.8963472185133983
Ni 6.780076137016722 3.834452209896305 12.035453511726658 1.1868692988786849 0.8450156796644286 -0.5568148127786217
Ni 3.876366829759055 0.44066863903992415 6.628436825698961 -0.6469054962191311 -0.8470568784641734 -0.4960064232419974
Ni 8.564882953135932 7.51403818549741 9.887516379224774 -0.1367942581446354 1.0078662685764836 -1.95957321635258
Ni 7.579489046811301 1.9953481785306353 1.3805234560409954 0.30960427226224746 -0.08346083682881755 -1.6250834937025624
Ni 4.475321347668943 2.4640061382487883 7.403005407838331 0.5773563843753993 2.1520902219808162 -0.2165925585202012
Ni 5.846186379310645 9.520726214537337 12.015709323734002 -0.6069256133920837 -1.6405713049255164 -1.1088412030296646
Ni 6.968598824178168 1.8782069641563295 8.140401066226923 -0.043682014268982834 1.1859748120888736 0.3952544034328999
Ni 3.82146445007655 6.338268857814822 10.537061712965892 0.6661807995089752 0.739004725449237 -0.09032542515913476
P 1.1691125188860825 8.867837580042616 11.138356820709964 -0.20880700103751135 1.712411012575638 0.9248782576190264
P 2.6967803110183315 7.6803094418565525 3.091786965803067 0.7870992669636186 0.7646345102021993 -0.3936466926261479
P 9.269201254472463 9.280438692538732 8.661258648153979 -0.4752504216415686 0.12535284907691313 0.24919440371562243
P 5.271727055727478 4.696141195271056 6.832943302149694 1.0694583303566678 -0.2664369928461541 0.05584461777344576
P 0.1696536600455342 0.8264358294195524 1.5497907418696693 1.2324277042347744 -0.4321335358474364 0.4285201074645652
P 7.1995854343058525 1.7114422660262576 12.154875730513751 1.7118841935378903 1.033537962310975 0.47653700166347607
P 7.171552355583787 5.891555091569903 13.173044411672423 -0.908279729830397 0.07514846030838025 -1.2876058920688147
P 1.6572474632228216 -0.009747802531385954 5.972486990180059 0.3254556374722072 -0.48073998400123014 0.2176042876141672
