# total energy = -381173.06126567145 ev
CRYSTAL
PRIMVEC
9.18512227642260 0.00000000000000 0.00000000000000

0.00000000000000 9.18512227642260 0.00000000000000

0.00000000000000 0.00000000000000 13.44335489792869

PRIMCOORD
 96 1
Ni 1.8102682350535124 0.41211623859886237 4.734024069042026 -0.8026145889903984 0.04628911287452673 0.2737934332112252
Ni 8.973010450721873 5.148261152422502 0.432836037898835 0.17640570188867039 0.1123726347671613 -0.23160780098211078
Ni 0.7448335229071167 7.602617731439124 13.350125459856626 1.2893051341481088 -1.62419440622939 -0.571509438676319
Ni 2.556632917878754 8.864194304650955 8.216632147364301 0.619692683249765 0.42562555952558956 -0.6518702964235741
Ni 6.788567881027441 2.600794986783031 10.603742607649227 -1.1158497731370138 -0.5325610824375796 -1.1026268466888365
Ni 6.2911751282602975 6.0858233448799055 6.122224903797239 -0.4867849046437294 -1.142519054898084 0.22931694806540506
Ni 1.54166769824657 3.8358265560153764 2.07629969310161 -0.8474885666849534 0.17997207908369003 -1.4723903049394835
Ni 5.838899697135795 3.1972676557877855 1.0031421299704562 -0.9952318676419246 -0.1236759755951225 1.4858328035976345
Ni 8.969529289300342 1.6795363867351725 11.558018967491222 -0.2874148806494018 0.2820649291913981 0.2882324914546907
Ni 8.031296582901588 3.529254722858542 1.929417643919212 -0.02146434052136303 -0.4283154476529269 -0.4953405075232243
Ni 4.667511841596822 0.9911206416630689 10.99830424015619 3.1022357388070634 1.7787328757313237 -0.508528209858092
Ni 7.580600992844375 6.181431284818471 10.348170248573945 1.775764537131619 1.6710213938852574 -0.9737379594342068
Ni 2.5612162939983945 7.9739722334773795 3.232078351490847 0.870965566760971 0.8982714536647756 0.06683119869193652
Ni 7.244875580922529 1.0082968207086176 1.642683838303862 -0.05756931377403634 2.410774824575061 0.07968157229204342
Ni 3.8924803914982347 3.266780662748594 6.924416761081756 -0.6255997927628193 -1.457477135273077 -0.666160487794001
Ni 4.906334211309824 6.414678285183532 -0.2781190792373714 -0.8133000937287026 -0.3283059624368088 0.28614167036393295
Ni 1.6774513639312478 4.311147459452864 8.22050459500366 0.48399500060341805 -0.1493165589813622 -0.40138545603130227
Ni 5.861908428958842 7.3822941984094035 11.323486049978364 -0.9532593798648807 1.8510124991323411 -0.9986840878565835
Ni 2.8880872478454234 5.146047537903797 6.060076528044303 1.3556316252894847 1.1974743280880409 1.885426972056469
Ni 3.7544463708049154 1.7182608631287732 4.893138864348949 -0.4818769258191507 -0.6645520056563007 -0.02457254713304155
Ni 7.683134515136066 4.113860213613644 4.837671746691056 -0.2552411241303346 0.10736412580897639 0.03987703870059584
Ni 8.732700091166421 6.1519837821339625 5.560171644277718 0.03535035447483589 -0.6554675268565292 -1.1555532623742226
Ni 7.209430193255806 2.46204452653594 12.849736520135119 0.8985830713679234 -0.5507056145570903 1.2412545584977848
Ni 0.16231489198043578 2.049338603073589 0.7047680186308152 0.050743549101454545 0.9703325332970838 0.02889097200273734
P 1.2544121776741144 0.7602535065336766 10.472951974546989 -0.14948573756937483 1.0551455132784215 -1.1298977665896475
Ni 6.718320064267891 5.999262750588327 3.656431010263228 -0.23058270215170612 0.9597213334401407 0.5819018376542366
P 2.413997150820825 2.911895085324601 0.2064990051786752 0.04506706754196755 -0.6374528354466635 1.2293236113881538
Ni 3.437734162425468 5.177561693147262 1.8784264364478946 0.9145930736429345 0.34047139415474914 -0.6929657809123033
P 4.802661733830086 8.595722359558792 9.402605058896015 1.5465555753989881 0.3586218398115308 -1.1149861395851377
P 6.970433306215603 4.606164408524512 12.886020509484656 -0.7313700917221145 0.917984872933303 -0.23209271103832935
P 3.7038730864066314 1.0803265512301115 6.998233916438685 -0.9503062107738278 0.000160951057896497 0.17447274653201564
Ni 8.429903343350615 -0.027682122143034678 13.542432532284884 -0.6604559812100561 1.0230005531147608 -1.7349837556698313
Ni 8.43681055545877 4.198381710713719 11.213882738910547 -1.4294102018335317 -0.4736033729564489 -0.38728861161860395
Ni 8.725599991486096 3.879924329062264 7.099718497742674 1.9493546239483655 0.16330593128191875 -0.8810895425688504
Ni 5.748683424095485 5.020248100359501 10.894306609340509 -0.5685025335291951 -1.0210722257437963 0.5109170218052427
Ni 7.678146993627118 6.857621631864037 12.730184802904612 -0.5375888746694742 -0.6512501463410719 0.4205995670659079
Ni 1.717728126024687 1.5092717712446178 2.413122727160324 0.6193849222013591 0.7622660099700227 0.693584902553541
Ni 7.171596673743178 8.075265764233695 5.369639137513414 0.24096275983444954 -0.18024204491562507 0.7506032289201137
Ni 1.2695492595281597 7.351156633187793 6.76523399586845 -2.7781289020532673 0.6070747373754384 -0.45626076791294323
Ni -0.060664059959482 2.6076379030337975 9.201129397203978 0.7290645835173896 0.04546893096607653 0.7361153197165838
Ni 5.263699771804565 8.543780491910354 7.1010218666231895 -0.8247263332877732 -0.019379175857560174 0.13086092337933591
Ni 5.056465038314902 7.337801465095693 2.2310056296160927 -0.3060512648036664 -0.4335157609069437 0.3898337466379609
Ni 0.8917807864591526 8.775291504125892 1.8322353739868464 -0.20363445569763639 -0.7073804136757366 -0.44258661285996037
Ni 5.7217342747266935 1.5598083151529651 6.288532568521578 -0.012893311022900374 -0.05187226338925905 -1.836660344175727
Ni 7.15500834253662 4.212563539829402 8.771708387844786 -0.9040250683191011 0.4168616972900305 0.2504753273105751
Ni 0.3921413527323624 2.9350232237399445 4.0850997580909585 0.07106914803268405 -0.47054376019451866 -0.4025056856786745
Ni 5.148977591976274 3.6218866831122094 4.967830443366379 0.7652867990742175 1.1880620336352057 -0.6844685420745695
Ni 1.425705526882905 6.382511986243687 2.0999596501087914 -0.30665804514972994 0.028748018666969844 -1.5085623839846665
Ni 2.653600255944988 4.926091409773447 10.495939580588322 -0.3909272368124558 -0.9734096295605107 0.7846176381923454
Ni 3.8813480230473223 6.66239185346129 9.5000968674561 0.2319764971754392 1.7758437271089869 0.8218965771484619
Ni 3.092318446282737 7.665333747761588 5.8236615789344235 1.8596544910780555 -0.20297393929550203 0.9930952809148962
Ni 1.8362070209490364 0.7304689098539969 13.308934778076003 0.48294676184456187 -0.4054444565920243 -0.6589691122518845
Ni 8.834783542456384 5.343702188642388 2.8824705454463038 -0.07709427118084143 0.20704039605539182 1.622458911595522
Ni 6.892515912181705 0.024496721665496546 9.950973404426252 -0.5614176016579557 0.5917676747047228 -0.5799326297430076
Ni 4.453865892613152 8.449789133529016 4.3648822630102275 2.8715687044716676 1.6220863587474517 -0.10637553664346196
Ni 4.148736123686344 6.057854646915363 4.174390170784856 0.08658549850072829 0.1657731618754887 0.5686071774278594
P 5.1503002496140065 4.595546406932718 2.9545673273619326 0.21430864758203091 -1.8303583132170993 1.206766037802612
Ni 7.653273681939767 1.5672390792427238 7.59790208955571 0.09269418250162745 0.7251781039787898 2.323374800592837
P 0.21578608252250106 5.22533351518785 9.469458972897634 -0.5558015410227589 -0.5099901391155991 -0.27199623210148643
Ni 1.101011447064644 3.7807341913548407 12.208623237344659 0.8801086667128198 0.07732541335504102 0.9233458801349
P 8.41431619049484 8.848726558387476 7.123432646972512 0.7073019950293173 -1.0859699548584458 -1.1006951768837625
P 4.435899793033957 6.320990035844176 7.322998721700075 -0.14724399272304964 0.6928261700106455 -1.2016875948384402
P 4.440253541091492 3.2867583041518396 10.528069139038232 0.30827784014134 -0.34353332090952443 -1.0520959278188204
Ni 4.1440057856069545 4.647561755561029 8.609016905842497 0.8295641209960488 -1.3627633512382593 0.8502663865404065
Ni 3.7416790505518067 2.4884333834331924 2.683280142228347 2.1172101222741797 0.1139021840378103 -1.7851729749297125
Ni 6.808527152185717 8.594647700228135 3.1576292597070013 -0.38773881178214514 0.13194310069992116 0.8138081437133727
Ni 6.9286777394022 2.3590609332425214 3.4433545388735807 -1.5167516046636782 -0.468732932238025 1.2985001703838153
Ni 8.870614705267446 0.8409475630945641 3.3871342411719794 -0.38795247045484804 -0.2013790840045564 -0.6824831362134246
Ni 7.839860260084836 1.0809786949264932 5.3745862444834325 0.9920257019998011 0.628226431752389 -0.5596877634510425
Ni 8.109195606690518 7.34604970508655 1.6340939117565907 -0.2281121291240265 -0.6881894425695826 0.2942141629594223
Ni 2.2297711491542094 5.68131973579599 13.295223227231514 -0.018104680020510754 -0.27343836386465165 0.2978820987293128
Ni 1.657822757182404 6.304273112922839 4.458784525703468 -0.17933804504411696 -1.1624769860772497 0.38748195857633266
Ni 3.015025640577768 8.870421817695277 10.593229316453753 -2.344787204830342 -2.3565482020210125 -0.7010477865894894
Ni 0.781143230599608 6.249630819264032 11.392718910703403 -0.06276242793920159 0.061999581631248066 -0.1334968183402862
Ni 2.509008057797914 2.082239711812175 8.81394801061311 0.5167652530559036 0.14253990237916098 0.625685153387774
Ni 3.9910551259992126 4.067980526804813 12.64328711461786 0.34269848371305495 0.6102104547909426 -0.08952966873071677
Ni 0.04306628379190613 7.7434991401025615 3.7988766452857328 -0.9418963894435777 0.28669188644044824 0.05032780172027461
Ni 0.9453879168139848 1.3889742220683867 7.057183114030358 -0.3895236715967098 -0.4599698413334143 -0.23536932490707207
Ni 8.428700092305178 6.4850822490253135 7.761762837650246 0.029396193773930015 0.1102051948021973 1.2183162045340565
Ni 1.5409788140602512 6.8736129301091164 8.88749604188125 0.0961839408224408 -1.421968657953822 1.7186076283046532
Ni 6.249474672181799 5.381921483299355 1.4006898457970485 1.8888131149198824 1.7227458188427427 -1.1386940247250388
Ni 2.75611540799171 3.935182025927516 4.09479189933634 -0.0037910916113160515 0.08390229524161033 0.5951229643302008
Ni 9.208544546585513 8.724093631398679 9.188183885574675 0.3279948589542932 0.5302923410080609 -3.309358410163617
Ni 5.376171596624214 2.119264940546189 8.483308401010794 -0.433536329732234 0.17745754019195245 1.7877145104046435
Ni 8.740378853563255 8.40482795896861 11.210629368526625 -0.009670947430860765 -0.4465947055780889 2.8129663214474263
Ni 3.8289009736622512 8.70006535097988 12.692852791079622 1.5759659102403052 0.1394610063435211 -0.6731423184284729
Ni 6.144185613144834 8.603842007834869 0.5919489961812611 -1.2906091976715128 -0.6924027093199817 -1.6449912883700832
Ni 3.1500377559737682 7.741992780015144 0.98861218471262 -1.2927231586907222 -0.5158201155338149 1.0005473663175672
P 4.410355967405256 0.4043713433201422 2.5270687641386957 0.22353042329061504 -0.5718115432977701 -0.32387106659390674
Ni 4.413708537112008 1.8177724801231452 -0.148883487371716 -0.3254615510094782 -1.2260397984305595 0.7453388951973808
P 6.70252165359498 3.4921927536345905 6.706325212815708 -1.5476148699014378 0.041968888232618046 -0.18429101817401808
Ni 2.741125288097413 2.243585573370522 11.452206356472653 -0.7073580450782334 -0.4962159681496422 -0.6030003101957486
P 3.0892506153729977 6.794372878437486 11.687249966795633 0.24912601237153226 0.1857642602854349 0.023594242380172267
P 6.534259394805992 0.5597652455086951 12.081032700915934 0.5600153219937903 -0.6904491851380367 0.2557414608055209
P 1.0667601253208732 4.357183293343929 5.455138850158063 -1.7828191299855554 0.2573211465878149 0.9391442806197374
Ni 6.273521322845568 6.862103971636351 8.47556534275657 -1.1041738794609823 -0.1907923096276456 1.060815309969689
