# total energy = -340871.1280315447 ev
CRYSTAL
PRIMVEC
9.17271209411701 0.00000000000000 0.00000000000000

0.00000000000000 9.17271209411701 0.00000000000000

0.00000000000000 0.00000000000000 13.42519134169109

PRIMCOORD
 96 1
Ni 1.0160888507859789 1.0342599936945127 4.692976965215986 -0.7558709050769562 2.660699678698805 -3.686529730842561
Ni 2.072354181097136 2.017675643551568 2.481190220199596 1.9696933355057176 -0.19222698519164313 0.05087596091426077
Ni 9.071564722706453 2.4888778703114802 2.1767469843346134 -1.250760698216007 1.2664986777765541 0.38034868996566107
Ni 4.62138669814974 7.183646266224103 1.8506488094598041 0.15314544580914916 0.5815521676243017 0.356894829818095
Ni 2.6722403875964837 7.278473765158188 12.703909229323168 1.307071456992594 -0.2136105930737418 0.22511730816176068
Ni 4.598803480663213 5.195671864842062 3.0618568427836226 0.5917568760714453 -1.3101575521170856 1.0136468798140026
Ni 7.828919052789793 1.5187351350372862 12.726316330735065 -0.7680121684251805 0.7763515415288113 0.020369050574655243
Ni 6.05952121090672 4.644896359570524 8.36578689179282 0.9071772407948377 1.4791399649584913 0.0698375896184281
Ni 5.943990900491281 7.484226872973092 10.732769506679155 1.3310446799787399 -0.16029234126657554 -0.21652236740389805
Ni 4.590575557801549 2.60366519103707 1.4928680865758701 -0.7418704770328062 -0.49383178418818174 0.5096456112919868
Ni 1.1737219102928718 7.201083592155007 10.736702765679246 -2.1894810039244486 0.5305587072955701 2.07262333680274
Ni 4.17596896544126 3.87712200130192 12.967016554838318 -1.2262470293453591 -0.966703935405561 -0.3706679723427874
Ni 1.9179040527307083 5.907887105191942 8.946279232844661 -0.4374588047150917 -0.8666211737493462 -0.3018673086293059
Ni 6.535695047690067 2.672533914387535 2.9333104537274926 -1.2644083709064287 0.7833783664686057 -0.15340898388318097
Ni 5.908254013680757 2.133967289081297 8.034950093784973 -0.784044796408011 -1.6232796077246041 0.7340391539138456
Ni 7.289545228808164 5.833588136207023 2.9313768459914407 -0.6766392758381379 0.07535954787792182 0.8089996665811358
Ni 3.88247886523861 -0.02182279964345935 0.7130508744331555 -0.32005914904698424 1.17210679585753 -0.5229425855112091
Ni 3.195745419436891 5.292260524522457 5.222023232508713 -1.490026529964008 -0.7124336598289279 1.0090111808142042
Ni 4.349342399118292 7.177546412597563 4.955090885997673 0.07339625350396392 2.1337361449536605 -2.0791824780774966
Ni 1.5451158553830429 3.679440880240934 13.92286361811708 1.2125232520013633 -0.43162060076675984 -0.8242398805696579
Ni 3.3318684687870386 7.69724476886652 7.26271963191972 -1.1300404628150988 -1.1316612862479736 0.40786206489458143
Ni 7.978480125542769 3.1440571860751603 7.818630021492215 0.06819594024994707 -0.27931282036755767 -2.269504275826627
Ni 3.9092356667854014 4.197625738993532 10.593442428950436 0.08177599292722691 -0.02063053176615802 -0.9035237032026505
Ni 0.3340710963367466 3.7844592624518394 9.325285611806509 -0.07717371826852515 1.7686127565781862 1.336329582526763
P 7.914243621863585 1.1894989753118916 3.471002919559131 1.322609404727193 -0.32113104195492437 1.2422040668952476
P 1.7272584019427386 8.4328412526661 9.131399241791087 0.8474348306288824 0.699639079167421 -1.7436578864050616
P 1.561663428228573 8.597876690934823 0.407184950902795 -0.4645304641209032 -0.6046188196357781 0.6757905546845975
P 1.962611852092745 5.210421586092401 11.03615145974024 0.7678303914316776 -0.644951972037186 0.2964991023388571
P 3.721901365108982 5.591116661374017 0.6459589054397737 -1.4000939693679177 0.337635981588483 1.6156534586379143
P 6.591932946313096 2.6185158121218333 0.7547793768660189 0.6369352723802966 0.8683425273158272 -1.1640839255530533
P 8.249634671488842 7.929543705847147 11.423482075042067 0.07439332730991059 0.24842898630450766 -0.08665363273450238
P 6.778625158134091 7.602875905543453 5.0932356011211875 0.20355860815437843 0.17620284184924495 0.32018564732251953
Ni 0.8911592621583369 9.048467833335586 6.3554861088664225 0.6422643979026939 -2.4071619104128223 4.428278851806154
Ni 0.7928442980380703 6.176638400536281 0.24528933202710065 -0.2789839762732292 -0.5493107910920928 0.471736237840723
Ni 5.408854869555457 7.09574416501639 8.521654204197295 -0.7200922048154501 -1.607870729368702 -0.5540848154419683
Ni 5.532438821300373 0.47174433405213534 4.227619590682888 0.7641210609008905 -0.9975823701519722 -0.7807028765189716
Ni 2.573202613753253 7.224712498834656 3.162693385493266 -0.4574918121065669 0.7152593022031811 0.9563009949046822
Ni 4.714407172776414 5.988836290536622 12.248339138729195 1.5547147141710127 0.9185188910599019 -0.3088105727163585
Ni 0.7319429925222097 1.3636520895276536 13.81720681513564 1.0817644014175305 0.6452299082889209 -1.2501932557483113
Ni 8.248625673144602 3.1663835676195173 4.4350256212399 2.1973105272711964 0.5231806696639442 0.33399581373273446
Ni 0.2498445009157316 6.947907562160841 2.4337324417138957 -0.37105492336856094 -0.34805666270117475 -0.8627460070646561
Ni 8.470632827013985 3.872654890450604 0.21628154690143303 -0.8604615819058535 0.2795205655029896 0.24832228552331426
Ni 7.731266358491838 0.39769853192449833 6.559346886150267 0.8723143674793815 -0.3484125033786967 0.17429842573768048
Ni 0.6734073294879801 5.344407393495205 4.186176359600078 1.1825027943798732 0.6902465822089274 -1.5822926237892814
Ni 5.549371648059158 5.907245015336517 6.203190650600558 1.2844424067391684 -0.9380551613206168 0.7704449462363893
Ni 6.726542498146885 0.7433685228638905 10.648338359775625 0.7551378835656737 -0.3149575661543608 0.1736872745162428
Ni 6.615277498913914 8.586520873206018 12.767423840550611 -1.9229694490866174 -0.7160260051658766 -0.5853751409148177
Ni 4.392444973841766 9.001934664241697 9.379886181298204 -0.15205246985528653 1.5106336646913985 0.03756535984828369
Ni 6.486767800706664 0.5632907538249979 1.3261797255650376 -0.9530395505445908 0.8335045937010355 0.15449887451325003
Ni 9.096211800442562 5.196946871840692 11.65626166214304 2.3986569582656045 -2.799116045827896 -0.08530766022956922
Ni 9.77049787576125 0.6019913439539204 11.45669554872077 -2.1331465909987783 -0.69455857932072 0.37387233821269805
Ni 3.4925927323121932 6.91327140081676 10.424553534277939 0.9525163310512693 -0.3624682101408145 -0.7996022845266358
Ni 4.647464718992223 3.770021413416992 6.844847554008982 -0.8306061891073179 -0.7116561582329549 -1.2984114673247509
Ni 2.479365767738966 2.56753387760107 5.91979787201008 0.9507427840906142 -0.07720534283740897 -1.6087436188919582
Ni 2.933249913826838 0.9440280235828279 7.7522562758656886 -0.02623373688554837 -0.8345998836477433 0.22547032062580524
Ni 7.891394395722668 6.031727892879028 10.053750311854758 -1.3258302256573362 -0.9338056420156433 -0.9716579369767265
P 0.5856877652534518 1.904319265932355 6.940622594115431 -0.3971256523136838 1.109736204040108 0.5267473039692799
P 4.519927328280334 8.396847529913407 11.978613701347054 -0.7532265254755737 0.5112260684052292 0.4414309019889623
P 3.10257818141469 2.0405707332535874 -0.031220243313218547 -0.53215793346189 -0.5540472773358136 0.7485694863195367
P 4.597069838053564 1.6345222813948952 6.156000715311692 0.4354533442492888 1.786929295499187 0.580073011975614
P 2.5714139348702827 3.7565008356041814 3.7957178494311097 0.046314823906139585 -1.5230268961494287 2.160551722484608
P 6.410964506917606 9.091029218038058 8.735852628153484 1.8744046528040363 -0.6664695343939877 -1.7717065650121615
P 5.8828272554059176 5.272502502399799 10.50353425558013 -0.7674719796509943 1.238384178928525 -0.5912280001511688
P 1.9829936186463855 7.474751461249459 5.315691300618145 0.8895016778919455 -0.5225684900012421 -0.9726591245477312
Ni 2.6947777415219094 9.233160393892543 10.920748650024667 1.2610733929959248 -0.5718282554683184 0.34624866295815854
Ni 7.378648955316744 8.436519510266464 2.9528841043345193 -0.2913615240019757 -2.299528590102859 0.5213184196442247
Ni 4.211403152748513 2.4194129206666912 3.953490334163752 0.04575175231381798 0.007905885110637997 0.4491863775646651
Ni 1.3770534220816002 1.839981862418747 9.59513212898996 -0.5270362959646085 -2.102047812711444 -1.5558840518887656
Ni 0.784588857039746 4.142323457016979 5.982399798371596 -0.0437437207448537 -1.6700279196237369 2.413450571635011
Ni 5.317164438200734 1.8660782286856725 12.119161667072303 -1.0932230368764333 -0.6127208799176221 0.859184514965643
Ni 6.424090658104942 4.048257293197183 12.198800071840695 0.9533362558494034 0.24211152872691205 1.7074716662924916
Ni -0.015367044782769722 7.957043497083788 4.470225904385533 -0.4899224218314466 -0.562953835796824 1.0370709151648978
Ni 8.52115612592373 8.449462207209393 0.5252441780773872 0.4215529321181127 -0.760919009023825 -0.06447915351999217
Ni 2.5046090717693983 2.3027635393603685 11.352583430477235 1.292556808316187 1.5374926938657714 1.7536805607483863
Ni 2.5480969004061267 3.1653011875775148 8.16251683717597 0.36853729915302985 2.3391207505731844 0.9121332992485324
Ni 7.436207724499505 7.228152265917291 7.430749960728391 -0.1907776543396263 -0.6569091443990623 -1.9682748578916358
Ni 6.539685177505923 3.2895272291778554 10.222008123926495 0.8772431722395667 -2.7811347787591263 -2.493500068789434
Ni 6.5926025543051825 2.2138891306572965 5.658543434363443 -0.9092318093310212 1.267807883506281 -0.20748493979197816
Ni 2.283381598438747 4.99049663789704 2.273811707779245 -0.7550658926771576 1.9277308750310027 -1.9336765510914762
Ni 3.4547186035543254 0.15648188412323766 5.426167446600164 -2.8801633881192137 -0.7648731085755666 -1.8146421880334231
Ni 7.597500696182322 6.234866777711128 12.825366946375404 -1.4049232724357612 0.9031272390951801 0.34643712481988076
Ni 7.979287324218161 5.404727149056295 5.535125508709715 -0.7225437516797362 1.3497479128151981 1.2352034672076984
Ni 8.72581768098441 7.84918157408457 9.086276835836689 1.6075984495439217 2.0430001146196686 0.2502220736491884
Ni 5.453819504859664 8.798685706862953 6.597635621500494 0.7678802708330066 -0.3260837579745094 1.0696773883460096
Ni 0.6609783044293918 0.006320915991050329 2.3515165048115834 0.7920982628401069 0.7902835782288713 1.2783224098843597
Ni 8.398269300307561 1.0954970204776386 8.939230920774536 -0.2587041429782706 0.2014035094845886 -0.26763846935342295
Ni 1.013520491364278 6.396150576681724 6.868327862750661 -1.0108112101374205 -0.13616433787012033 -0.4437628925562487
Ni 6.015317910716803 4.7855690741819705 0.8879891728149802 -0.3268201219199017 0.7851118042199446 1.8215813383554178
P 8.416376234230553 5.256230110920881 7.988593040765717 0.2928525067252053 0.6116150484479531 -0.7367730079052408
P 4.135810831340523 2.121116319260572 9.556977315238147 -0.7069893488849051 0.33628075311216926 0.2925403748014252
P -0.10981662797337635 4.869866299487082 2.178465950604709 0.5740018660808696 -1.4934532962573699 -1.313775351375331
P 8.93146988896489 2.7175902768139455 11.274892392513229 -0.09487884885777208 0.34005461833230466 -0.4098775526627134
P 6.438088216953212 4.370898272836139 4.505212463336432 -1.759868177616337 -0.2473108135396644 -0.0885585630666991
P 6.611269023673616 6.993340005788286 1.1638823418940913 1.0719985802800183 1.2029415218501993 0.15229081111833773
P 3.696181080043091 -0.027526392102079425 2.976391931212859 0.2942666134639126 0.43127247339872177 0.155570510310874
P 3.418550599269444 5.366284312140764 7.602323708267788 0.8732726176275928 0.2283736103155293 -0.908733529538364
