# total energy = -340895.9398796619 ev
CRYSTAL
PRIMVEC
8.99505360423835 0.00000000000000 0.00000000000000
0.00000000000000 8.99505360423835 0.00000000000000
0.00000000000000 0.00000000000000 13.16517018376103
PRIMCOORD
 96 1
Ni 6.404523190379335 1.9880867627862733 11.223781508584796 0.58273641774039 0.041443868967083464 0.8191385547873505
Ni 4.474499499051687 0.599871134392606 6.069920686327642 0.5343659968568023 -1.0367063327366275 -0.6215384782092522
Ni 2.6371788308770356 1.4260038488735567 4.738065365732319 -0.14706041595733382 0.34310368957127363 -0.25116695406096096
Ni 3.4766961852232745 4.414178669121162 5.110956215248114 0.4558010546677054 0.05705483603146303 -0.9405097935086965
Ni 4.979005074404115 4.533120263838033 2.7290606056296958 -0.3109433027886452 -0.017368058964802348 -0.4440688538324417
Ni 7.15502549357847 6.003433747104337 2.6514126038090464 0.4142180890195963 -0.7937144582872911 -0.4920916615686235
Ni 5.15232176857372 4.790216887917108 11.516588495745317 -0.5109969831135586 -1.2507833239238264 -0.9482835239168443
Ni 5.6495953207731295 7.728945898124734 12.464229993261387 -0.6142964519348582 0.9235950200312286 -0.5423729263216788
Ni 1.9798023183535245 6.378356579244843 0.3812211687222768 -1.0221646874770267 0.7789918073651358 -0.4390145792379858
Ni 2.8426888221419797 1.4757644857920873 0.24232044941058842 -0.6143154780982517 0.873904594784637 1.209409131852414
Ni 0.5674295738158937 -0.0064404584298026046 4.68497026241724 0.48760431522123115 -0.9735078457012718 0.05604979180571638
Ni 8.544437464110633 2.1903945149436623 1.3092435546723658 -0.6389106509391125 1.8459003747167564 0.5092519753979939
Ni 6.743420832559842 0.6602369395914962 4.782972271688948 -0.2723371603806729 0.3960020802322019 -0.4511429870704037
Ni 0.7798819475055889 7.377491161016847 2.4751833112601545 -0.012059759378011488 0.1138708165792426 -0.17297173650645692
Ni 7.426388272782778 3.6681109273827706 3.8521416299821762 1.596100476206651 -0.39502840346502294 -1.0063979115610733
Ni 7.501550941273603 3.8973048949684834 12.48023938978843 0.8700093734952886 -0.3761099692939652 0.39935454164420253
Ni 7.900796398545654 8.735321498103428 6.771084220625505 0.2949068181510728 0.5656303541877227 0.8323036314143988
Ni 6.990344050934858 0.5514543584928078 0.3041218651756747 -1.6281312793899507 0.5394454682622387 -0.3171129219344667
Ni 1.8568939049669007 6.4245911551235935 9.360949069183041 -0.008981377563003887 1.087447567845237 -1.3801370666300166
Ni 9.155615380970085 5.025743373288549 1.2628272787094224 -0.7793409631744386 -1.036449736641131 0.3184347260696838
Ni 6.4864231540711685 1.9579803181430482 6.956884250282372 -0.460179129130743 0.4368047160708607 -0.6211206739455432
Ni 3.2706824709526474 4.342497086401752 0.57405802886746 0.8550843767543402 -0.63708182526049 -0.31536997110143106
Ni 5.928684851082467 5.390663705744781 4.819676588201251 0.5130286688316068 0.9411677388076695 -0.050183048612294216
Ni 5.145755379392496 2.9320456853286543 9.389663079517701 0.48057131963384975 0.1238577525886254 -0.7264659695522779
P 0.15272161928011252 5.652077955586852 12.308999653511902 1.029677450914304 -1.3046625904407854 0.08068327408368041
P 4.018621183855003 6.210041134917376 12.689051465256702 -0.3234928573188816 -0.47147732775238155 -1.163877465969202
P 2.3590787564717184 8.484323520414584 1.140331738286385 -0.15171077024515162 0.00047359720230886175 1.516557229264685
P 6.285347724266968 7.767057940536849 5.762026295641549 0.11279995211256702 -0.7234894034224572 0.1885078844688431
P 4.856672344452558 1.2308381693324575 12.563745870066246 0.1147251941597379 -1.4826906584242272 0.6565502183977467
P 3.9987511102915474 6.097234166805428 8.064312082233256 -0.21282512105796894 0.16664656561937752 0.6774939105289494
P 4.58280894032718 0.9530709119130376 3.799204839611742 0.19538635675623123 -0.054129949075184196 -0.20720726065055925
P 0.22604749781092934 5.468650821088898 3.536203862301769 -0.31761377283028525 -0.28908944013834725 -0.22130127684978015
Ni 1.370639293516804 1.1657319708479443 2.5124408235733418 0.8243540375500189 -0.31986297387577817 0.14684752861557934
Ni 1.8164071683851386 6.393513244683694 4.8223229329918205 0.9595282435927281 0.42163880696369965 -0.6088781091327643
Ni 5.982070494631179 5.649640296041493 9.086482096956212 -0.785968238682969 -0.1801343156931672 1.3155411850265022
Ni 8.542341616604846 2.209482018837574 10.027818061847572 0.8174912489919147 0.9372964287777212 0.3369682660974971
Ni 2.190007727635727 5.204744941379431 7.076674078560598 0.007676542708651295 0.9589893403701225 0.36595205492435684
Ni 0.6016260693641905 -0.2564588747736663 8.861910687453006 0.5023814735304057 0.9194740558843196 0.37821853099653574
Ni 1.4082745980842537 1.1473101009258273 11.417862384652944 0.3216115811357687 -0.6631193869748321 -0.90921329738826
Ni 3.957949546831234 6.729550459796217 1.6389581465582002 1.1794979461152784 0.543546892025122 0.5479285660325854
Ni 5.520372379708124 7.736348827297538 7.954632694283379 0.25109187784865145 0.9091562188980793 -0.014949422220980706
Ni 5.341361816563568 2.9311551750150366 4.752389089201058 -0.5403903486740113 -0.8725087428783747 0.5166773213277875
Ni 0.7895723188274133 7.356136903597362 6.686326528381788 -0.2953973846342461 -0.24032332647823773 1.2058170436257816
Ni 5.278783228161142 4.514482512627766 7.0127309405159926 0.13205417235648872 0.26283821975130217 0.24968265620595065
Ni 7.8347816996401765 7.23472166912044 9.044314184842984 0.31578469004134646 0.3475306149943757 0.6167749953823378
Ni 4.574938268363385 0.5430538778676784 10.426748692241073 -0.1130902296594762 -0.9463117449024541 -0.36268675390952376
Ni 8.147215893914987 6.9768424753718215 4.616696006029128 -0.5504575031020262 1.0913641292908236 0.829325008402049
Ni 7.276953446114747 6.141103043568204 7.03715251123794 0.02817337711042245 -0.4644283913254001 -1.3364116007176081
Ni 2.2384281015569942 5.184443105239676 2.6799017378018823 0.5453582342022478 -0.18221973746728617 0.09999791525189229
Ni 2.474260418753314 5.116692360975327 11.364017093861543 -0.4568310385941165 -0.1846419737555336 0.581774825158069
Ni 1.0944281803827973 3.3245358572923513 3.9486423647958753 -0.22680266628398357 -0.07818339047996212 -0.5406412883425528
Ni 3.497420788885656 2.600326095979129 2.7545354971367404 0.13865033751676764 0.4074781991926014 -0.5919628214346644
Ni 1.1063286363920557 3.1949351239730834 8.139972177192194 -0.7634741713455109 0.683105600288772 0.24886504540066173
Ni 3.724527904019254 2.874225480319198 7.012467385443376 -0.5588884074781988 -0.991989449445227 0.37032113052633
Ni 4.2896781312344325 6.799208155439221 5.9110293597332815 -0.5735403530634188 0.8274506741974719 0.9987270252793767
Ni 0.9120444721109012 7.489218722688046 11.535914368561563 0.8018471146967545 0.01127197336939349 -0.43194841641982384
P 0.14746940744050113 5.690558795199555 8.120119194230716 0.6388119205777191 -0.1396165580847789 -1.0237243186546625
P 8.497024536200732 1.638889784150286 7.937346899640151 0.3563387002043089 -1.0096791534155065 -0.33269509264343994
P 1.8081407140597354 3.210037819089897 10.332538997597863 -0.3945640622340947 -0.39244675878077573 0.5331285249052754
P 3.9454644123332367 6.1951543210887134 3.894072972183807 -0.27541425664409985 -1.0586676674990672 -1.4305993370456265
P 6.934763614289955 4.004525934749554 10.32720762928593 -0.46537507150938556 0.3618642580082284 0.37040314871717495
P 6.168079209533257 7.943558883706661 10.281340051597034 -0.18879893334670064 -0.8609313224534204 -0.46752477086253674
P 2.529885830666581 8.372766864763172 5.848271769762764 -0.8892957325287264 0.25527943356743776 -1.5513815360327217
P 6.835997924961418 3.8487495952421225 1.7112486944112653 0.8598409176027192 0.740172520505093 -0.4735578644304941
Ni 5.333644060512212 3.055304905808522 0.4661434704482075 -0.6634217487065994 -0.2421110145062798 -0.45899050813928044
Ni 1.6783600796670093 1.103018456640425 6.940757018552214 -0.8768323099543931 0.4418409929431874 -0.07742825748149246
Ni 6.7550514369589125 0.7835420348450953 9.04381405985877 -0.2526455954890165 -0.6429786503608992 0.43224255062147493
Ni 2.7222180683007142 1.5897857861498776 9.089628566730994 0.295703088800123 -0.34771239198787857 0.5747107192224361
Ni 6.164148371078196 1.7636421835398564 2.538942950209833 1.1404040654376102 1.234558634534848 0.27508412699819074
Ni 3.932628470741996 6.885605645967509 10.34670440812196 1.839022930870633 0.21945831010377043 0.028814096018214892
Ni 8.035407376760732 7.15691445484978 0.2577955397494605 0.6059989878127564 0.5009907638304661 0.7523893742862591
Ni 7.4545877660473465 3.841994309933768 8.244134898724477 1.206398112940232 -0.041588879185379984 -0.2666380531133666
Ni 3.2097589724260365 8.35012631466846 12.274322822097472 0.19392776993283375 -0.25587567239053993 0.11704150099774037
Ni 0.22767290400962395 4.899039047251957 10.108336385295248 -1.0431628869952485 -1.1429147476746058 1.13284167970932
Ni 8.657424333296039 2.047993820247845 5.707180754881723 0.36974006121187936 1.348879908387948 0.4682166547232388
Ni 3.694871212059674 2.6392746783828236 11.426025395861107 -0.48882661766410657 1.3345632346549596 -0.4643939385430389
Ni 1.0713918479264783 3.1979934422218723 12.59518448215843 -0.2600758265148166 1.1629865787238163 -0.18521455842955198
Ni 3.1432135653538587 8.394121122182657 7.887384773519347 0.26548285646300085 -0.8752713932251764 1.3111872789331804
Ni 5.608182093663057 7.749823417699555 3.6119305206578853 -0.7103513233786024 0.2608314737339185 0.03795745308037979
Ni 2.998465161649412 8.132976723950772 3.4362805095655284 -0.012101668359540449 1.0975370908707551 0.12380761607698033
Ni 3.277500721636712 4.316042633549728 9.157231792115107 0.4907035229718452 0.22097911762367103 -0.1667146998531516
Ni 7.241081172067187 6.137397081454966 11.435425226949297 -0.15967167696344112 -0.05760170967386854 -1.8354010178473295
Ni 0.35481259064398424 0.13186029080190273 0.4840544213217032 1.1889436649092104 -0.5982468546711632 -0.6046936387377715
Ni 4.670015985686029 0.2948965381287396 1.5200246473896346 -0.7491855226369807 -0.8801256359936843 -0.4197783567161932
Ni 6.066138266258184 5.6235186601753675 0.3930208801303984 -0.4566873139274006 -0.4312058818268445 1.4625681766427392
Ni 8.031728399808513 8.694897726897377 11.101187922076722 -0.5475089619966635 1.0037609881588583 0.19719924159525393
Ni 0.10581871091346483 4.9349832817289006 5.753034839990109 -0.23564597560722644 -0.9029341492477675 0.40629986261378415
Ni 7.735629223003705 8.759437237000496 2.511598886549558 1.3180775782951106 0.1759472741950131 0.8890265380277398
P 8.492311128076128 1.542381853293649 3.599686453598322 -0.5652655146491362 0.5768905004825742 -0.650808430817963
P 1.6863926625969168 3.2522785911378764 1.5817298160804207 -0.06083024391349524 -0.6841276137953831 0.14363056434017846
P 4.732324722478268 1.1450433474002544 8.11802604524103 0.07841941775016817 0.06775165362367686 0.8315042754415551
P 8.40875607450848 1.6602170564087526 12.222438453006768 0.11729938264481733 -0.09386352021938028 0.5180166089645014
P 6.293794079665829 7.683331980949414 1.4621234868971216 -1.1432765018893987 -0.7687531603562632 -0.40971480183260406
P 1.858126227320089 3.3488584824238967 6.017746676508669 -0.8951905007466067 -1.5712883022589776 -0.2899715856329844
P 7.146938940326525 3.888570697852089 5.967732379076563 -1.0591700610567822 0.11322778367860499 0.6025855912558332
P 2.4676130740890345 8.523775825823963 10.148252835474148 -1.0441303931148405 0.2899517881386426 -0.06355149949940023
