# total energy = -381165.03750708903 ev
CRYSTAL
PRIMVEC
9.26784338029043 0.00000000000000 0.00000000000000
0.00000000000000 9.26784338029043 0.00000000000000
0.00000000000000 0.00000000000000 13.56442559502272
PRIMCOORD
 96 1
Ni 0.9431142867321914 3.1466089455496835 9.036620038840725 0.5219092591506882 0.002946741333149764 0.27619844310829206
Ni 8.415554044689822 6.054422636368311 13.048136574039312 0.8987476219702458 0.6390808579683898 -1.0986053842342693
Ni 2.9870630202917807 7.7735797956808375 10.428099617451045 0.3871551713645332 0.4511229324657457 0.7447485699115496
Ni 4.288601885207191 6.829927974027649 12.760774112411857 -0.13817262654940074 0.07268071549417804 -1.1671502231832027
Ni 6.63291215763889 0.1265459150304373 10.669098765358186 0.7817791403022858 1.6677182976539537 -0.21267085486829182
Ni 0.8625878484294981 6.099038034811038 10.664893944777907 0.8854354782423718 -0.3122957030514815 0.9102972744810581
Ni 5.198351935463725 3.027239121714552 1.9453416594401296 -0.9963194442791485 0.5705941259509012 -1.9505555862350017
Ni 1.7457836735887944 4.8825130980042974 7.37961767172931 0.1038064903647051 -2.553259191125938 0.7837941138497856
Ni 6.26078970681372 5.49984415123862 11.801999950576079 -1.0688710903946301 -0.44000496817571316 0.05887080619427926
Ni 6.455358812527598 2.920362350870862 3.7514589939890715 1.3030528227515041 0.6866889467646561 -1.1145328540978032
Ni 5.3714289121812 0.0737785214754914 4.3239049545358235 0.5942629303227507 1.039341199256313 -0.536728840662024
Ni 8.36045671528766 1.32456945592708 8.32003872315044 -0.12685128799931056 0.1409869560697443 0.27425957421436636
Ni 3.089583904706705 3.5467480871709403 5.636127789398217 0.1673083675730925 -0.2441532417472892 0.7311952567071472
Ni 3.0013818384459174 7.016230163370337 2.9858554202882313 -1.0587535423446541 -0.28642063505693255 0.8281099050480253
Ni 0.5175664254660278 3.2363772773561337 5.795387338293037 0.1654322335963022 -1.044099539876905 1.0314700240383525
Ni 7.281003183335078 4.00308743156675 0.3140668257888323 -0.997447901456637 -0.07798284443338181 -0.05788504524224224
Ni 8.018714255342267 3.6009000965396263 7.508750241870958 0.5641311439343768 -0.002757508140479122 0.21071630224508225
Ni 0.9273311493105121 8.057954304575029 4.635575116004488 1.284866895871097 0.15387949576169627 2.8243226270005097
Ni 3.4130779808686036 1.9641340656350437 7.426984692896932 -0.7492891380943805 0.4898198348153112 1.1534539566430329
Ni 0.540525654083013 4.242735327896628 0.4614737296756746 -1.0937452279284907 -1.5717598425787578 -0.22922387413096654
Ni 8.480410413261113 8.007361147097079 11.564500340361494 -0.3495669286981141 -0.3352561685023968 0.3749743130276252
Ni 3.79770275252868 9.086536643745696 6.315895377275002 1.8018964583319805 1.0035714978558716 -0.33558706947925426
Ni 2.9152094299040656 0.28803901420043304 3.7788454714295074 -0.7691020590552495 -2.3344048331547538 -1.883087525290015
Ni 7.037295971567328 8.575785790364169 5.7389860233152845 0.08733677484445602 -1.168853579027555 0.03903628796685535
P 1.8892498904341228 6.849418248835513 6.545065976567176 -0.5193726087717636 1.2135897455926647 -1.676982753675015
Ni 6.594589624909211 8.95039202323808 1.6318003203757887 1.1295139008876676 -0.0356282907265709 0.7494626875577672
P 1.3036519332255359 7.447499991192076 12.138072343889299 -1.373121811654448 2.9795879473661397 0.1683396370510843
Ni 5.044969126110353 5.448120316857886 9.448422761463263 -1.4671653090951184 -0.4294842711500474 -0.20513212328908542
P 6.212726670601842 4.84555293826404 2.517652309472286 0.831514045633568 -0.7818038228926343 -0.3938292409505992
P 9.071652487140167 4.940418583976494 9.374102997929391 -1.8167180967258454 -0.9910473972469318 -2.0005005506945612
P 5.177684644535748 1.7792127849687105 6.125395781626808 0.44509549532474313 -0.33217470136359567 0.1968716830525061
Ni 9.172162249523085 0.2728184348771073 6.280423633195299 0.03151632544072637 -0.44035772352944164 -0.34272907984067424
Ni 0.7341049541147796 8.773153784804615 2.576888657766123 -1.1444784926173 2.8769549084842447 -0.28370400745671787
Ni 8.279984030477065 4.417786355272246 11.431948862765438 2.5473965616975742 -1.0668445468829046 2.5785488189306625
Ni 1.6266455458402995 7.612041284077861 0.9661180009978109 0.35765844745699693 -1.2108674615654953 -1.2410938645502045
Ni 4.418101461950071 7.677166420109653 1.3299216355283836 -1.2413558599623395 4.412208685717169 -0.5420847056572986
Ni 5.4019108493390995 9.222013979523798 12.891223643109946 3.0558093290237243 -3.687900385937842 1.6728839010152932
Ni 4.767035768424659 0.715215235563478 2.0933574606426526 -2.4097998622563015 0.5874564489238786 0.3061942181394339
Ni 7.054209785891794 4.288045814599264 9.760567436517361 -2.0679935513402126 -1.1649663281580065 -2.5477094649523027
Ni 1.4823452230830796 5.11614616392509 5.088721688326446 -0.028073875418080686 2.3759286634301535 -1.657222283218636
Ni 1.3420856800768004 1.1423636533961266 11.721223280499817 1.6628920799099038 -2.6797551526683594 -0.9974939242032239
Ni 2.238174929065245 1.3628456494394319 5.566419704772756 -1.6996696537495695 0.24349632488958065 0.5382329360113763
Ni 6.240826771989118 2.4555800010780175 11.785112086213315 1.5177980436503216 -0.05112664347248615 0.4004125505950717
Ni 4.416952249360354 7.470141332778195 4.967916275538515 -0.8024125002819213 -2.526052805914475 0.3335391858112901
Ni 3.936609190389002 5.650094429500666 6.6585998393721075 0.8892540806575138 -0.4934908559089953 -1.2804268578218723
Ni 4.1909929578289615 2.0328458570879677 4.152233909672059 0.6738177472289427 2.484407876680179 -0.0735795731593636
Ni 8.029047900806257 7.692495433201524 9.052070460681994 -0.22265907642925525 0.809086055647355 -0.5048828997960207
Ni 6.5597518013225455 0.35355432644211987 7.605207176306431 -1.7869961441813806 0.5070853067639783 0.8378878103703956
Ni 7.812226702931808 7.232995754183992 3.9021596894435384 -0.06912256582927451 -0.3075962406932831 -0.03452580169101151
Ni 2.7067663625223934 1.4692404924229185 9.694888083446335 -2.0622412222374678 0.9481786229078638 0.49449692857600636
Ni 7.468917977440754 1.9799635422740502 5.475090668126722 0.2966921921862697 -0.9047382923360419 1.0972594117293362
Ni 2.107655889541165 8.964738644922614 7.661635368030234 -2.02719914303167 -0.08216551505616172 0.9163640495004283
Ni 3.762392268925275 4.894505687448602 3.9665637872537167 0.7188009968078525 0.13802478811762683 -0.7587927067094417
Ni 5.756340986988706 3.892142077441722 5.663011949722825 -0.5146731464135652 0.6913241315438222 0.8250420647559791
Ni 4.49092817590166 1.6785640049338093 -0.07781003338296673 -2.7802531474851215 3.9205104029322224 0.861002027790356
Ni 4.270307162206373 0.2163522449950961 8.87116122945186 1.9470923102767501 -1.7201022105723085 -0.34318647909306704
P 6.28514559944095 1.89331847371546 9.499642425159479 0.6034829062591219 0.20569622332267154 0.4705347613334542
Ni 2.9287404813636377 6.725711074258546 8.38136404336139 2.448365124124009 0.6909142976999134 1.5544486049938198
P 0.9318723926085878 1.750445398851921 7.42684845559799 1.5351571037540592 -0.22796043403751065 -0.6110530052968961
Ni 4.222587036202716 4.385691813351356 13.254899381400696 1.2990393307167372 -1.7589356384997383 -0.41451916519978294
P 0.2523077705036967 2.770779357338329 12.162922212573237 -0.3885402246375179 1.3603179750215604 1.5898809776595006
P 6.585164228104838 1.8436984398013845 0.3286887024242893 0.5328261631735082 -0.08261648655065126 1.0722783163039662
P 3.1130593522047163 3.8088705039045596 9.273563578447382 -0.4187386025977692 0.63760581608476 -1.1744624405739
Ni 5.8623651162335735 7.577036639308817 9.597089165277062 -1.5158332066144669 -0.8771344145758443 -0.05660926385361219
Ni 2.7047923118642507 2.963735858289217 1.154161618127658 0.2907143773362799 0.4859140720030018 -0.11027847124229395
Ni 8.439057295718229 8.254293568390809 0.6250836042931817 1.2633932993783532 -0.32881452664211114 -0.5498139559807563
Ni 2.7532167939712817 8.790466116398095 12.717585035078466 0.9585270560217233 1.0447654555956782 1.45794250494527
Ni 8.211689291980086 4.859158132471336 5.181040530654591 -1.6975076131012443 0.9775971852792968 1.5011766330435565
Ni 8.772319678892723 7.046137494233378 6.333922259599669 0.2313087816844532 -0.45790524549490175 0.2425735559649951
Ni 8.354358474287386 2.2255613941087535 1.7591701466903054 -0.5215464764946308 -0.5296431374598362 0.1838091934415931
Ni 8.823024050492258 1.6820672497637532 10.454347076929574 -1.3494488935175404 0.21277395610505936 0.0033236650565942757
Ni 1.9222619488580932 2.7705754647820893 3.284760980951917 1.983213738589655 1.4472068636953204 0.14744119633552027
Ni 0.9268584892937737 1.3277019870184057 0.4867406513155596 -0.1612480203116255 -0.06671447060841414 0.262979887535489
Ni 7.992634543830462 5.93564595451497 1.6730088595606123 0.2658314980516712 -0.8557358942954101 2.199417289201554
Ni 1.97694222530431 5.753171384523518 12.896784349189224 0.9528685721843654 -2.144229845396133 1.6680481701895464
Ni 0.5352031315807991 6.536776817371669 3.0869509103781674 0.8105446424707524 -2.112539199161071 -0.891110417139962
Ni 0.4095404420326202 1.6165065250890858 4.175320107744521 -3.144196399509566 -2.813220860660394 -0.7462914889186373
Ni 2.584050847196231 3.056655256873924 12.292272577036325 -0.7479359665005958 -0.17914649785860115 -0.02024255229911998
Ni 4.186887303173763 0.7236684355883245 11.337893226571865 -1.1298748837715122 0.6608796990110359 -2.286375340550353
Ni 6.306887960210921 6.768315350669268 0.4885525147130571 0.33149541590838394 0.06635811571025992 -1.1819710902461193
Ni 8.115776379956037 0.8859381800407259 12.576853758839793 0.12214616921415739 0.3970248650697614 1.264888395866641
Ni 6.443412562300619 5.324394606593987 7.5506918674738985 0.06926680471662265 1.1581899286661212 -0.9615306187347376
Ni 5.361734747916328 7.581874453597788 7.317112555045205 -0.011445779943096417 -0.8029593739243268 -0.28537471029092143
Ni 3.523976995776304 5.076804168414211 11.318292664426764 -0.7898855714595042 1.260121570605617 -2.7328080666292807
Ni 9.099428214006151 3.8618269614662006 3.470729527929847 0.30794719627479866 0.1258290173823833 -1.6336100431163347
Ni 4.412540755870795 3.0560713827355994 10.712505637013019 0.38196617096442603 -0.5093399071261099 -0.5576848740884008
Ni 4.380094035898217 5.564144449201986 1.4387103624789985 -0.8443662190058878 -2.0344943911415028 1.7535494344871605
Ni 5.52397761562268 6.763672161093073 3.1311575969240675 1.1752448272658793 0.13492429481543214 0.2716128806201387
P 7.491207140975187 0.08032069217775996 3.7462912444727308 1.1312743352222001 1.4753668710693044 -0.7532383525501156
Ni 0.7777092308354248 8.562097185565682 9.959462771560915 0.6877587827900671 1.084604699079803 -0.486350131099156
P 1.7524009138231331 5.257870026198913 1.8444630368872852 1.4240232264900057 0.0525093827526257 0.512457112598853
Ni 5.295404792234028 3.112271585510152 8.115731894307402 0.2760099812465698 1.0312723062052498 -0.1556998367998867
P 6.201558919225962 7.6251645504249534 11.800996243128768 0.5765739976834199 -1.5734387729430772 -0.04800506712436894
P 2.5942176714778413 0.38627259422823507 1.4752534692633092 0.5608085073190471 -0.15997558135710513 0.39171759392423505
P 6.363913001053899 6.282476460522898 5.360226869784498 -0.23452291774637674 0.060919975413824115 1.0070522573156204
Ni 0.7111735290281908 6.632319015657101 8.450569810871023 -1.5352460639234398 1.1150897550425378 -0.6461853302236549
