# total energy = -381168.487164427 ev
CRYSTAL
PRIMVEC
9.23458311191601 0.00000000000000 0.00000000000000
0.00000000000000 9.23458311191601 0.00000000000000
0.00000000000000 0.00000000000000 13.51574583025337
PRIMCOORD
 96 1
Ni 2.2015800162460533 7.803813724692142 9.236296105547119 -1.7136446278724227 -0.5145924137743009 -0.6835455160396678
Ni 7.391231021379972 7.419645833549083 5.13725398067908 -0.19393239791852407 1.4027730588619776 0.02401333219546187
Ni 3.1781833509695976 1.41145061786663 2.2345308556291608 1.0078012196665032 -1.1191397567421952 -2.960899626928017
Ni 7.109862509199066 9.26478017708941 0.4312864279034333 -0.732616562534706 -0.5400229380322635 0.5861788677630356
Ni 0.9453996784611374 5.646088743542322 1.3085773622397536 0.008066836168534494 -0.4309575132614643 0.9536962102919835
Ni 5.505039721419799 1.7121101741233473 12.109459330124722 -0.24885604653959725 -0.40252985404839065 1.6142342096928843
Ni 0.20358192497736627 1.6554375376976616 6.684441888474644 0.17046362537262255 0.0468311014209258 2.056047177611614
Ni 5.416932564154446 7.537820793356724 7.22622010305452 0.4539454895162052 -0.7469139529939847 -2.1005845979023565
Ni 1.4946265077617171 9.535907536623078 10.71256703250008 -2.61131495761809 -1.079840187811624 0.08703749843648236
Ni 7.747464298674619 9.074713987923129 10.930035000070458 -0.13677985996693218 1.4735413878247912 -0.11291513753419263
Ni 4.487665702352208 6.4897510200966995 11.838712435414374 1.5830685827233575 -0.6165289408098027 -0.5903671948127703
Ni 5.334403095075685 0.93752257908504 9.999286911140523 0.30467058240605593 0.34200942806583035 -1.949636159744526
Ni 6.933989874242705 7.30821211939742 2.2330311593352823 0.3442843401429361 1.661716314434248 0.8142079502549526
Ni 1.2884829094350785 6.954573759951171 4.255851809950921 -0.1699568609395331 -0.5223736003816165 -1.0224487943763487
Ni 1.4971844872777533 3.939944110095362 7.429889756571246 -0.38303780676205 1.2395977396206521 -0.5007236262120086
Ni 2.3269856546134657 6.999666229181515 11.398991139316184 -1.6889908338794848 -1.5212847166473413 -0.233591664181359
Ni 8.96650314327001 5.09466408346623 6.046241698014834 0.4628075678925255 1.171183512712312 -0.7541883751682108
Ni 6.800956470242635 5.368543348760834 11.674766264519244 -0.20359357515737195 -0.4105447539330671 -1.9265656510783078
Ni 6.437788021047109 5.710638479344104 6.137338089826544 -1.0817908837800918 -2.471590156090221 -1.013204135849629
Ni 9.181982905101027 7.705899440184801 1.414963453274212 -0.38602979951083843 0.6189645468344889 0.23531456040973667
Ni 1.8103661382050313 4.912207190766425 12.79238352994957 0.5615844662531231 -0.8372470914626032 0.6029406606024068
Ni 6.831827681513789 4.240252752194644 4.0266383761478854 0.2660482420481676 -0.6172277666490402 -0.5299796948636486
Ni 9.123361771643271 7.241778528645199 10.432668665947165 0.0010698360254110608 -0.08302709172550862 0.41872806107480787
Ni 7.045294304231102 8.658991526360229 8.68627233172584 -0.08727943924395937 0.889104699563843 -0.861392321250239
P 7.854456178359806 5.413635817991178 9.60243716703944 0.9893106170614833 -0.4702110594454483 0.05000795648701065
Ni 1.0582370492425377 2.177754791872863 12.886641843011425 -0.12309567761162026 -0.06902949189483595 0.08650656563367681
P 3.5911816105208345 1.2577686860764616 13.410363677274674 -0.9046264493485259 -1.1907449797840073 -0.4383700036754515
Ni 3.541462615162208 8.850581421736422 11.352739729907997 2.1181658013192295 1.0246141774587838 -0.596244993749786
P 6.058052729787435 2.8928439680598266 8.599136652601597 0.15640123374228548 -0.20201543203697467 -0.591594125241336
P 2.772221843733233 4.426191082719524 1.6231460475472075 -0.09680923311126555 -0.7725655921238179 -0.45203258876420854
P 9.187385136208903 1.7053504593011863 10.778563827472128 0.7816837523750022 0.08723984425527556 0.2568565482465705
Ni 3.1968556779783537 5.817103987793139 3.2473337560670097 0.08672613784365063 -0.6723730443626162 -0.15581245111835101
Ni 9.25471448152089 0.9234675436214759 1.4225588978660524 0.6120220540783846 0.3599966086718703 0.5482887775854814
Ni 0.9832522345486209 5.675851804842628 9.101949543831598 -0.24862439014476537 -0.6338859440310115 -0.6994084512138535
Ni 5.574576132090388 0.12253091265137624 2.9572718073648168 -0.24336982661404538 -1.3730963577331514 0.7456484560179998
Ni 7.988690078161626 3.10246900421154 5.679586270244379 -0.8073197077755516 -0.5914357452866007 0.1901454200722661
Ni 5.827474424603641 5.35448831329727 8.359921241853366 2.2690779869224857 -0.6662998415853428 1.762995410391409
Ni 1.1887955849743845 2.4477001247709635 5.044346687123347 -1.065221923677817 0.35941091137172937 -0.6934213803924832
Ni 2.8236677061297617 2.0078476975928905 11.339873185288166 1.4469019308603919 0.3034876178415483 -0.09287030306817555
Ni 7.966277745001264 1.6683290156918373 8.591918902458152 -1.323964890313823 -1.2763280051621502 0.8597239324088807
Ni 7.5863854658290535 5.503488311460613 1.1274696421294546 1.580156551282885 -1.7421033974337483 0.7981570674396771
Ni 3.5271213076228416 7.210759564044599 5.240351636675053 0.6058722324269049 0.7689413651076693 1.0958049386709967
Ni 3.5551667364683377 3.390597231214607 13.177027925580092 1.063712429011826 0.3263992323323992 2.288166371012504
Ni 9.16543453220306 3.423693977010543 1.270716495027489 0.30837039985514636 0.31654445102550643 -0.2179452158933537
Ni 3.0596759461707017 0.8255080096569929 4.25708185641856 -0.3167007740977126 -2.0600678687352327 2.5750300071441266
Ni 8.581310213403919 4.624716149996596 12.815130155017803 1.1465009223639675 -0.4245863196277978 -0.8101785173805853
Ni 3.089660637465178 3.0578382641357154 4.49729644905717 2.639353866033177 2.7626603741040228 -0.7283310477854746
Ni 8.018720942371553 0.21534770729282435 3.4582876487254297 1.1859010214281447 -2.1565444010974275 -1.273495935029994
Ni 3.8576270364276803 5.810815236708589 9.469226459044034 -2.1197444586602585 -3.124841649132038 1.5305640850667381
Ni 0.9719952777614429 2.3581431379604205 8.828038880954486 0.27693532127431664 -1.3491074510177217 1.9868068552575524
Ni 3.0531101575934385 0.845165666681493 9.099935481259585 -0.14662821351592167 -0.0267412726495862 0.3808467126480022
Ni 1.152161993854832 4.069034347115838 10.921384966089695 -0.81509472373528 -1.5448586473125394 -2.0264170134500064
Ni 5.301758843851178 1.5520471454177238 1.1789515194000355 1.1819101551011968 1.2560206610633657 -0.9528616302058299
Ni 6.068949537834087 3.9679156622761345 13.144387368188822 -0.29032639786924197 -1.4737195652738684 1.0123574715786177
Ni 4.717883858795479 0.41915218572266894 7.5503955251509005 0.9228226606415785 1.4484265950350346 -0.6385537818203261
Ni 2.4027646434531555 9.133870727200128 6.851225846753448 0.5420805918922407 -0.7511444461355644 0.15924667361088057
P 4.634181597664239 4.640350299168615 5.313445208752059 -0.20500716767544694 -0.0587489359044343 -0.885863824029042
Ni 8.145585644867248 9.132679465981468 6.56290831079703 -1.1988421549698451 -1.3385942101912238 1.3956829847844157
P 4.764066008830488 7.387213977735654 2.217582625283379 -1.1723181405373875 0.10028356481311117 -0.6206398776543827
Ni 0.7283444967549011 8.943924587614022 5.2310939671269425 0.1606828918367749 1.6738652910919558 -1.6981321340591207
P 3.4000811480484314 4.195705123366633 11.241221057591904 -2.514212875856754 2.4254774208925585 0.42922124729664785
P 5.681494135110853 8.570810492430153 11.478801023674828 0.272275453904802 -0.12338904048232298 0.8502573876793421
P 8.492085671584631 6.6205034820734445 3.6260449320619608 0.5411925328603324 -1.4682541712839228 -1.6107413660482774
Ni 0.4479068305495062 9.105686779608275 8.422526174456314 -0.518693580426868 0.06202195022875126 0.34590619201707523
Ni 8.580479100925785 2.4063291925260435 3.5712118245878797 -1.3064880736852984 0.15920116508492582 -1.054320703384281
Ni 5.541119237553928 6.1276076096242065 3.792099358276625 -0.6692303849685765 0.11963343009463268 0.9410237570306375
Ni 7.67099271610315 7.252730744190394 12.689947070102868 -0.49731794296456927 -0.8196337492562141 0.3580510549097253
Ni 2.847539103418404 2.128211253592953 7.172617042048078 0.22686951496617702 0.3135041215372859 -0.9811625340330521
Ni 2.2363851599137097 5.111886580929796 5.654595641485183 0.692821284914639 0.37422612200769095 -0.8039073396598929
Ni 5.119071086574114 3.574974917197211 10.445265560740758 4.3978308197289415 -0.03902523222326182 1.0080868692277218
Ni 4.413290370142257 7.793535633712544 9.20787205879492 1.996025802752659 4.053971482938566 1.3126726052294555
Ni 6.858811133303891 1.019895060251264 5.107937873200348 -1.27280019451455 0.7784397915164077 0.3340071265866441
Ni 6.454945876429043 7.021210511531381 10.13699855493418 0.030521308517308728 0.038289382498501806 0.07556780723398597
Ni 3.301224936065872 3.3306186140425638 9.299184539850943 -2.5607768396592223 -0.8973944503764609 -1.7085484442964383
Ni 2.1010061718086823 8.733505377316536 13.130236293061117 0.5181644473962753 0.6096782364365564 1.0389390787218882
Ni 9.154971749561655 8.932178197923054 12.839660901539098 0.4566639168886329 1.309528403173519 -0.7383300679797156
Ni 5.119643630725718 4.064601747232453 1.9952886645899683 -0.33748145828848974 0.9220325606401153 -0.5446918042628426
Ni 4.028171316940889 4.504601927739973 7.484087524728708 -1.1735733531007273 -0.3604159555974761 -2.1329558151442103
Ni 5.6319413622478525 6.254065990463922 0.5104600494871483 -1.2391858488942142 -0.17705104878215316 -0.5073133636143844
Ni 3.132167423430215 6.478143149152087 0.3167277308339854 0.718884300550278 -1.724331675272624 -0.33504816625664874
Ni 7.892428784027464 2.10600208126058 13.115639187570148 -0.25980508935193325 -0.24292348310524614 0.3459694411548429
Ni 7.476179951228413 2.7705503841938732 10.96322963244715 -1.2397262947787164 1.3654689230948809 -0.7882706615639005
Ni 4.545298735419294 8.296968165467911 0.00035276107405266325 0.8759175114496075 2.078798612375517 0.41514600015050435
Ni 5.178532567093097 2.3328680840420404 3.4768990274857896 0.39565138176100245 0.030732653197166428 1.0454573394563802
Ni 8.332706002027695 3.7722717849232623 7.894074386734171 -0.6788738215956115 1.8622819013985734 1.1081670597807756
Ni 2.4255463599371323 7.7873392284588965 1.8778238442219766 0.9674217874081921 0.5153084660047189 1.0129089732067138
Ni 0.4650923896807105 4.461116275967355 3.5734687566951693 -0.43990032427704884 2.299703939338459 1.1391555377424898
Ni 4.918736041011327 2.4802058572491146 5.967012668932577 0.6705223643071226 -0.0012009622866366414 0.543435049037606
P 4.896766967839303 0.056456547181370734 5.257192745856986 -0.18753137948818674 0.03815157136905688 0.7105451845569634
Ni 1.5197353391844708 2.704975609669058 2.6356109622439488 0.6977953410904628 0.3805788036985962 -0.17544333797540107
P 1.3197696769452987 -0.1845743826024292 3.0215805205479414 -1.5887504635994834 1.5718552305060411 0.9322683794355107
Ni 7.739771890960329 6.60427831958364 7.712408897805213 1.951422819331304 0.8983745549015432 0.34312168729340264
P 0.7026677384720889 6.7149825016711615 12.752863208155961 -1.7560107515434595 1.0698403962864351 0.4992593829616563
P 7.1490356106684745 3.0894390074710087 1.5048565789092443 -1.6956381639926734 0.08518116195403394 0.5550803465860183
P 3.2338032449229797 6.853685939688726 7.585779677178324 -0.44634299457859905 -0.5395102600619031 -1.490144543599111
Ni 0.9089424678786111 7.162739731974604 6.655220897201742 0.4494774264425227 -0.7198973151958248 1.2236126770463056
