# total energy = -340869.89063889824 ev
CRYSTAL
PRIMVEC
9.26139370030542 0.00000000000000 0.00000000000000

0.00000000000000 9.26139370030542 0.00000000000000

0.00000000000000 0.00000000000000 13.55498583641775

PRIMCOORD
 96 1
Ni 7.558232785353609 4.9128638133615485 8.681738030575607 -0.12232306111165385 -0.8210121176609797 0.9315888368699827
Ni 8.105044001260522 0.3844024871500076 6.278886065756326 -1.3908061163080885 0.4375935305207431 0.062409415475157035
Ni 7.277455107892651 0.8057329300126542 1.7200464415654437 -1.1473866674030304 -2.2895491102926444 -0.9455607256690424
Ni 8.344025008259981 0.12973360510186038 8.956226295470554 -0.775279134400239 0.3508090286353313 -1.9318276708081956
Ni 4.204561672828626 3.324340278190489 10.893206995966853 1.4015975504966378 1.2211235920758645 0.7118690455747095
Ni 2.416714419139417 2.4623082610809117 7.705847363568703 1.4689514544612639 -0.3062106731996662 0.5390852567093425
Ni 5.780313745875508 0.7004512569631877 13.166486503937328 0.20205425569471006 -1.5845863049194646 0.2884217246473613
Ni 7.091588194643848 2.734537672014956 9.672621041952793 -1.0363047264228347 -0.40494129170336063 0.624143262821951
Ni 7.267665814589348 7.285280985698981 8.436772310867925 -0.2229796929934676 0.9338892028683853 0.5753861480229059
Ni 5.355678837685881 6.140304124966693 5.10685482129877 -0.5865843307315705 -0.41181976399074877 1.513860142048496
Ni 3.7747403840809572 6.357233753200622 0.7136533739015587 0.1277421752446961 0.20291351837121183 1.4333308770441766
Ni 4.714021687323789 5.541054897060442 12.096902946010022 -1.4361387788066171 -0.012845745614416586 0.2690438343413818
Ni 3.930850438877999 9.109469948869894 8.846011077915252 0.6692517251248151 0.9789141043185077 -0.8046128503673499
Ni 8.26149672763015 7.315074889726158 2.0848379272303577 -0.7136968428120677 0.997873933250462 -0.2606746364410801
Ni 7.911434562750072 2.4457766730521557 13.83326981582436 -0.5110232083658037 -0.33625581341150473 -4.422440390747506
Ni 2.7698976737481726 8.938773198753362 2.140481307642443 1.583517497335318 -1.6605577753497724 1.8316356372676261
Ni 8.766807637678879 2.5741025462882616 2.195270787541222 0.26996454638343825 0.6404983071412066 2.7987123826315736
Ni 2.9683786054256402 1.946207827192686 1.393248898045723 -0.08812404663244178 0.11984503188480651 1.6268372431688756
Ni 1.2209202903321783 5.653302990566619 5.6838767039562725 -0.4229480126934264 -0.8871527180437947 -0.8710198170376742
Ni 0.5206625965005317 4.164737679257952 7.415227602859476 -0.7393456537284234 -0.406695555390306 0.7801819710184951
Ni 1.1460141368438967 6.1791001038196125 3.024781420133724 -0.31619426677493934 -0.1581776089164179 1.640523996627349
Ni -0.22133990398703465 7.158325798753214 9.924012316716135 0.7618412637277783 -0.4310583005053867 -0.46432888963305835
Ni 0.819538889830283 8.604899950329456 3.293590598317617 -1.1721636172373942 0.2524244806171459 0.7319845853776619
Ni 0.39726378479456453 8.188646603577377 7.104466162797341 0.8449958821700867 -1.116846075612012 -0.6710952060914572
P 3.2151299218683067 3.0938149237794095 3.490151643049224 -0.7856165117705051 -1.638280966229443 -0.9354418920674857
P 2.752199150093857 8.17991310917339 7.227545456415357 -1.547297081550703 -0.15595437601285397 0.012073386224766303
P 5.263731719506892 4.898462345919131 9.384469442705562 0.8041017150588862 -0.3852546119077107 0.6058907443696662
P 4.778277237880379 0.33306195032232605 1.6543590795190803 0.7206408782300685 0.11286834345665722 -0.8600239801478027
P 6.4499310442817555 3.999134695760924 5.688160098613584 1.2529980721869582 0.6160890250589066 1.5519312378886045
P 0.3116394201994596 2.0265689416607646 6.961325763952944 0.23303913411199867 -0.8709650525403387 -0.571703556964996
P 5.898989246716116 8.443057092737007 9.655772714254242 -0.25790324434353 2.0074067908960913 -0.20704785225455954
P 7.542034607503584 1.0546319636899806 3.701744856144683 0.6776270936727039 -0.9714699893356366 0.6783560014189285
Ni 3.316773719412061 0.9812724629752579 4.86286525250326 0.001287094242539719 0.8544765679670123 -0.5713472020668419
Ni 3.072597070460709 9.206325605791314 11.000847546030844 -1.5914760900607623 -1.0512261236193574 1.0634972276772263
Ni 8.708998017244426 5.758373503836223 11.890718386925094 1.263285055935263 -0.10987712203881722 -1.013831485020983
Ni 1.5740850221532263 5.209089495770386 12.86307212761929 1.221240063049071 0.7890324794305895 0.15303308860100096
Ni 4.40006043568522 6.948481136817324 7.80736057545912 0.10867693108312895 -1.9149146971029407 -0.4967479293937122
Ni 1.2000821541614768 7.006827918095288 0.8823283617398405 0.010648480852781661 1.1397286366371404 -0.4994043931799528
Ni 6.6473746998476155 6.690217907814578 10.709699885871961 2.8080310889293383 -0.670799015007277 0.4253008291963191
Ni 1.4969098271708017 4.202162971820532 1.7277861884089347 0.9894494566321925 -0.8205302929285546 -0.6640478123263724
Ni 8.473767874755694 5.051506879350615 1.7588544602303726 0.9283237929654657 0.9194612003685132 0.13717786673629923
Ni 1.5649532878135322 3.3329441130805257 11.010579418692256 0.76904292368254 1.2085902354955445 -0.12257502922145985
Ni 2.6772744738178678 7.482770948234109 5.098897431699717 -0.1253201960667648 0.9233409950388937 -0.3062109303099823
Ni 5.100416300291715 1.1485332359720881 10.742515782713578 -0.08985337061872267 -0.33165456719406755 -0.4392693755612693
Ni 5.488866942695151 6.4468562615223455 2.9044407206782306 0.9428914063669955 -0.7399521769641707 -1.6334984572391353
Ni 0.7188943966833365 7.83475022164189 11.988178812865158 1.3676780149310575 -0.27912692960899665 0.2563258725540811
Ni 8.229443043502684 2.791235925186971 4.854731896420989 -0.12032711372754762 -3.259969575317844 2.3682487782873927
Ni 4.5679695062518055 6.859062379160381 10.083283285235424 -2.830296585195758 -1.1282193504459603 -0.9937789372454822
Ni 7.511258995727921 2.647554660941521 7.331146186480388 1.795408793725108 1.255567375576031 -1.1141880691638746
Ni 8.422274524929428 6.166430517027825 6.831279123738831 -0.056917539122650365 -0.053096365604347266 -1.029895480462381
Ni 6.139739179941619 0.9637035988348931 8.005317312244472 -0.5887003486333087 -1.7173765841110296 0.4581009064454755
Ni 2.362174070735301 6.111241871053954 10.644744173940035 -1.9791894479216108 2.2349339940509254 2.1047598123259688
Ni 1.5066250293232755 -0.03709095624446321 8.856001343465179 1.183372084358704 0.35203570195358075 -0.04879259602267081
Ni 7.994388867497172 8.464626879022147 13.182874540361352 0.3616279736277062 0.02776071505303606 0.562727835828947
Ni 7.058793599008091 8.069897011585939 4.383682586794434 -0.613578342821911 2.8397122220827025 0.43631055004326147
Ni 0.35830573154920653 2.3230261589159436 9.146836894651194 -0.24880051071131343 0.09131838520002337 -0.08192588824152988
P 2.8536947653359537 7.1791083665607935 12.564550545674136 -0.6495197939135265 0.16041446866673661 -1.7337717376396011
P 2.9302216627486226 1.8437675497775177 10.072628977746191 -0.41762788603209366 -0.052334547737658256 -1.3363547793377435
P 0.3606108924793788 0.2534584178714758 10.598427017138569 -0.38374768834488104 0.32105185197755676 1.9704207005900454
P 7.432120385248524 6.346620195844345 13.426376033700775 -0.4350489097220185 0.15650510631000142 0.9168769845811048
P 9.38994200033368 7.299367565750376 4.989400898307457 -0.6221874246471607 1.7297700726793757 -0.2817080600726116
P 6.86467478383569 3.898722663599704 1.2977092851909058 -2.966824477052884 -0.6198945148479259 -0.07801549744353016
P 1.0185125276607647 9.38577437309954 1.2388216385118886 -1.845131871981848 0.48764905241623757 -1.1057052285038442
P 4.478106201689887 1.4906120793503232 6.662926432406656 -1.093578106223007 0.8136801027759406 0.9218356141379608
Ni 4.694822817865182 8.540635138379011 3.683120193105003 0.10920092190739904 0.5262783347526613 -0.18820320874423072
Ni 8.74605285405286 2.437413634402314 11.38595760367127 -0.1430968033238955 -0.7010305601983088 0.833785615276564
Ni 1.0213465141799802 0.8671896873466723 12.775099999682286 -0.8970836040042615 0.029234471385085135 -0.3117321172385277
Ni 3.1886238126591744 5.15848523975407 4.086977164183977 -0.7171781164924488 -1.0884906643977705 1.4837692362003865
Ni 5.00321797179771 7.929623940278631 11.993546716742728 0.2574191056182599 1.1814195886180234 1.3283517065276091
Ni 5.350075694404426 3.269577656333886 7.784628484245348 -1.1759089432124392 0.9750515360393078 0.1552573499458294
Ni 4.478041371932911 4.228826524725176 2.106011325858561 -0.2013718849157048 0.6692339845130023 -0.3982430537475786
Ni 4.508029765231014 3.4759492955746594 5.193023755852468 -1.1085758651834199 -0.27307815231175553 0.7466064490558948
Ni 6.598048516183101 4.048646107302511 3.4622415065318792 -0.2734059679648195 0.24934609880213832 0.08839658356753809
Ni 7.239159244307829 0.18156129124624365 11.035060061065595 1.1901459127474276 -0.6632019193863095 0.689390147745903
Ni 3.319681797082106 -0.20582151244586697 -0.14265139724892453 0.33596784985744077 0.9517529705226836 0.35670071152941796
Ni 5.042912305854433 2.7042714369012435 0.34911009359192224 1.0671911315890459 1.2862334372013202 -0.09730339913886468
Ni 6.112177271833172 1.6415172308016164 5.145432231256743 -0.30015983901989596 -0.6197813863088294 1.27409191674278
Ni 4.669650349370976 8.645789004193297 6.176546737534163 0.33884157186081 0.41958295287593544 -0.6785316077648443
Ni 1.8039806017822584 3.2284385448359942 5.435237915446234 -0.09409183418010247 0.13089434772043262 -0.07352737976518949
Ni 1.5385860995122047 6.131959609104558 8.208439128382002 0.502000178931587 0.9314751941102539 0.17690038213690176
Ni 6.003698565625427 7.692180324658878 0.8001288605918137 -0.43630849316073245 0.5028820673159081 0.23097633804569898
Ni 5.3459451127457 1.9942651998992502 2.919635889573906 -0.6018127176455507 -0.0348261065402497 -0.3277624312285129
Ni 3.0619279447413095 4.632419546079322 9.368298122897713 0.8585052295104313 -1.9921935734907623 -3.2363334239561423
Ni 7.622608734030297 6.02108220188872 4.321275610451032 1.5308121965218022 -1.932205108752272 -0.13852049680712272
Ni 6.757242615133406 4.637198425307802 11.793570069957898 -0.3877179858465387 -2.5438160434351675 0.3018865919030156
Ni 1.2885469882514946 2.0544272143725286 3.473261639078332 1.005751536226326 -0.33928303027360274 -1.3762433880025653
Ni 2.7791127606325494 2.3480319223207853 12.718047035125677 0.7624992090267513 0.6099381749661624 -0.5782020202051462
Ni 0.9504598056241806 0.7418691364160739 5.267549266053366 -0.002760593464272665 -0.6846066103143307 1.353439245623856
P -0.3232652479039403 4.278819528747152 3.8897928276460196 3.0177071228353642 3.4165186474919027 -2.7489857048304076
P 6.728078485888278 2.1116533669942017 11.904517863767024 -1.0752638812948514 1.3907778341733144 -0.3484736956339353
P 2.865651224801009 4.717226129597149 6.738441059471121 0.4393580786203336 -0.2820351043947272 0.9836004540505835
P 0.38838210808891893 4.722375464579776 9.796025410495071 -0.18662609406509792 0.9827417055947139 -1.1147277437174286
P 0.47848991344857345 3.480533685532214 13.158244789546968 0.27980261551978264 -1.5977436682370287 0.26968789568328394
P 6.2850411881114585 7.3096847585033355 6.6476905133780235 0.7289892501947638 -0.21073224308468225 -1.6149980844421026
P 3.5108369662213406 4.2951381047172745 0.01255474550800128 0.5343505702378346 -1.039598823793074 -0.0719129840902181
P 3.392133681199171 6.804596121907094 2.969924332059814 -0.19622685037965562 2.1705893092262682 -1.4541755817036697
