# total energy = -340859.22786860686 ev
CRYSTAL
PRIMVEC
9.47135241715793 0.00000000000000 0.00000000000000
0.00000000000000 9.47135241715793 0.00000000000000
0.00000000000000 0.00000000000000 13.86228164148336
PRIMCOORD
 96 1
Ni 0.7123555621163351 6.317505653361196 13.713691309636816 0.8498341840989945 0.19013282166677575 0.15063013558646315
Ni 5.8603045341923465 9.164546803853403 7.5975835448630935 -1.1029109535881585 -0.5197197076985371 -3.413607387382379
Ni 7.865465591057578 6.49787808693452 9.52689422381252 0.03993386008046026 0.8433316070937863 -2.68366477213541
Ni 4.1159939915595745 3.3505666538559273 6.134433884376802 0.7346652175336187 -0.7118446200946772 0.8702011777911206
Ni 1.3649923535875048 2.7719522693028926 10.983958540433507 -0.33936273447160265 -0.6638878897097406 0.9786564797817469
Ni 9.034732448961783 0.8271407751473075 5.443815075833811 -1.4967641057981578 0.9868174183259842 -2.2253406939355354
Ni 7.941293237727819 5.457573162213176 13.194591114518845 -1.1961137002950883 0.19608338282325583 0.26472952323674404
Ni 3.266944084226706 0.10098545270140229 10.119881385510457 1.1264779422748212 0.8227208728219702 1.3720892566248757
Ni 6.580809247844415 4.1849927932074245 6.98606284094628 0.3077602770749732 -0.6227926623313275 0.2138005975973608
Ni 1.3080126980331506 3.858477393343594 6.9778284472396725 0.8434647902375408 0.4419417801871099 -0.5554513567721918
Ni 8.006977066063829 2.886631403187886 2.7965076973265326 -3.900948678750211 -0.01714900097546079 0.667543998405089
Ni 0.06414283931362258 8.626469807228002 13.462022324342922 0.8140117750837464 0.735631695211946 0.6491405561972369
Ni 1.3880645678379049 9.246369816541911 3.757052469894565 -0.6074997407279988 1.230987629354138 0.5995797145499738
Ni 0.45892585242623624 7.405915576513484 7.655098331823503 0.6028257322910973 -0.9092096978438341 -0.1363348020097136
Ni 7.644176915463841 4.9100058705635945 4.598160648307498 0.09310710166932996 0.6506495366425956 0.5117392605962219
Ni 6.6970037981005355 7.664909705691314 3.4095390819383127 -1.3650395488669458 -1.728908496010029 -0.07873489210805795
Ni 7.195661026372011 3.9155801764781017 0.6821296354589862 -1.1781851408411257 -1.5355376270219296 0.808865969216749
Ni 1.17431508869052 7.995990297373163 1.820561558751696 1.3048353685732237 -0.6666438551883228 -1.3558427128590262
Ni 6.340975664409016 6.624121742001673 6.990207504721311 -1.3679724062430247 0.35586510300199997 0.2312308772586663
Ni 4.686169401195898 3.6443774741603856 1.0696424385311207 0.2625628546027285 -0.04663158381561001 1.642185957710804
Ni 0.07044507714704468 4.636435330165993 1.462498031446708 0.07158773954031543 0.28651319477073883 0.5406965670605204
Ni 0.9497493251942203 4.920935811140343 4.840307135979328 -0.35708329167981734 0.2076021820961328 -0.7152683010642454
Ni 4.910365781951737 1.6739194521939498 11.010824031287884 1.4768331712021856 -0.14773173099274556 0.7341450833640905
Ni 2.708465794705014 1.6593809263834554 2.9413123615342878 1.5906589934761057 -0.8452041415261509 1.1697925459020564
P 3.2616590696324024 8.92501630369223 2.2131273282863053 -0.824008224174826 0.1716566172394592 -0.17571844601365866
P 1.8976706793907692 2.7186664411531587 1.3095944138705138 0.033436168171258544 1.3650565181478105 -1.9812566148632846
P 3.154812744115669 1.6069380485901612 12.267550303645956 -1.0405257064827178 -1.0938588706882195 0.3435050387747504
P 5.729713528410526 6.055831131476936 9.135604245435353 -0.0250685129328536 1.829675428217462 0.2305140536972998
P 6.045393701220804 3.7261247160303377 12.117615955021938 0.40315771744037665 -0.2777025384576443 0.9131067189053953
P 1.3909817443523231 2.82370373837686 8.84448234205441 -0.5672792026450553 -0.430433008216562 0.4697179218591136
P 3.018425270714289 6.580231495352923 13.513479234359751 -0.49273340891768036 0.04536840083247025 0.39200195793387327
P -0.12027859737630582 4.702175986615922 11.910624285754544 1.7161817924719798 -0.6316830228424218 -1.6015352740689774
Ni 6.983569033880546 1.6038693304386298 6.715623529625519 0.32769249722252597 -1.190536463317627 4.211822047532869
Ni 4.918047048682884 5.192678380540274 13.414793426001532 0.47161925264688453 1.6234037920072946 -0.7171585761084229
Ni 4.5973849445525286 4.601533396868487 8.028853048516273 -1.2731814891133688 1.1659744577075466 -0.07266451754426195
Ni 4.015313516402862 5.225250361167173 3.506519099743781 -0.7871576310053798 -0.18002607225007705 0.03185262573422256
Ni 2.172216769077283 5.985279028048682 11.665567251514917 -0.9882693202811625 -0.21325063863116178 0.442540075892741
Ni 6.6182779176205155 2.7631628543503592 5.172738342501945 0.28470313814519355 2.4134767968872564 -3.602108844093319
Ni 8.28201566607096 7.311798748514213 5.6618683374751955 0.6204390744974864 1.0429847095461715 -0.9281998657930917
Ni 9.177314186780144 2.202108356997752 0.7928715281847469 0.32559576259449735 -0.8415583172434475 -1.3450152832262192
Ni 1.4588629264264683 8.334259645465544 10.930977689828461 0.09779499406330255 -0.2633064176369723 0.5467173193333036
Ni 2.8183050675547228 7.36377753004385 4.1634255768406 0.26588009190141954 -0.011847129146573146 -0.6913819813649512
Ni 4.459415755313785 0.9207546743384116 4.937107198090727 -0.9052782239999119 0.8692714668879996 1.1029132675810036
Ni 5.059719536678568 8.202882517441202 5.234147749536149 1.2653946460790981 0.25864809292935453 0.007540274241103142
Ni 4.987936157448772 4.349150271609697 10.273891257037572 1.8466498512882714 -0.05959225774133608 1.0590309643757567
Ni 9.032374082234218 4.566025297022531 9.687571927372593 1.0221142938550654 -0.6562761388007536 0.5846063810695932
Ni 8.41349697897082 5.743655359024889 7.217244344037779 0.9430071060092533 -2.6295913873297745 0.6123897218304486
Ni 8.786829273350136 3.1069824149019905 7.78159203059189 -1.021149615948951 -0.7443459351564923 -0.18117535536317184
Ni 0.18796182818697255 1.05832890818543 9.719150363141173 -0.4084318213551224 -0.4823176129009951 -0.11802880461167416
Ni 8.912296277527087 7.540607677849668 3.222411679890692 0.8615221619598838 -0.23097171006000863 0.37504141882013475
Ni 8.466972234166942 9.396755948671572 7.640154432133731 -0.39345565966126433 -0.9958718152187688 1.2928262599274896
Ni 3.9701067517816955 7.783699406482987 12.066478229578275 1.4377014953080465 -0.11994299091525149 -2.0876799740255465
Ni 7.847422664888855 2.5409838716385833 10.797137063065806 0.207260739596314 0.5430923209862066 0.2565536722941711
Ni 1.664523870692966 2.0433590207699375 5.227230820937188 1.169925729045811 0.7973667103278977 -1.0523741211808717
Ni 9.040036406260727 6.893193390047492 11.492261393907203 1.6505901226140993 -1.2869368910262482 0.10689798480583525
Ni 6.225576707747737 5.142612812179183 2.6329459669851594 0.3057735856622476 -0.03587331685784144 -0.16113823420663861
P 3.654824375768839 1.4483686680564178 7.0337634126331805 -0.8015354969936067 -1.90986273650133 -1.0103232147574084
P 5.293557754095697 6.179280737609825 4.999445744787477 0.8312157976668588 -1.0902642113584256 -0.47709441682884285
P 7.542994458634191 7.516957711107776 13.21589692156165 0.6602376945516629 1.5664867671052762 0.6886707530813753
P 9.124189371619842 0.8455237228643032 2.62503075785172 -0.8220413302564423 -1.2084552525795766 -0.07474531133269063
P 7.967623597176141 6.2795634159691165 1.7434316011375197 -0.4427989859810826 -0.8553725974187203 0.543029071848439
P 1.5955440117497541 5.895841048095263 2.917095060788456 0.05032523061711333 0.2543859752188909 -0.16936293610927605
P 5.991028138906643 1.9372988174957257 1.3272319661599616 0.9920380432949755 -0.7712430166576524 -0.306042265942602
P 6.207637966454528 2.7530569214254097 9.290362353795711 0.506312947374328 1.4209073065688433 -1.2614287194528147
Ni 6.677966379938259 6.757620452945592 11.335492517449403 -2.654998000328337 0.3534284685360494 0.9044822104611778
Ni 2.6770209050041402 4.906387813977529 1.1627524617788254 -1.5482201075856046 -1.2087866677770664 -0.02821862852606108
Ni 0.9798492828657193 1.0796015654951174 7.165565804376672 1.79593329877001 0.7910497669709343 2.028429158784029
Ni 3.0097210979326317 8.98988559572876 13.712873931931641 -1.724641750313875 -0.44468951813557606 0.7988366100052049
Ni 5.359023741328359 9.302478107682868 -0.015818105508864207 0.7828572038578131 0.017038700649841622 -0.5216570339305661
Ni 5.3277588073215565 2.40116776869753 3.403758715617697 -0.6961189818293043 1.0043970790809607 -2.0869443814111026
Ni 8.120652236602952 8.959643567772469 11.686346451368758 -0.8485799999769192 2.0087630478136695 -1.638386638569372
Ni 3.8593487577569916 6.751928170201549 1.616993783347817 0.46120988438810245 2.1028281425208943 0.7217850191368408
Ni 6.032209578792003 6.890986564957039 0.7710182769778716 1.131429886963458 0.6511136207632077 0.3202769214847452
Ni 3.1965529937878827 5.6530429313838475 5.98918501374526 0.2744454649729273 -0.004575535185824378 -0.13114991537466447
Ni 6.637457406067585 0.743507787030535 9.31573042384837 1.8839167060595297 0.6585687914896723 1.763975514916491
Ni 1.9124554603615715 8.9408997615321 8.57405723776213 -0.2421935469177571 -0.39928820718264135 -0.4291927080515576
Ni 3.2375828920361314 6.695630452014202 9.704095648629261 0.5826405155924741 1.5080692463983318 -1.173003082419554
Ni 3.702162194661901 3.684517065290598 12.156167200368161 -0.5905294314222475 -0.5790371145119317 -0.012706134712758763
Ni 3.816992870184007 1.464536266465873 0.848060151015476 -0.5394886627953484 0.00014552443892878162 -0.5086112564902014
Ni 6.833751182890057 1.8067835825324605 12.980100028484841 0.351348188968253 -0.5248115203991478 0.355195330628485
Ni 2.78642449564715 4.496003589324169 10.03356137474063 -1.8175418781787216 -1.4295354145574866 -1.8284973487489606
Ni 1.4841324944150018 3.825223475349688 13.116726179964672 -0.1630634762538095 -0.0869541946940567 1.1766005699628252
Ni 3.1163969391076134 8.718872320457436 6.289247873715847 -1.4242746803791795 0.9644084545031648 0.7856249964109372
Ni 6.640999691835093 0.38377161890591616 3.859342127810368 0.7301997255630972 1.113206936197528 -0.2486542149414363
Ni 5.252035345526831 8.439334828098524 9.5125328122904 -0.9784433353296763 -2.873597561976238 2.43552554915718
Ni 4.06910132622553 2.3066152584915596 8.904727719888543 -0.4353175900023729 0.19489964692779982 -0.17101744099356356
Ni 7.535540504358714 9.130336279275225 1.1090839909953822 0.4836926388716508 0.33018363907549586 0.5852542990662373
Ni 0.6220708432655493 2.763825849012727 3.0514206207898713 2.0643924642525153 0.41314233945691425 1.314320939466156
P 8.964275059056725 3.1979926393404527 5.25275137976219 0.21474522089881726 0.3330259936202974 0.3267306475298889
P 7.1570652656698845 9.147015330709934 5.826067489827674 -1.1228071782914533 -0.9140148325419615 -0.5048379054906984
P 5.972814728396167 9.151334267367645 11.565523251234078 -1.6960701093237693 0.4120563054815871 -0.1686944492873417
P 2.1451571155003566 5.646735010739034 7.882273452883836 0.42319972369291636 0.7897619013974464 1.0276141406273722
P 9.200793669180284 1.292820648912608 12.388096940292904 0.021864918393891375 0.948464529579399 0.008313147851385682
P 0.8041717986371903 8.593083290301621 5.769758406017543 1.0715427236895223 -0.9423031379636934 0.5247225602297673
P 3.403511513322157 3.3181083294568627 4.243868613496151 -0.940477140498548 -0.9868462146813908 -1.5241733510490458
P 9.180667045501261 8.33701580899053 9.642131220349134 0.4390135507967213 0.1102357909298166 -0.5395701667655611
