# total energy = -381169.129746835 ev
CRYSTAL
PRIMVEC
9.21160288604680 0.00000000000000 0.00000000000000

0.00000000000000 9.21160288604680 0.00000000000000

0.00000000000000 0.00000000000000 13.48211194681652

PRIMCOORD
 96 1
Ni -0.02342234305218261 7.847115917289478 5.367781639371782 0.75727395607207 -0.3396118743679312 -0.3123874914343394
Ni 7.89763234836596 2.3903557195040994 13.130511903523871 0.6628885019109487 0.1912859614346125 0.12087347314932086
Ni 6.286863805819137 7.79682977628902 7.709557206758604 0.5232937982030407 0.7363824573350415 -0.7145867016161886
Ni 1.2280724942112247 3.1334925832284006 13.82698462856341 0.48847077698658453 1.3404279209658527 -0.7535813377118311
Ni 3.957488898446019 2.669651523705215 -0.0011560561816372035 0.8838537355775489 -0.16085952662395522 0.9066247107254773
Ni 2.6052808416551696 1.4352046001896643 5.224992580634265 0.05534170999509824 3.205279639974132 -0.30052442144816627
Ni 3.673780736388296 3.981217987879465 8.314310921479867 0.40058250051403266 -0.3144094069603746 0.8250569771543145
Ni 4.760620932775923 1.7733901826314702 2.572508721516439 0.12635197976538884 -0.5863958688698483 -1.2862221243474108
Ni 7.219870231423167 7.517257623996676 11.411596377795574 0.10682753657921604 1.16340541142879 -0.14207658958949726
Ni 6.1636309803375235 5.620938598783944 2.1849249966073208 2.6984876960808557 0.6747173762250768 -0.4950787692214054
Ni 2.0500422567598378 4.273363978322683 5.155290222744127 -0.7356044415184364 -1.3440842867715175 0.15573480380288018
Ni 2.1559849033336187 2.8977768730139433 10.951816714053136 -0.07491500414133549 0.6119526342930299 0.13178446363486981
Ni 7.8869100424263126 -0.065534107514116 0.04677467792125412 2.3903605225847673 -1.3530188702569859 -1.1234432692135556
Ni 0.6410630904277125 6.468378443740739 0.6020298437020591 -1.2970786074459404 1.4876899114110316 1.7249387127290037
Ni 8.111912658304163 5.604993313920087 12.083518338410414 1.0998778231887898 -1.11770559539883 -0.09112580957324307
Ni 2.8842173933376887 1.5509391807959576 9.151940409198069 -0.4766879254190436 1.0299065362059747 -0.6933519606071284
Ni 4.9340754180367075 7.568547829728597 9.599573653170731 -0.35197785213245186 -1.0772801403939316 -0.1330450755148483
Ni 3.937748433129298 1.0155608120568798 11.269899815178713 1.1106183495347453 -0.6717292401310303 -0.10191672954115996
Ni 2.412343815962809 7.744047290864469 8.86017485796044 0.8089245903688262 1.2575574094228663 1.5336985169306618
Ni 5.696842207841239 5.83623218505665 10.907797226601426 -0.2479433049173407 -0.2733162364644906 0.07972476682515302
Ni 8.860585695456066 4.457660520362648 5.583899664116652 0.27741843155832224 0.19928414914874065 -0.39387166415276037
Ni 5.035983382478559 5.985257499052879 13.151409346182534 -0.4806188850423336 1.8690724419578457 1.585053217253554
Ni 2.9877742347238674 7.298435993759292 13.178765043733197 -0.7741028547039506 0.5003513304742544 -0.33116760025532
Ni 0.7803102877959895 4.611687734810102 2.357482271731919 1.4164297304134639 -0.5425382482549495 0.336012329942131
P 5.959041276798381 1.0895760424907837 4.179009528374397 1.0717610103479156 -0.08062131049749341 -0.06835072066025648
Ni 1.2341060942030364 0.7969823681397759 3.3723208941103895 -0.39924886930427367 -0.21920531355269993 1.7421221664868254
P 4.784736909537088 2.890822112718038 11.151352011003718 1.7576269469906436 0.5463010577314914 -0.725550399716544
Ni 7.154762621129845 0.9217314234819272 1.94138402960959 -1.155837626383861 -0.008804742775823547 1.050961557104061
P 3.9964539793091696 0.548842968904011 0.37344667772219686 -0.05623516834364508 -1.8658529065792833 0.10892221432471565
P 9.141207970495076 5.524981329906535 7.754169000285848 0.17753698727963618 -0.8911183875597621 0.2511597549721094
P 0.8431850055121879 0.6396048936663326 8.316238909996335 -0.7604284425406517 -0.7248919401969387 -0.06889785141297812
Ni 9.391137184201694 2.1194608972763156 9.521080662498628 -0.7057156243788039 0.16519517788483162 1.400010408515176
Ni 4.192900625760126 6.704158635176483 1.8157165774442574 0.05222244763982619 0.19628290042857163 -0.2835299437726988
Ni 7.899981307141398 3.3842139947965393 7.815985304812642 0.34875497431978003 -0.5136945845503799 0.2660672682115612
Ni 5.644796650659962 2.4402457615737974 8.988308256259831 -0.24874548910366193 -2.5387139463219115 0.7230996241832063
Ni 5.893380970322604 8.135982577050124 0.6190068281065003 -0.9660238786194008 -1.3133626893179444 0.7941322625510001
Ni 2.988667760218838 5.460021105261869 3.3356089713510513 -0.5066171088783081 -0.4202288139900504 0.4432376161803979
Ni 2.4963075776809216 0.2617200655990138 7.196118112982118 0.6806885062068471 -0.3199629897887522 -1.1126796029391481
Ni 1.1818578817548593 3.558267234254985 8.16738308949606 1.146655702774277 2.2912925753463123 0.3646999276848106
Ni 4.2281902770099435 3.1124624934859484 4.431637741772009 0.05184475258543329 -0.8484175062571259 1.419523024626807
Ni 4.668431209542256 0.10011538649008593 5.58434458454353 0.099797369205312 0.026838717459398937 0.05669796691267655
Ni 8.376700187715809 4.449563521289667 0.8585987808805826 -1.4248848031593524 0.7520132218937629 -1.0584663501215383
Ni 9.210166030859506 8.415048091175215 2.272787108732356 -1.1380309372197435 -0.33268609378237546 -0.9617162523829822
Ni 8.295094596376176 0.22452821832124317 6.723192570539965 0.019828090469520693 0.8291571153656172 -0.7339190833962135
Ni 4.084489269571375 5.035679399578209 5.7672022741885 0.46270986597239666 1.0164280421035656 1.40906814784207
Ni 2.13153730886298 1.288915132296593 12.708225306478644 -1.220726356637446 -0.9137068143832393 0.27981547103558907
Ni 8.115652569138783 0.27394386283433303 4.10191946484543 -0.5267868989579637 0.23788592068133865 0.24576249521593807
Ni 8.490601659316956 4.388748518013421 10.018934645090159 0.974953834119179 1.0790626862156514 -1.0329856893519305
Ni 6.299354739542642 4.361859848736935 12.561364719197035 0.23388811237585527 -3.3996236715087775 0.4965442980233384
Ni 7.625318939269872 2.3848471808856213 5.0667529001161915 -0.4747122897499115 -0.41384733594373885 0.8150060206762157
Ni 2.9672139367365027 5.53064646577671 10.054851606507064 0.24276098938545287 0.5932062069234622 0.9506980468956078
Ni -0.20152500320742303 2.195659277630921 1.884974936067823 0.6220457568629739 -0.07639827355508132 0.8082694732833307
Ni 3.9322214713047376 7.593124386641808 7.103805875428008 -0.20721086019498508 -0.7669886122566727 -1.5416170004467902
Ni 7.087637669770561 5.446010257036608 6.821382731994495 -0.43184711495526923 1.4837167856958962 0.3173790311116598
Ni 4.644941621787874 0.2306272206946455 8.446287400567936 0.7550275832400546 0.8073181651136547 -0.38723487556253305
Ni 6.1188073199403386 4.481868613154222 4.699150063363162 0.41246485377391545 1.0481680535193239 -0.8413541716524413
P 6.806048176412252 0.8132307147436791 7.941786325222068 -1.9574839379237192 0.36261527724164 1.9061325800349365
Ni 0.4471975351488259 2.195125004654547 6.623141665271165 0.4114554386727946 -0.9510574871175558 -1.5352013267284335
P 3.02725516535731 4.556887908319587 0.6984421657696896 -0.15617266267124716 0.8765008947569034 1.2524360290359011
Ni 3.6966715699450168 4.42582522025318 12.08996277589785 -0.3490272541445602 1.870644671540972 -1.0428425275413524
P 7.38708846142524 6.523694120001546 0.4194835062398722 -0.051989762803729814 -0.11942208541477496 0.27679159660760067
P 3.1205042229406836 7.751508689327625 10.931364191821348 -0.4998916172290165 -0.6157275279544299 0.33740072564922535
P 0.7636778173452794 2.9122206665821277 4.000438918784678 -0.963748709431979 -0.2136152210594321 0.32799125940986734
Ni 1.746667322209721 0.2635172493523 10.815714357963033 -0.41904584942554285 -1.4903206641656592 -2.019206868854813
Ni 5.9438052853686765 1.0458946208706752 13.35674242608708 -0.4909328653738319 2.029088132524267 -1.4383537841800649
Ni 0.6817111311664413 6.363504343119707 9.776648298426602 0.07737169321194418 -0.3308531543386947 0.3108900809532065
Ni 3.753479525898456 8.83222316969303 3.0198849617642587 0.180201935706309 0.5127221933347815 0.5021464747014642
Ni 8.119042439057846 8.667501284115051 9.394726945906745 0.36753662580265734 2.0506177790659263 0.1793447299123363
Ni 5.042099886897739 8.132436109879364 11.842498587164988 -1.289512107952592 -0.642518680005345 1.7198646406402058
Ni 6.377459921726721 3.181595574308157 1.373395664945302 0.49824456854389676 -0.6732292217153245 -0.8553060058468431
Ni 4.675745222356757 4.106762925724353 2.436501244937658 -2.0662488007349644 0.17049679260340314 -0.7137384946832804
Ni 4.54576950344918 7.024473707718877 4.386998313435644 0.23710481954094004 -0.11525252741811763 0.22100611420686456
Ni 6.070464827181517 4.5007892458003 9.154353849194793 0.3643559140818306 2.1236013705125036 -0.718502234620511
Ni 4.2368952418836265 2.15619677020356 7.133574091815089 -1.8928302064990756 -1.7797718585187996 -1.7319172009293655
Ni 7.284397510724908 2.7552825855737364 10.83119169339241 -1.3889407809645757 -0.9192632254250942 0.3833640797532172
Ni 6.663738121032865 7.954071840197762 2.831620982294564 -0.1638345500918791 -0.4911372680751542 1.0745244320256655
Ni 0.4788338646326093 6.294491013137029 3.785966086342918 -0.8391139694680129 -0.038291953601663084 -0.35178810471914895
Ni 6.83344348385599 7.645750274814663 5.479427189388204 -0.32628507535203805 -0.10130609254035455 -1.4433255263630433
Ni 2.0747201413065 7.406856561551083 2.3148113629654006 -0.45023461632352135 0.15019459071094135 -0.19883086366140595
Ni 7.771414963499084 3.757937941770268 3.183032584382543 0.7278857327179399 0.8201993919516971 -0.054009107226603764
Ni 1.3583982540343575 5.432570528199886 12.338950563773686 1.313087581279687 -2.209197508516769 -1.8041058072784735
Ni 2.0739095202388977 6.643546287167138 5.426212679781034 0.7643336911323287 0.10635316804595876 0.665888465079537
Ni 7.531627724740534 6.523859928856283 9.109297135240674 -0.005001566979649451 -1.6422067836464105 0.4860966203274531
Ni 8.834028643889052 0.8828492470461452 11.418863411434566 -0.8233541355305948 -0.42401116385061816 0.9894584554932573
Ni 2.2978528017670414 1.1586814885038699 1.4599377543545717 -0.009977422927686044 -2.041163832741878 -0.19806004693365242
Ni 0.3703119692073671 7.76418385511195 7.730993528195162 0.12869913984132675 -1.311003959277781 -0.5196163493514534
Ni 6.377994194703095 0.39341006383250876 10.84653453941739 0.3469778278146992 1.8282350962265095 -1.0869444029565731
Ni 0.2655714368304282 7.49875151348744 11.847810918638695 0.9430227897385373 1.8146108205748555 0.07333737524157047
P 4.785879148314163 5.835089946279574 7.819449788716337 0.9681946610184744 -0.945585922480023 0.41537714232470396
Ni 5.864253881507171 3.4850718364917244 6.706663270043312 -0.017870709632833735 0.06025508813631558 0.03414373576124442
P 7.4788636625220635 6.0214314641946265 3.9389339664406657 0.359182083190375 0.7033309261967112 0.582936449566338
Ni 2.561562573622897 2.944986338598729 2.637640281977666 -0.15874916514917178 1.3832599285297145 0.8881320512379285
P 2.445072641567247 8.663024445037157 5.023192150495919 0.3207613173203315 -1.4822075481402215 -1.0637450820219745
P 0.8970176136834056 8.807517650337246 0.173274859001487 0.06698495066098141 -0.33664713531265245 0.13533592843155404
P 0.21973818473995754 3.443720950440972 11.787289765499455 -0.6701413268186202 -0.06281770665716924 0.1892164805000935
Ni 2.3090080530496127 5.705657711951413 7.79648986813681 -1.3406037844220846 0.16277885513385515 -1.8303189753387317
