# total energy = -340892.84332798945 ev
CRYSTAL
PRIMVEC
9.10616244967872 0.00000000000000 0.00000000000000

0.00000000000000 9.10616244967872 0.00000000000000

0.00000000000000 0.00000000000000 13.32778921011419

PRIMCOORD
 96 1
Ni 6.597086811931059 1.9703185633394444 11.503414245142315 -1.1440614596845393 0.7625287767131061 1.0999328447964412
Ni 4.42106004075586 0.4230978007539235 6.018483076462164 1.129586663107132 -1.2354263818517819 0.567226752140565
Ni 2.7072074342772483 1.495923928748408 4.94229040024117 0.4164801455808957 0.7532154697319803 -0.952160233263431
Ni 3.4033735471167126 4.4842112767603295 4.930295763173385 -0.18734137496456768 0.30837939871621084 -0.3239106615825905
Ni 5.187443771595391 4.365603511950205 2.8368728120477518 0.20139836727826607 1.1641818845834984 -0.24486440888170088
Ni 7.605594293905823 6.317737069045824 2.5333726159530783 -0.335602496098222 0.0933672973092521 -0.16124724898067713
Ni 5.0588920774821835 4.73550493339758 11.473546943199842 0.09634026389464699 -0.28982966073848154 0.12530965454380355
Ni 5.445084423401369 8.112397760355533 12.4550318883551 0.4438073726409389 0.1231995501793362 0.6223342346376701
Ni 1.9643358146653367 6.3174820964995915 0.5180668786795488 0.08862181220446673 0.414053538417274 -0.5445951307839781
Ni 2.8259791100099507 1.5673435601807157 0.3032761845004831 -0.27639024740412405 -0.8078221013332668 0.36259522263698196
Ni 0.7688105231099261 0.16845125513370976 4.698058572518333 -0.9977024406696042 -0.9786953034394822 0.7572325613111733
Ni 8.818635288771198 2.3192393866967986 1.3732557261395246 -0.35526269353131074 0.6754270006975917 -0.35009349062554546
Ni 6.79458126131317 0.7898776297424193 5.012594526783708 -0.49113289719978 -0.2067694017821923 -0.25567255524079835
Ni 0.8973531110607682 7.406633752382874 2.390525157542334 -0.6357307105492341 -0.8093084560708061 1.3353880445491002
Ni 7.685610142611125 4.184226969954961 3.7269428144486243 0.5993277464401678 -1.2048456808514476 -0.40275559690595153
Ni 7.74391690023717 4.10099664593465 12.65234967818732 0.2651231591307369 -0.752065415287937 0.18955149524200907
Ni 7.980850138824089 8.780043372666375 6.970006926202586 0.027356794746398048 0.4500790645822636 0.2681321211603898
Ni 7.014613462549794 0.7914320516582034 0.3926968776968332 -0.38587424776958057 -0.7374780043920653 0.030155697647773868
Ni 2.035354774953564 6.3809156235373905 9.303383629971762 -1.160552515361027 0.20122430359424703 -0.6229484711829014
Ni 0.29625715454918605 4.7737599214948805 1.379919615758569 -0.9083031268691647 -0.00829026503325024 0.36724274871132234
Ni 6.4144536195293815 1.8506635898572918 7.315463765396119 -1.016818592673765 -0.18278872259687876 -0.4741031954110029
Ni 3.240045418929811 4.205016338635307 0.2729344514987683 0.5667639535715336 -0.2481865312763984 0.08972455835034225
Ni 6.0931517866264695 5.684767723022657 4.718130375604281 -0.5902872335044543 1.2458671175691318 0.081944143073975
Ni 5.266239394543722 2.892226441218677 9.2225764557569 0.27040780456844393 0.07564982542483101 0.9677781423063462
P 0.2126052152113552 5.640174845918996 12.454005623856514 0.2212154020041932 -1.0862309218293162 0.29235242716033516
P 3.9135827182911056 6.114023110768105 12.815708767326264 1.143640827207353 1.0818762444050465 -0.2761884158059631
P 2.406166812637486 8.336946618125427 1.374175448538436 1.4094687257145984 1.8317078852664583 -0.045592086807502125
P 6.377673829735286 7.793108389335387 5.696337102307975 0.25948344434645637 -0.5694438143965418 0.7547583887390678
P 4.684100646844555 1.4032687266798463 12.68297734468731 1.4640797281912592 -1.05105128860439 -0.13796051053859468
P 4.035496020039893 6.00953900378681 8.262296120285853 0.21063788359866306 0.16515686844772848 0.13908202573754755
P 4.947077509796693 1.1098590691023398 3.7605026652302933 -0.2818512705186952 -0.44993662546712837 0.6230294609324819
P 0.34109498742047756 5.676572176893742 3.6081656750185025 0.04383242380391806 -1.0758380086307666 0.08533619947465948
Ni 1.3330146840303176 1.091692275183246 2.6287997338456863 2.1403305103417267 -0.21468608552610768 -0.31007992634708537
Ni 1.9591999390912171 6.457981075636283 4.861737287956305 -0.3441953799735556 1.013657421336964 -0.840903714378584
Ni 6.158078724292204 5.6285462765783025 9.276220858251829 -1.1374552672219314 -0.6433314057146275 0.4406428588700282
Ni 8.519315731818507 2.256497927998775 10.183123601785256 1.4551454018161067 1.0068344848778594 0.5942179360174283
Ni 2.212624437721986 5.363538739418668 6.916522792165289 -0.03831663619201143 -0.6825852090089276 1.2646703663185637
Ni 0.43349794879151604 9.17464070644888 9.24572705233861 0.20758932658032636 -0.6227548671148565 0.2588874626336703
Ni 1.4051628084518621 1.025208183753018 11.516849477096317 0.1291850783388098 0.7383562932319606 -0.6921060040151693
Ni 4.333741049833458 7.227260566108031 1.7219233981831192 -0.08319035677625028 -1.0952647498968107 -0.8657025185898188
Ni 5.844781208108531 7.801586226497632 7.947840300249294 -1.1843149078879476 0.6775705294031557 0.0737477233061117
Ni 4.908139559521983 2.9019700349497204 5.024909700766758 1.8352112704340264 -1.260465584208597 0.2368453952319663
Ni 1.0211013045261952 7.703057549703348 7.206228973508763 -0.9893952063554895 -0.2529811244515643 -0.017321779107899202
Ni 5.027676152893385 4.346307553897794 7.088371556477552 0.5125471012094979 1.1105211618352488 0.24195160611028005
Ni 8.130182095455279 7.168197997005653 9.106958244051357 0.40539380585974694 0.49673301699537675 0.2194325990721576
Ni 4.629563840437812 0.6405274607864997 10.61143923357459 -0.6593745752204192 -0.71453347978075 0.059927529593567765
Ni 8.42456611240589 7.181329083136647 4.98501924590862 -0.2135116056020323 0.6998694500106721 -0.24975438998415048
Ni 7.085259070181038 5.893663087686324 7.123783600684355 0.6031730883281871 0.5578429969328199 -1.4351543034061607
Ni 2.531085147966875 5.006212928197995 2.530627107999892 -0.1872066491589163 -0.00410862285173486 0.9629933193231931
Ni 2.218160984440186 5.465718987321502 11.511690836116282 0.3251270504881949 -1.3600395245491932 -0.06911690940231967
Ni 0.9658177928054839 3.0852315525546152 4.038253366004153 -0.10030567630029823 0.638315440557275 -0.34705984600554424
Ni 3.7011632687920053 2.648754978053357 2.798608717788086 -0.7590752709468669 -0.313890301232111 -0.2425642999936145
Ni 1.0613596483438967 3.1641182371266003 8.203120634770144 0.34792733621216204 0.8201029755831488 -0.15222884753215074
Ni 3.674209028190242 2.5585402274987383 7.254288566624955 -0.8605479709720727 -0.6377752517830887 0.11646840210308973
Ni 4.222172348531834 6.777662011638144 6.042913088856222 0.21727492929920647 0.5652207774541298 0.03711464546411027
Ni 0.7533045498340198 7.315207882233649 11.20788467296613 -0.9012801585841121 0.6699844895257816 0.09188351367487402
P 0.17802183177980885 5.804267891744597 7.825357863352667 -0.1685900624989935 -1.0193956093723218 0.4474760797417778
P 8.436003452336907 1.5664147316194388 8.175759348710645 0.0618766829001386 -0.21092841825588837 -1.6505189030565317
P 1.5977581424813543 3.15432911258373 10.359477184619713 -0.5898509172979841 0.015982748581501505 0.6987273659864289
P 4.02488734088413 6.213826650293553 3.816199596722396 0.5245790926733676 0.49129924757431515 -1.137458352545725
P 7.01393960653475 3.943979088267013 10.48727762033777 -1.2977257541116358 0.10154186270024447 -0.3682159112578691
P 6.25082498798442 7.673662857587641 10.211871756373014 0.2558389056153336 0.514214718719908 1.0118123977084252
P 2.4732792292709305 8.414166874984533 5.856457129493524 0.5083276638115116 0.8472954768375407 -0.1669432709241899
P 6.969993266959037 4.280961732763249 1.5367341060054565 0.9915359068475762 -0.7729049777411076 0.31031518228634297
Ni 5.362218345875677 3.1727417728866913 0.42849775503664167 0.3012875248664359 -0.25677273028351266 -0.19438156964080072
Ni 1.4750526046067722 1.1693132031864322 7.061262511115576 -0.44832351534373754 -1.0145922744464075 -0.41066713844354436
Ni 6.787004934225106 0.5825703797952891 9.64377471104139 0.34755992557041426 -0.4068194825626801 -2.195884593457947
Ni 2.6745891606841683 1.4121654473109013 9.277953760949975 0.006844019505026924 -0.11919865655005922 0.04186887231964402
Ni 6.598634859533188 2.170772515490329 2.35703269236217 -0.13032690525273685 0.045640423546934296 1.3148467300626387
Ni 4.117050810184957 7.141881187769472 10.54590673611155 0.03986289763320877 -0.6294842154188901 -0.26163134392739457
Ni 8.456847457991447 7.2796756366836215 0.2093433878520472 -0.4657370828344947 0.0785914245516582 0.6959343766223242
Ni 7.836462828357345 3.781679956427408 8.141972754486076 -1.018814282947555 0.06547417044340982 -0.20523573874648526
Ni 2.866956840654524 8.301924317667865 12.520391368733193 0.5303789871845962 -0.13784301112412387 0.058984706064324224
Ni 8.916990948480537 4.871960776444007 9.970079469547885 1.328897037508118 0.5861251317069648 0.8670700883613068
Ni 8.35838252433372 2.419771419211484 6.034369687324947 1.2818227097281343 -0.040148547194427626 -0.8342682113399373
Ni 3.4907744935004037 2.804133426495211 11.3853574031553 0.028350269007918916 -0.15630764558721466 0.4371785544705116
Ni 1.2397948998950974 3.217453030101103 12.806618996053063 -1.3401957503503887 0.4534742063067416 -1.0307686270959537
Ni 3.187603029867123 8.102763440572875 8.120448518502837 1.2452999322117522 1.1777963900431394 -0.069139535110139
Ni 5.86225593368785 8.04373729611996 3.5377149392618796 -0.322625881332896 0.11924030842127205 -0.10196095251553408
Ni 3.1963722642250616 8.433663168608984 3.5944909509942904 0.048434955572935944 0.15355810786653554 0.18948207545665433
Ni 3.1699826056899565 4.238408636029451 9.42254687068618 1.1406871438956678 0.219911338480789 -0.8121752360956399
Ni 7.209785840528712 6.301664692470786 11.59552307746895 0.5203534846277942 -0.24961272219996367 -0.9551362851726195
Ni 0.652601321466864 0.1215608932652434 0.3156551016200902 0.01255366829529451 -0.0863283881845997 0.26514655616950467
Ni 4.6912398781390765 0.6055242832699057 1.6945220450092118 0.19861231989269665 -0.7028277613080477 -0.8962734493981402
Ni 6.148344236723526 5.856774023943842 0.3353790493036779 -1.1105371026748487 0.677407264352414 0.3936757460918704
Ni 8.03948471829529 8.820046743937842 11.534321470826924 -0.2727883889854786 0.29943298815620045 0.02370839936053336
Ni -0.12586537621539662 4.928837866578674 5.726764433235925 0.675353724257495 -0.6686439163374871 0.44446017573358937
Ni 8.462502384820398 9.040060732849737 2.552951775655055 -2.7152253205505112 -0.4760016979852963 -0.41480532898163397
P 8.339459918938294 1.6715818007781436 3.771790664098518 0.552586633629887 1.0037512179668455 -0.13642170529656505
P 1.885503767067544 2.9666055754197598 1.6663066009198322 -0.8441065375865979 1.4044959550903553 0.18561282230923518
P 4.675559066545753 0.8135745960660574 8.297655348750936 0.4470425917487849 0.3476663692412916 0.07163710472101212
P 8.614520659349397 1.6993555959927984 12.444876696085139 -0.3025208830529048 0.15004572383790288 0.7552461270087637
P 6.59253373074833 7.926841489834543 1.381038763113284 -0.42694350700606465 0.3128238076408096 -0.516730028942594
P 1.974106726883476 3.2785098487615167 6.005848276180088 -1.2852363633953736 -0.40580312548302366 0.8122323145858205
P 6.812684312095706 3.9893277768470066 5.847660576648489 0.26341311841816567 -0.42851470814792647 0.8498802068455815
P 2.327726330021408 8.525389542116269 10.3261978036389 0.616651582430596 -0.1281419817862761 -0.8604862644962019
