# total energy = -340860.74058018485 ev
CRYSTAL
PRIMVEC
9.34116171346101 0.00000000000000 0.00000000000000

0.00000000000000 9.34116171346101 0.00000000000000

0.00000000000000 0.00000000000000 13.67173438674920

PRIMCOORD
 96 1
Ni 1.3942897885050813 7.475096346951343 9.35731796978005 -1.7844497236104426 -0.6562704823737987 1.192567891925359
Ni 7.594364296943188 4.725170496215166 0.17554377742964927 -0.12979211579518934 0.5760379226742918 -0.17123624187258896
Ni 2.178517660812054 5.089774711760414 10.096274837008664 -0.3283252457105184 -2.2005915120153134 -1.8843525080453676
Ni 5.875824110559273 2.8733692999171163 12.833643364344619 1.8460384429565178 1.059347467174911 -0.49530142675517275
Ni 8.092070722657123 0.7795572915585447 2.273049281044077 2.1920076270010442 1.1235772236882584 1.4680184011240331
Ni 6.657819445268498 8.479915748006547 1.8027544937426627 -1.077422579509067 -3.8400312744395477 2.5829446340055133
Ni 5.607088235456249 6.534758983708928 10.233115380008394 -1.3851332342930274 0.714293338745486 -1.0879090808626877
Ni 1.850437386719509 3.6730474533398865 7.736328467023943 1.3308032533918952 -1.6091835346428545 0.946257494625751
Ni 0.3547035184747312 5.514050266947573 2.474775400033262 2.298528945193751 -1.85061474947329 -0.4791944938909812
Ni 5.467559306177725 6.139179476640108 13.12511095595024 1.5505675247718584 -4.2453746866773345 -0.46745483685654976
Ni 7.218195723464834 2.8847841992662735 4.5547933152094275 0.7130854344803138 0.43201346532980434 -1.048928328724116
Ni 3.7285059291467153 7.3705967732860245 12.703789076028386 -2.436413865299404 1.01823218519184 -1.334720071947798
Ni 5.028683515570982 2.052580121511453 10.82720671239533 0.3558213942482582 -1.273692367311516 -1.466245111273694
Ni 4.947723668877738 4.800030564450963 8.327289576193284 1.6348110054029716 -0.43331367219846656 -1.196942366843971
Ni 4.362509242261264 0.5479684133800642 2.7063605417471432 0.10885176609809641 0.06842245443845635 1.547418951840548
Ni 5.0097770047013475 0.12563021508735378 12.359575681914624 1.0804845062638424 0.5137935720220893 -1.4342737005734203
Ni 8.347719630503054 3.112353575652657 11.799157368491551 0.8995294944415927 0.39107816056802325 -0.20613433930135466
Ni 2.6351042936168336 2.0935784793211503 10.402234306560507 -1.104843137613865 0.13389225400649196 0.11977149833439373
Ni 4.980754015930619 1.8947331745375957 0.9537867675655864 0.1974722927509825 -0.4613140140661346 0.022708240230793153
Ni 7.832535891628503 0.7349336289719182 12.174105052162266 0.6986584604217065 -0.4523161814428985 -3.5861150397682238
Ni 4.938485260157349 0.673132504508725 7.755701101852271 -0.8966118065741655 1.7091760505781082 -0.004051544361554312
Ni 2.9403360866880703 4.856955602612797 6.187717085893917 0.5382488768509762 0.5866946310571896 -1.120065096769942
Ni 7.679770536508934 1.9846418539448263 9.894206831508695 -2.621373627405673 0.5803949140914069 0.8064151936834112
Ni 4.152249038128553 7.66796330837691 2.164741315836492 0.6553651969507099 -0.9657168889019433 -0.595906893684077
P 3.681351745910591 3.55292011649033 9.308345062400488 -0.14953433141912312 -0.3649878912388746 0.7963287559816867
P 1.0473590505118833 1.3193923556232974 2.703982282030044 1.4477462811385584 -2.1547505424217985 0.4169156904564175
P 1.3485554618164788 5.8665203137084045 7.45754804096335 -1.1529464208789948 -0.06502294183860415 -0.11501958547170513
P 3.431045982440862 6.663788447464987 10.576589888247755 0.1504434734969538 1.243172087235472 0.7062892374940868
P 6.402759030596869 0.5977810911781937 3.6302826818911345 -0.6533602507055393 -0.3185565963595288 0.6929999765843484
P 7.0278415344819205 5.5540864851230936 7.402724764138307 -0.07314711360763532 -0.18701227375992308 0.822042615808023
P 9.19755048000244 4.448989715399148 4.396597008795588 -1.3978655942580314 -0.883382452368085 0.32438040213015745
P 6.560363107371808 2.151390927825186 8.027071184497409 1.443121123661721 0.24687012645781997 0.7777106266598671
Ni 0.13439969750060135 2.158695716115727 8.61555781998623 1.8304968956774925 -0.5200482946825495 -0.609609330871834
Ni 1.343455187639196 0.8227863187336907 6.576186100831331 -0.7626143944483769 0.5945969166234018 2.320833265117906
Ni 7.426811883174098 4.318764582971491 2.74566721520976 -0.8656819497645285 1.461391896946451 -0.07955790222998556
Ni 3.981025547891199 8.450640547875404 5.992581156340764 0.06334632546712961 -0.010841570700194232 -0.7655752768489137
Ni 8.470733386255139 2.9406350038559697 6.601574443663633 0.1636257765151827 0.6051019299197836 0.3099583131675565
Ni 3.065077957317073 3.8453078125033917 12.926529071920896 0.8753840075436408 -0.48813833334783024 0.8908849313927173
Ni 6.27292622695208 8.499877810125327 6.59234631022089 1.0589661725760924 -2.4059393508596303 0.6743229690001353
Ni 6.4226183399391825 4.293926434551354 9.848365081462878 2.7635643739755307 -1.9329263031890127 -2.6254848213605686
Ni 2.628229198755148 5.962622183188051 3.2178068819068035 0.5481771917082817 -0.7234819472232895 -0.2378483825751839
Ni 2.005089656461442 5.779703558756634 12.254495088004202 -0.6441199630541938 1.2924897025236772 0.9413266329830368
Ni 3.4227416898701577 0.14456568355762875 0.6417443336469925 -0.5244765056572321 -0.6705645303989677 -1.1987336544164389
Ni 1.7495435013919771 7.051353237969505 0.7259072646175072 -0.06609997695286682 -0.23466124309645395 0.338511699325217
Ni 9.27991150092021 1.4149057319286404 4.627553490340731 -0.5195541286549503 1.2609618071187252 -0.048582022673761494
Ni 0.06893029891759307 0.5714763804030497 10.457509695601997 2.270118769482174 -0.23205928669723258 -0.6120228254093331
Ni 1.462573679047092 1.4727462039171673 12.560030468824086 0.2514639164760895 0.3952145513339 -0.15495421688311375
Ni -0.11303739527344345 2.943381305336045 2.618902983116688 0.3850926324085497 1.58880779919998 -0.3763789066846357
Ni 2.0892535215481063 7.916643709746185 7.27526274728142 0.26592302932421297 1.4736691716519073 -1.2147323438375401
Ni 9.122484906213712 7.719292990802129 6.863100810323385 -0.15285696803445287 -3.000681020591013 1.9080531940964174
Ni 2.6928046481829075 8.924396235511404 10.719582520209313 0.17337025749645624 0.13912213494686362 0.4623823074296488
Ni 0.7177477600500043 6.224277457876458 5.28184206976185 1.1846848896328563 -0.49977874580023596 -0.5171012962390836
Ni 5.381751396667614 2.6519090431496757 3.0273462036828267 0.5186789251388487 1.2997342999012327 0.45591032655206
Ni 2.388123983639985 0.8278156000835974 4.656332674796392 -0.004002693401489881 -0.20015446756883593 -1.8697604691638057
Ni 8.01958330944153 0.23705439177029036 8.391108391539797 -0.5930496267409399 -0.9861216778105404 -0.7191851196201485
Ni 3.16753181661458 3.532715184172633 3.9308700494661353 1.2337340817510236 -0.4702593961848804 -1.995103805159022
P 8.534047778880822 9.389361890178863 6.141425091863953 -1.2199239153408088 2.7431613848391465 -1.0128349254356686
P 2.6982318630125803 4.614403003185458 1.4471803790164246 0.058858207788788953 0.1041510181883174 -0.12442956593169537
P -0.1223617426796042 7.934158387552789 11.143543278254029 -0.2971593616306753 -1.4193237641318073 0.1949292146141546
P 7.191003602347489 2.868241002255343 1.2227094658985478 -2.5547735708879356 -0.3715886843848439 0.7374520362501363
P 1.9923576533412284 8.681965071183523 12.84846311705938 -1.55986386247212 -0.17251305170248352 0.5356194096479292
P 4.7958083594543846 7.9815834644723225 8.256537750783803 0.38236906282979954 -1.2526180631397201 -0.7311734023302763
P 2.683790427338442 7.7421788364694235 4.349990217623179 -0.13455097063641344 0.7218948052418277 1.644933181438638
P 1.1654873788011129 3.843159345359115 11.722800846183958 -0.4832730348357289 -0.7001342736362846 -0.22908014946425065
Ni 4.594702493588591 1.3002429745547444 4.959681289709862 0.8985046527215043 0.08987059700990328 -0.16249834777895886
Ni 5.1677267044516695 4.361472373335113 1.1114833218393445 -0.7857669213054403 -0.13073468221411677 -0.07555109506343763
Ni 1.5908558498834031 3.2044480868501513 5.362067701161441 -3.535099467952305 -0.8269151134089758 0.5315598948665748
Ni 6.6835543451923325 1.293367879693059 5.956337449732966 1.2269857072835966 -0.9543801237328855 0.40053802042934245
Ni 7.004974371137619 0.6030420333332225 0.34167726876736676 -2.4961655314367395 1.5719053670176864 0.04826346299207817
Ni 2.1424420951111993 8.785203588046766 2.6188749596321976 -1.0925918310503377 0.3648385101452039 -1.1784121692502674
Ni 8.952083438188081 8.389437257748009 0.1102172986175429 0.4408436620269246 4.2209090974358014 1.2736183195404711
Ni 4.777294177367618 4.3427713680184095 11.22453488489636 -2.1208081240380827 1.1761511411302326 0.9906257363284809
Ni 7.635521454498331 6.984470521652022 8.88333248957123 0.3473735205912211 -0.1336197170713957 0.3175600367742144
Ni 9.34181537815987 4.50194475992482 8.577632704308998 -2.1813869140624047 1.435958801585327 -0.04267568449165554
Ni 5.9122452992355115 7.40675640944035 4.4195790684263 -0.20757929927799737 1.793263465247331 0.5547108790617415
Ni 8.095741799125388 6.561082376807065 3.713447976813785 -0.8704516032390299 0.830688464408479 0.4043072576637876
Ni 5.647217865246738 5.887883550051713 2.84377556617893 -0.4794739728046129 -0.9294892740284766 0.31371238089335
Ni 4.80698972976612 6.137572796862649 6.4591973942447165 2.1716594023619953 1.9175750175439232 -0.9676423880594303
Ni 3.353803918023367 6.227453452785389 8.234635529422127 -0.8371100516641067 1.2028654171966253 1.4888803321747068
Ni 5.314317551821817 3.1650190441719257 6.642138437463727 -0.03353412720170353 0.9000113191740177 -0.8560320853795903
Ni -0.5554506837390452 2.210716644491713 0.20383161679057557 1.3366219169562013 -1.5825942141901002 0.07457921806847156
Ni 6.760796409609827 5.111875899861973 5.347384329404534 0.3062929485008274 -0.12738839144970318 -0.5853535436482628
Ni 0.843476057333075 3.9821278049478277 0.26229234190249345 0.31566616218561117 1.249626584611564 0.42237954178446613
Ni 9.231318778813572 5.512686457369031 10.712692479489235 -0.6919111143955439 0.4258325333300731 0.3493175316914694
Ni 2.6315733345710224 2.3664805124517714 1.5186972455524967 -0.3194598249000885 0.26613051734932874 0.20650200705341853
Ni -0.32339941806647043 6.517982257660576 12.960065709926905 0.8828342931740989 -3.3947380612817017 -1.188930552283088
Ni 9.709670317906022 8.47961683083865 4.385495972472725 0.4102089678602032 -0.8305390833148083 0.07760720626151794
Ni 7.128221655927126 7.220951366106406 11.782546915117845 0.709214895781314 1.2539118422504794 -0.4632886212940021
P 3.835350134347744 1.8724918690135839 12.754005292003182 -0.6256915811456772 -0.02994795251234197 -0.39588175260425373
P 6.436153682948126 -0.01752401896810015 10.512934543227436 0.4747637118131371 0.3186162459528707 0.15262376897772423
P 5.390363947567714 7.999583882676762 0.09086241199605916 1.4561103368325374 1.5690301023524205 3.0882533084850428
P 8.48136362803856 6.77875946316828 1.4565047264225852 -1.272268490380796 0.6719449556862621 -0.4081217463138714
P 1.8862981057059358 0.6928629058223823 8.78391170541175 -0.5225098688491646 -0.7664440526071121 0.3499091425288813
P 3.3538412826693547 2.303287554925547 6.354430663360589 -1.5102955646256893 -0.28077243563221965 0.2774094326972577
P 4.6124974062401 4.854807135468521 4.6591630467299385 1.1992044234052701 0.9812147274272262 -0.7993030081186622
P 7.2373170810488965 4.895375799849362 11.542334276645468 -0.19039867373365274 1.9238914466802541 2.9794457653613207
