# total energy = -340868.0763600158 ev
CRYSTAL
PRIMVEC
9.22595986164367 0.00000000000000 0.00000000000000

0.00000000000000 9.22595986164367 0.00000000000000

0.00000000000000 0.00000000000000 13.50312483182839

PRIMCOORD
 96 1
Ni 6.107622171349374 4.139254460762187 11.624555968501953 0.2278606752348527 -0.9478060700597936 0.5445678770904685
Ni 3.2612106579007367 2.5686270952923143 7.1867411511183255 -0.8739950976159142 -2.5376973321319394 -1.698508286451617
Ni 6.180719449407515 0.30432750397902497 3.287268458247501 0.6649312433725904 0.9263802960858497 -1.063364044533472
Ni 5.3899347726187505 1.991331124077874 10.17727783794079 -0.796005825424629 1.7370547792662472 0.5075105672268551
Ni 2.9227009735348117 5.486392180431177 0.016392685050322306 1.1197167122915879 -0.2656075549663232 1.2494496927140675
Ni 8.683482418982667 4.012332934289154 9.077920793152487 -1.3240926741409391 0.6554281889781616 -1.8474587203428119
Ni 8.625737137729873 7.78011335696817 0.40470594462935516 -1.0186692727292586 -1.416142281080032 1.4432077698382564
Ni 5.721211304643695 7.123197354245242 3.556169199887077 -1.7536489361795022 -0.4720977349451998 -0.08237557418443878
Ni 6.2119400967568446 3.7312640745086108 1.560434525283247 -0.025157215991917965 0.2061975884391223 1.1175562143051594
Ni 8.3438102637048 2.397181087699935 2.865282291252514 -0.3437433800378015 0.19944689997885007 -0.3409056534786903
Ni 0.8450490034774631 6.665580531203236 2.6407657961460824 -1.1058183570429407 0.37647686571508066 -1.6212288958431627
Ni 7.900382966556195 3.143275216096217 13.624112035579804 0.05666042880652177 -0.5852288451449406 -1.9539913513894285
Ni 1.2777769552563816 4.034659756566158 10.453875797690163 -0.6288846341616783 -2.6428719064887645 0.8468375633645158
Ni 8.855481984152163 0.09108513152651791 7.952219943269242 0.29528117077135596 -1.0215064850677376 -0.6128432644280994
Ni 7.899672567665562 0.49509543880063084 4.878394983393933 -0.6095463388443825 2.243673430806452 2.789877557948763
Ni 4.349403368954578 8.962143303302756 4.332882443065557 -0.5990588090494974 -2.365693873076023 0.042340412639423855
Ni 2.968258762131441 7.723364479354183 5.9487207010504 -1.9406424408863483 1.75743128604007 1.8999891861413603
Ni 1.524442211619178 3.603512211669905 12.82505167301316 -0.5423230469203499 -0.952388033003521 0.7060745503801195
Ni 7.1520008001745 3.0801881042242547 4.965098706697579 0.5924569874622636 0.6995447196814016 -0.9713365490815659
Ni 7.160211904235051 6.661779435840374 10.276809335498136 -0.07636227811082331 -0.47252119563586364 -0.7718487685624514
Ni 8.579330560848332 0.7396110465722946 12.78325899853688 -1.7700502603556614 0.3886716080090597 1.2473439592249744
Ni 3.564154267936972 2.1692445293628895 11.815422621091477 -0.7195810695069866 0.12728991819862595 -0.5393017435955229
Ni 9.09136209372082 4.592193722277564 1.3565371273284161 1.1670162687085 0.8789781526528023 0.7632836526012596
Ni 7.965693534696239 7.860065523022928 3.8899127535140354 0.8536566431688782 -3.439834182289392 -0.06345611157211652
P 1.079151270627617 4.663150577704191 3.6351627887374622 0.42172339625770594 0.6077290831299856 -0.16370445227191804
P 7.845082564602327 8.898004432034273 2.0559183769838207 -0.004138704758721904 0.4198734875331608 -1.0480145586605951
P 4.801899784408263 3.8204791040204396 6.049062237862256 1.316728263356068 0.4922952929389973 -0.5307168301399892
P 1.2707098701885364 3.802017958823628 7.480460646727888 -1.104131456258821 -0.25213780261466257 0.5143705275714818
P 5.2731064459684625 2.3223677811527357 3.196675992964616 0.20813877132589315 0.6074012674769217 -0.6154850729263206
P 8.557298969279124 0.34894424469455776 10.222040348818298 1.5686616632694081 -0.9608047963123065 1.4914722612715992
P 2.7030770048141215 1.6402464567518018 9.70547886977308 1.0747933694163363 -0.873625115871005 1.737905043081684
P 1.5871602851063973 7.0894672458796535 0.4095920128433639 -0.6889270920665554 0.48777169403703097 0.6168984083340795
Ni 7.251401289105259 6.213554639690099 2.0597526858013095 -0.2892218519511535 -0.4294482757057894 -2.5792031646852096
Ni 0.988644606769185 1.438354782418054 11.44944817753695 2.051358770997009 0.6486993548947602 -0.124634739963966
Ni 4.216042122667766 0.8821539678715346 1.7799145690338871 0.012305042619598163 0.951084226590433 0.31379259931198217
Ni 1.3253367770902467 5.318092225068739 5.88242018744328 -0.4997934010882554 1.2196038129972286 0.23536521114201397
Ni 1.5379951462988963 8.920165187038142 9.899532168814867 -0.03514929420762334 -0.6187614296847472 0.4550801173412808
Ni 5.338813730372107 5.499133230664459 13.255625363221135 0.055535828283775325 -0.0006288918332505298 2.345368017034477
Ni 3.472577392762783 3.467641504366834 9.31403708728738 1.2843925273378396 1.3923999431577698 1.7581738206330495
Ni 0.7471385070251075 1.944638542448157 9.007448300605837 -0.6676404147736372 1.0046174226218827 -0.7376726369013746
Ni 8.669385152685452 7.360212256846987 6.358229680257197 0.29120288693692425 0.34089074108035483 -0.5831624495342149
Ni 6.134451261920252 7.986913241819011 1.126099411338769 -1.4349326743136577 0.6843304738348086 -0.3565461882294247
Ni 1.2976404463152198 5.972812449402441 11.955855565425944 -0.4007863889947227 -0.08335953536426288 -0.6713322618029277
Ni 4.112157817362369 7.504773818110776 8.051399931765115 0.3335985782943158 -0.5091812700610585 1.278218537316644
Ni 4.792581565193481 0.18019959807850358 12.831640853372763 -0.5575141528384915 -0.3367396950264588 0.27090299903730763
Ni 8.241872635878927 2.5898929322131794 11.064162877904742 -0.80313780848372 -0.9352436600137506 0.24407610865245058
Ni 8.464467363596805 4.762984686737023 11.361448206906893 -0.07155662919206386 2.1177721654252366 1.1571967115149167
Ni 0.4031301507264988 6.836592918693541 9.749066915991138 -2.9263884805250244 0.16505428143159318 0.25445796610740695
Ni 2.605650871241742 0.47928675699416573 7.997873681845904 -0.6098343023984465 -2.5062758803978644 -1.074011496944989
Ni 3.279819418451446 4.617878793855737 7.319165962503851 -0.06998928470494399 5.557477792556564 0.3968289470088714
Ni 1.308905343009526 0.271991438111806 5.813891604588269 -0.04222728410032728 -0.38216337457689664 0.717834519129525
Ni 6.514044144467788 7.24509073272614 12.391803377111753 0.46997683194745515 0.898432147612356 0.11751561242068148
Ni 3.642916285200931 7.883591720050348 1.396290864728987 -0.13879097685969 -1.1053316472145092 -0.07728221882193141
Ni 2.236658616295974 5.696485732865857 9.495045802024434 3.4451000586740217 -0.7701302432094478 -0.4505074103689338
Ni 3.137149178909469 4.358998366957918 2.236454722588403 0.4143489581705057 0.3639923600948247 0.6036883374017087
Ni 5.516145900201151 1.6058982090917668 5.373757052427542 -2.054587819457268 0.3303980690791471 -0.39178932770243496
P 7.826058635868781 6.662305315538634 8.234772337356453 0.8825638131215316 0.2329370613164956 -0.05207229521520709
P 6.89379386832884 0.9220848436967821 6.726527220443685 1.7091472542227015 -0.13554007402256013 3.1313470543507234
P 5.274351950516973 7.914009708912861 10.318885246934707 0.1516025268020615 -0.705185977127579 -0.056314615431328825
P 0.434695848965565 1.881459170980008 0.8325838094367772 -1.6119626400498883 0.5987209660941044 -0.284720107426058
P 7.6224140292075 5.495581236211299 -0.1207521272760769 -0.13477439950112918 0.08988216697412907 -0.021000513511067055
P 3.1409318223530938 4.648988729689645 11.468716594200393 0.6878842526243378 0.2014968405293433 -0.1784579564320088
P 6.186107409824774 4.187653844921344 9.529073908885705 1.9795686856379004 -2.302219506671461 -2.324903321422222
P 6.881320370924497 6.345495088195649 5.2123138302536445 -0.496231651878926 -0.36170022162653837 0.2663032954817672
Ni 6.656400701382732 3.2158281625368605 7.363213461510917 -0.9752345985843914 0.020455953861506705 0.4182745184771571
Ni 2.952740698052962 4.164376748803625 4.775434196646357 1.1403202474745522 -1.1076577242445247 -0.4487770579413884
Ni 4.317306255441481 6.134294420606737 5.557981014091677 3.02264518356693 -1.7277700115302117 0.3541404070014094
Ni 2.6909540938752854 6.452359378457852 4.029359442765274 0.5707828449229396 -0.4163932422940442 -1.4699133041539005
Ni 4.825158428606745 5.593726994633929 9.953707003695266 -1.9335932473490507 1.7777072626802866 0.6180471772265421
Ni 7.350008345508819 1.52508802879248 9.097365425644641 -0.7939846812295422 1.9735451051516402 -1.7586993541192162
Ni 2.0679434927506994 0.16510500554651783 0.5482102109208529 -1.1501966260479999 -0.5391839870707359 -0.523696432958098
Ni 1.542073020450316 2.8316776559377383 2.508907458681139 -1.470529854691977 -1.5802483396657432 1.602130484450815
Ni 6.576660732399202 0.2911971182498384 11.216707662026502 0.794036103292768 -0.598516306282466 0.022177050317671487
Ni 0.31829283905369454 0.28138623279142283 3.262881479187665 -2.8226143860601516 1.5227844411213194 -1.3101395543949566
Ni 4.058388924705188 7.092401101038367 12.085769070603288 -0.2031927401745275 0.8401113003842756 -1.1733082723647985
Ni 8.189496863124154 5.156637931743299 3.6458169269050176 0.4198850574973866 -1.6526796581532763 1.9670379001607414
Ni 4.9269668929979575 1.1338335332870386 7.992013352296172 0.7415346909599423 0.17729658913405594 -0.5492102609584864
Ni 8.921383013707798 2.3519185298111003 6.640782996940373 -0.16172136040361826 0.2092083502409881 1.1037041389134155
Ni 5.811801002138695 8.181931576236904 6.377944633366176 -0.00805449487336032 -0.6342091316983851 -2.208560903374035
Ni 6.060671262850336 5.721820217978523 7.408596879470754 -0.45212309159548586 -0.1869251133627555 0.007759332230444702
Ni 8.247205240538475 4.895091202515707 6.118589992143962 -0.4819566300171506 0.016142928308449617 1.3024334439999505
Ni 2.189283313654481 8.849438980601981 3.2232495244540593 4.754551842973334 -1.708189775405439 -0.7158879369261155
Ni 6.7057872632210795 1.2511969655952049 0.9390882872738556 -0.5476992236305988 -0.36107158690360397 0.4592003101572414
Ni 5.372959006920532 4.569387150100394 3.7157626171574454 -0.17169184135276883 -0.2033999710893271 0.3280750773729253
Ni 0.6619340021594831 8.214646829044447 12.174133466638281 1.4614083520066832 -0.027991343006603407 -2.1180899537759714
Ni 6.4415742316637115 8.657188434069669 8.48528205109232 0.6706177522344063 -1.6923093567297562 1.7262160367795303
Ni 3.1888699085313212 1.6210656867047395 4.19658180604426 -0.894409142495892 2.1465710919348 -0.7375672216717619
Ni 4.2740365048302635 3.352879792671112 0.31844968036721066 0.8525068458351511 0.3136599303888598 -0.8570394435981821
P 5.856316257298423 2.169318337039838 12.636089258488914 0.0018905321544935183 -0.4167902206221467 -0.5671485906044619
P 2.7534968741297514 -0.31729459022296236 11.839066910402018 0.14728358771173344 0.48467994248558466 0.2969870977188692
P 4.405552559193357 5.9916241810647595 1.9336605730979888 1.7936023366439884 -0.22604881883709457 0.3080945204859404
P 0.4231209600280738 1.8002061446190283 4.785061485508363 -0.006556313061279032 2.606030312180383 -2.529699401528127
P 2.634767999798033 2.1856298336455167 0.7542360377596938 1.067830822055574 0.7525793788098781 -0.16807841296989762
P 0.9791879981601236 7.652379946048701 4.667341931158918 -0.28791933108964607 -0.40402289365414934 0.3672437771525868
P 1.923391157446529 7.263404262569053 8.255688510407776 0.5411398252455262 2.392133812435106 -1.5422258376753828
P 3.5968233909464224 0.6976569178026888 6.090220166316777 -0.18547526829010638 -0.9710598983814115 0.6198364079164809
