# total energy = -340891.64561307814 ev
CRYSTAL
PRIMVEC
9.09331059539369 0.00000000000000 0.00000000000000

0.00000000000000 9.09331059539369 0.00000000000000

0.00000000000000 0.00000000000000 13.30897922228355

PRIMCOORD
 96 1
Ni 6.8013872553137995 1.8306653237691761 11.351215295329949 -1.1761318578565227 0.798448887648483 1.0585180292950802
Ni 4.66798742946374 0.300287492153274 6.1272946721119155 -0.792556433423448 0.40518683205526346 -1.048798230904155
Ni 2.566032272248659 1.7861717541824356 4.724634208891616 1.2856497967837082 -1.977988485634974 1.1485693748572219
Ni 3.2804573260299477 4.202619064301138 4.7228510106500545 1.1046541615315104 1.4016723695986313 0.08414886403477767
Ni 5.095163889401673 4.721747082722847 2.4851727342394185 0.03262858466829865 -0.8714982993359893 0.7667980935124215
Ni 7.134311549143708 6.037367284605047 2.7993575332390885 0.7339828467546133 0.8561647543027125 -0.8291869401622881
Ni 5.294398328323701 4.798776518236699 11.408257633776223 -0.7664540799094413 -0.3880576285741446 1.292461163278587
Ni 5.780899547710621 7.640854425462811 12.557554816398216 -1.2191466708551522 1.446623994608657 -0.08543750093921415
Ni 1.8781414992877479 6.593014039070154 0.24431725504652033 0.7395395149067844 0.2384865303798151 0.7685950375118441
Ni 3.022989324951066 1.4928215488139 0.4418712501386627 -1.462731698803797 1.296772131949115 -0.40859200108207056
Ni 0.4270891641545619 9.105495804207365 4.775661322265005 0.22569966302779193 -0.6124316308119775 0.33334455330198076
Ni 8.752939052429824 2.292687350569236 1.568888912048521 -1.262842569081206 0.45135690285342267 -1.2407490796162761
Ni 6.892902334880723 0.5088425746122749 4.766664400591365 -0.7668842254683245 0.4204586706126695 0.4900350361499109
Ni 0.7109968756218363 7.587785863822055 2.2319558559444737 0.48575260672447307 -1.2638242162681848 1.4927562701903454
Ni 7.724740217295568 3.989981085307404 3.829153153744166 0.14779626568209386 -0.5214037802691794 0.4069143562693314
Ni 7.57389128496889 4.135710483671823 12.476116943824143 1.0387804416568367 -0.7004965420717097 0.3034022572165936
Ni 7.90156873848579 8.784929319710868 6.831432463421616 0.3924375028093951 0.6328978690861293 0.4941025213510652
Ni 6.930876000646966 0.6543773761262633 0.669986953390232 -0.3540136516155581 0.2948227430776987 -1.6930950858558453
Ni 1.7119066851419884 6.34746736840783 9.108172874897399 0.8828209234376603 0.688394359491537 0.7346058250505929
Ni 0.03600314532286558 4.664904797113463 1.599965301597404 -0.2430528095942588 1.149163299687479 -1.0520229084890398
Ni 6.566270612102118 1.9202889946964015 6.981703970514541 -0.007998959045076547 0.13279259318441 -0.17010264248877802
Ni 3.518729348078049 4.268845646622869 0.5359088141125676 -0.23774553844873247 -0.5287257678518894 0.050902443276822015
Ni 5.818973239895309 5.428961141065288 4.943433815261597 -0.34236655429493296 1.0241673197293522 -1.049773964553863
Ni 5.288496769635413 2.6043696704456134 9.707450243757386 -0.6259995993043993 0.4876685928002634 -1.0392874632002425
P 0.18068226629360606 5.647546145301148 12.554733162066974 0.05215817006079405 -0.4908688449051159 0.052586258737148145
P 4.021689459954648 6.005395203945537 12.742749183494793 -0.18844540666202383 1.6118381986568822 -0.25308319724706735
P 2.345710445656153 8.639063521684932 1.3942618813951786 0.6455286704762625 -0.23198832424998111 -1.332394252028099
P 6.179504825216193 7.864695363322447 6.1027127251133795 -0.4518708663753637 -0.7872784728539604 -2.557873807079814
P 5.057181130324662 0.969783406762046 12.62139804196771 -0.5859556960086361 -0.3188085644693348 -0.5485939675307262
P 4.021889512791539 6.140949187560811 8.242516969737185 -0.90488253122339 0.04318656268980304 0.0026204683419825837
P 4.65198320251245 0.9536155002169358 3.788813408516147 -0.16617296841706866 1.51313663361891 0.5397943669612252
P 0.3168364084195542 5.529787770858416 3.582737162572442 -0.4066225360605255 1.4606151666814267 -0.2635920671981912
Ni 1.2801381032663275 1.1623888221343632 2.701070665143401 0.9591304939336773 -0.24971916587084092 -0.6467162630264605
Ni 1.8363759229313408 6.664087356031111 4.8263547111332175 0.265763106707581 0.13243983783068158 -0.4992845797726369
Ni 5.865703763930923 5.419895110229812 9.272458992545625 0.4694073325972303 1.0700229446108862 -0.6386895360672419
Ni 8.835779113524286 2.4446456668095835 9.979764893326818 -0.9992664427226146 -1.0494708314911476 0.3089303861236744
Ni 2.2031818926819917 5.343538579712775 6.937185848988727 1.0019198211850615 0.18019139418334773 0.46845628153787067
Ni 0.7072358822882832 0.08210441225334923 9.295563276544396 -0.18740848075707725 0.08605430858760664 -0.34175977394886947
Ni 1.699676182159326 1.0942162713083274 11.577387758070444 -0.33824713280992064 -0.07570253303963737 -0.876056351020317
Ni 4.1944441779209045 6.877889278803121 1.7172971997651274 -0.1706150633488223 0.5480242110701852 -0.8293764304652748
Ni 5.827511858706253 7.717683808139771 8.23833859343939 -1.8437005388519603 0.6899169667836506 0.9850721535001036
Ni 5.089271424024152 2.6547102388560355 5.113084076931734 -0.07305789632793869 0.11778506403198426 -0.220773172260452
Ni 0.7957792678962964 7.7066536221784565 6.909742237091572 0.9880757162131175 -0.4510252305456168 0.3450466722302574
Ni 5.114950933632358 4.480819813930554 7.090957371396169 -1.0781666567639432 0.08107253910229908 0.7518381297684793
Ni 8.20123879483793 7.465890032979984 8.912651234761855 -0.11274647316681227 -0.3641455978432374 1.149485716023904
Ni 4.792538507050002 0.27856175406689754 10.166916140900623 -0.6122483111565779 -0.7442150660055828 1.151880698618642
Ni 8.072259274907761 7.0465065403700375 4.864911258119676 0.1320282042145597 0.31283923425977733 -0.2974254708078684
Ni 7.142159076336299 6.219115286920636 6.9949465589856565 0.6484926382005928 -2.074050299057254 0.1565840391770529
Ni 2.382483794401049 5.366099083727634 2.499200075429794 -0.7896616283741561 -0.19224318314155922 0.3412352689039671
Ni 2.2674443198778826 5.058863392816701 11.655963965745894 0.09000609414650305 0.28395289024273035 -1.0809822718358675
Ni 1.2434284076968056 3.3742548265995835 3.8096816473971216 -1.8109945639785068 0.7638598368197038 -0.865803048723425
Ni 3.6358966573208757 2.794119786236848 2.6718975055382135 -0.003200252104852553 -0.5933303912061524 -0.020803824119228688
Ni 1.1425654046606062 3.376873700100704 8.216538290204719 -0.4955364255841143 0.4799290580641606 -0.21124157862093296
Ni 3.43886279960465 2.7226645502236444 7.411743914013247 1.19530071747549 0.15725252599898726 -0.7823674087055882
Ni 4.021334820834705 6.946134576115298 6.104415902220185 0.42500129567802936 0.22864743280220623 -0.13479985342242592
Ni 0.885209251304168 7.327453469851324 11.363006591402526 -0.1519200580424803 0.8065704883143529 -0.5812060971387927
P 9.165784454597738 5.839014896827493 7.824828470254353 0.10958941559506932 -1.2850954669421353 0.1411353087221505
P 8.699179399170717 1.5052157313903822 7.7834238983354265 -0.6821545492294123 0.7041809329018325 1.1449320352149508
P 1.6481807632813963 3.2558599204031067 10.42565538682484 2.148642372641532 0.19121268499451585 0.336488241137285
P 3.9136063681688325 6.213022768706224 3.875468113477692 0.2080994334475255 0.13469032442775514 -0.00648175106960174
P 6.917654326790616 3.8442880601860567 10.352216899733182 1.538429346747428 -0.07252927751797832 -0.24169526712509987
P 6.475983129488844 7.950327070822618 10.443502827868757 -0.5333524679906234 -0.14372492382619764 -1.3341348888682893
P 2.410209298932006 8.785747717679968 5.764838032901493 0.4772340277305007 -1.2743947926951793 -0.08238817258992907
P 7.001094546395751 3.885653530868681 1.3191820517099382 -0.15661489241498833 -0.053564563490017425 1.721770856523983
Ni 5.342892954648263 2.5717701513431273 0.6860848414424303 -0.38806328500109943 0.9445078589244958 -0.2005023378265579
Ni 1.6102798440012953 1.130125755530285 7.114008914192488 -0.5977609161736802 0.5370330021660041 -0.4159283868424837
Ni 7.005095603133574 0.7844480933485676 9.053646655540568 0.16632672038611354 -0.4469232925621013 0.4128569470060115
Ni 2.7719593878957722 1.5669684048143662 9.334585401042164 0.07829214814368451 0.2602277787116486 0.9640477287296364
Ni 6.413630297554186 2.1787572599597387 2.8694960578531177 -0.3232141497361982 -0.4206106228095014 -0.5310284478431371
Ni 3.9869166395786624 6.836614741228173 10.489885078101967 0.10045994248997538 0.24643998089893684 -0.05471281816184771
Ni 8.272721310783439 7.34437612119016 0.4604370627332361 -0.3685175016586879 -0.9967053668636576 -0.8282235478077543
Ni 7.656394893564944 4.03645699664152 8.238870552119305 0.501148372454253 -0.178256381944164 -0.8650635994542392
Ni 3.389749828147878 8.514721590246328 12.545070610045132 -0.02674564352496039 -0.6527472997118887 -0.2814015845757863
Ni 9.023574167500447 4.9299202461296 10.285219204658345 0.22540707148803762 -0.1523561171386344 -0.10587802818175314
Ni 8.672317759162699 2.450947331171654 5.700555600421914 0.3230411144934437 -0.09273506304189191 0.26387360299435203
Ni 3.7990397458055902 2.842696252358321 11.746092315420732 -0.41547407291388444 -0.44302704283148864 -0.43215333334177836
Ni 1.2621424412568938 3.1355463256346288 12.701065446935296 -1.1413126932948086 0.3105833483460651 0.654977474593988
Ni 3.1653996648852463 8.559506145777638 8.046396080422046 0.432334596114649 -1.073365635830874 0.27207876451296364
Ni 5.5050266856377545 8.097038546749957 3.5501567394225684 -0.06790951935777982 -1.8131645750466319 0.5986070662240595
Ni 2.7491533644901835 8.613438571941332 3.515993170868024 1.351949548452207 -0.69440251335883 0.8198402088400655
Ni 3.594631213056697 4.198336114929514 9.336169455777911 -1.1253325158164682 0.7718348846053804 0.4682778469784774
Ni 7.4229696061560695 6.364144500355936 11.478316137255495 0.5032006269975915 -0.531360120150943 -0.33925423391819637
Ni 0.5584283982289713 0.1352348084073257 0.20370289183331422 0.39332839005478065 -0.48133262327990645 0.6491647245669528
Ni 4.427569386074444 0.3318676511186921 1.7622681681671764 1.3388016982163395 -0.7158838231610574 -0.3861634968752253
Ni 6.093809464540648 5.691375903201841 0.4843497420592634 -0.0797713037923723 -0.47150920943158153 -0.40758515708411086
Ni 8.111496910870725 9.06282089677418 11.15150072959938 1.9819040186392962 -1.0514672930958857 0.49866108725602504
Ni 0.23741543217377642 4.904977294693585 5.631508273100017 -0.9847777621881361 -0.18551460616847404 1.1088532872145225
Ni 7.8369152989268835 8.706263088258815 2.5383149516973935 0.7311438346439215 0.4294544463533765 1.7197448272328897
P 8.429180815853837 1.456930251213478 3.634815462670587 -0.028348212125389887 1.646842482646209 -0.2089368417471563
P 1.762638265915425 3.2507403864408477 1.5685833768067237 0.790917098047812 -0.5361398009277735 0.18801140444839878
P 4.867058188791948 1.0925431021270562 8.107963250306366 -0.16111020918218058 0.22908477744994094 0.9537643445257574
P 8.597925383771502 1.6717960913453171 12.51131896846837 0.353479633488959 0.5446342115520298 0.29029708729320325
P 6.370682590797969 7.716310718213838 1.4317936122581079 -1.4835100690017289 -0.510815720340688 0.233027821258089
P 1.8629920435486287 3.3523308543384696 6.084652500597495 -0.8646421956461046 -0.3932553707250001 -0.3591080354193299
P 6.779090457311207 3.840332470002073 5.988388894147638 1.803760508123913 -0.12987721930982793 -0.7044195312751997
P 2.490530512943794 8.528179690182641 10.286775979461789 0.5572112768860921 0.04489171830636785 0.2658314980516712
