# total energy = -381169.40560291917 ev
CRYSTAL
PRIMVEC
9.23339658571106 0.00000000000000 0.00000000000000

0.00000000000000 9.23339658571106 0.00000000000000

0.00000000000000 0.00000000000000 13.51400922921685

PRIMCOORD
 96 1
Ni 1.807585133494245 5.79776980644122 2.0119248186121634 1.4672918073706536 -1.7541140487413789 -2.1621260089502634
Ni 2.3491884822645726 1.6257887863585414 6.654243985247546 0.24549252938400298 1.757387577286328 -3.5541356586481503
Ni 6.15504685738687 8.801716913729258 11.12484044051974 -0.8684908799682333 0.028055877695951685 -0.31747159082546617
Ni 0.7182843941480355 0.39982084946576224 7.759392926646868 -1.1770212024400117 -1.3716503693152442 1.327120148113353
Ni 3.0264765951752404 8.722632871207177 11.919424084752654 1.3601966189523478 -0.15530028736862286 -1.1186785008350606
Ni 0.03850788083343251 3.436356306978838 2.172782592107782 0.3748650411432705 0.5273995928412981 0.030620553099334365
Ni 6.986920497431774 0.6168703051069319 8.963612521011157 -1.5655673406148005 1.3853715755560787 -0.04622817772960426
Ni 2.665423084989481 5.775064884017191 13.294676655748503 -0.1957753646645338 2.0528584954709874 0.6223010674068895
Ni 6.9741322430367845 4.091456567679282 2.1802284031865686 0.580808861700374 0.8292221642755977 -0.08029555172695849
Ni 4.590235422670577 5.0987093441707065 6.264702676300153 -0.34639598716930015 0.4012502160050186 0.6374993724138827
Ni 4.954862257369593 6.818235573574688 12.595881191962565 -0.9553885103927419 1.6932997456674836 0.24652996950958186
Ni 0.7831471591111566 2.755928839198642 8.226544628007 0.8486098247735901 1.0089682433914107 -0.624891453841885
Ni 6.431337786095371 0.30661340338947213 4.513233511098724 0.40107332410752217 -0.14113325183962144 -0.5061337414839864
Ni 1.9425958596773045 8.114096629939173 9.34676154944039 0.30717535110578065 0.23894212985999494 -0.6176288587422007
Ni 2.827164494546905 1.3841877289583264 8.658533708149083 0.5195327884987118 -0.08735914344195922 3.9738170847751633
Ni 2.9532742263351848 2.0524917469041393 4.083676507640858 0.9302675469553979 -1.2025003205477225 -1.2345815173529835
Ni 6.036711645599011 5.783716576701744 10.778395087213628 -0.6244888190868277 -1.2708952641823532 1.9093168913001894
Ni 4.231887297710616 0.17363402447493065 5.309613974324608 -0.589496619282359 0.04135902256276103 -0.11216334696983264
Ni 2.7377298143520536 8.582700744596297 7.2032774483223125 0.36530593669992567 -0.48798329582720473 -0.1936441772541439
Ni 7.220396165757916 6.981343525840025 0.5628817114080557 -0.37577778276552704 -1.0732224253847904 0.06039058527291536
Ni 0.9464323925926545 7.78166664944617 11.254143080878263 -0.9301605890638883 -2.5301819975915003 1.7507528455786299
Ni 7.711455901128841 4.237168800608763 11.762472038050596 1.0862237227404647 0.1724086649141353 -1.3918204165052157
Ni 1.0484244922656183 5.25874257534324 11.584668211637197 -2.0207978674910163 -0.041043548204871244 1.336327525644234
Ni 6.957724497145162 1.3650930646342556 6.532050136989168 -1.6954679569633961 1.4402975381699967 0.31679873312815765
P 7.623821733285631 8.583263981793477 2.0405474249652524 -0.004481432810121314 0.6964871638020005 0.03856294787486262
Ni 5.062939165451436 5.023346360508682 3.806274801312345 0.2325010022203415 -0.863135786303907 -0.05069624080328688
P 3.077398777838322 4.241582364219452 3.611700356517994 -0.31488120439047057 -0.47695094927244314 -0.668169804914546
Ni 2.913469053268903 6.822104366781548 5.707452413524231 0.8686592872252974 -0.5341022016724544 0.47393093149919674
P 0.16926662784761656 1.5577663530532069 12.878364036481376 0.40695729369212497 1.8494639236982988 -0.88438029750498
P 6.127198933014822 2.683539009265993 0.5045792747825808 -0.6387522709843774 -0.42610095650011137 0.055375134336194946
P 8.169875579253349 5.62873401351048 9.763155422598258 1.16143028998029 -0.7849253992407513 0.8003921274177829
Ni 3.6022804452300745 3.8483504666210293 13.191848933676445 0.663948824854663 -1.4418818519379815 -1.2700041198266516
Ni 7.883372513822207 9.162013285387662 12.63209826708091 1.6959086440452407 -1.4628214303041258 1.2606504465258932
Ni 5.2494630116847825 8.665496612581762 2.4595091057384613 -0.43159977483115347 -0.4903841919592135 1.6177350237572912
Ni 8.449462830574852 8.37777473878951 4.95253267138847 0.8543901789007932 0.09847222263598525 -0.14509660736274366
Ni 8.230908331275645 1.3800696340412395 1.1424389372113106 -0.4672558334718662 -0.37122821572163167 -0.07770876483638875
Ni 9.045330851604641 1.4470394601256147 6.0241671528762435 1.3176410049783243 0.4653457609333469 -0.743505441533068
Ni 6.088354033202748 8.9625996173959 0.40688809128087056 -1.0033048744580462 0.7070466844854018 -0.4296421368841504
Ni 1.0402898697948706 3.810068804006136 0.11913297726058737 -1.0247985255554481 0.12227446726190554 -1.6437502168741303
Ni 4.204630310725771 1.4408530843533092 1.7445367309777775 -0.23801756116319658 -0.17583311721465203 -0.02723081069149504
Ni 8.875787221856772 7.135310415397029 7.862491187241506 1.4866817818614912 -0.7458544013812186 0.1895484099182155
Ni 4.6953576438163935 3.899411150234237 1.7350364891387848 -0.6787331822526891 -0.6042863759970238 0.68197405778749
Ni 1.605124444599706 0.20080237085169408 4.834799477063824 -0.4856980993374538 -0.7524904186404976 0.3309187174693075
Ni 8.609385260987285 8.567096304215408 9.761871980460421 1.0382096567550314 -0.3187373449117672 0.516460320220975
Ni 3.661171049223752 7.162742836918699 3.5829697194238066 -1.5939394639995905 0.796965361124421 -0.5142149758302241
Ni 1.2476627257205535 0.6975009415720917 10.8590737373415 -0.41531055075282663 1.5502631061575625 0.036924126719858986
Ni 2.4376628892052152 1.5943675374732347 13.401667716381358 -1.5895148525693334 0.2355845262416717 -0.22948021311614672
Ni 4.646642242958657 2.7568429454694745 6.626324040381431 -5.4222912452186804 -2.3936865016342064 -1.756273261176227
Ni 6.970974421373906 5.861738778606193 7.083665257774289 -0.7686991671898761 -0.49233488792768115 -0.33107632609309434
Ni 8.78842082251714 5.712028484916402 2.793602944312314 -0.2738003751897607 0.4369093599695249 -1.061884631774468
Ni 5.20674931866585 5.201634016907854 8.757442776672237 -0.5609979976220338 -1.1446692684718673 -0.9016725089265245
Ni 1.4563374905774231 3.3152049092050775 5.063780327888536 -1.8831487175452535 0.8910664512759041 0.8597452725651192
Ni 5.6702196647716265 3.009994982110218 11.843529257442146 -0.06351858937893577 0.9305897061815069 -0.05302103228172159
Ni 8.866461491214938 1.760587144418074 3.694189675733848 -1.164143575146395 -0.8012750442433685 0.9337585908277918
Ni 2.973476898260266 6.181389738100883 8.458391525159659 1.6070538898943614 0.2337040213895072 -1.8558875678364555
Ni 6.423092362864522 1.8261350274144863 2.5472420709260946 0.13834643312310366 -1.0102820771068277 0.15829587966183706
P 2.710675962094061 4.057431500931602 7.502545684656757 0.5191046998223576 -0.46608932396759084 -0.9436614517638007
Ni 5.983656548303985 4.964991293522159 13.345800126459102 0.6253159429738134 -0.8805421547058127 0.7957253180697328
P 2.942701987142215 9.195530515318213 3.0379084635986606 0.3275374597019004 0.24758720712950263 -0.33266783894993035
Ni 4.416675265369046 6.261230919150322 1.7301307854853136 0.8886915232858243 -0.2606628093665382 -1.8231484257322215
P 4.870644446296164 7.44017870681491 7.371027029096213 0.16852861313343878 -0.7266091799983616 -0.2752841588241388
P 0.9438193413336061 7.462237291471682 6.162374480988217 -0.7573276921281409 0.7286933162208998 -0.4281647810076755
P 8.329585641542254 5.04438003813452 0.0799806053392341 0.6304473506631078 0.9664985042629742 1.4029630633855967
Ni 7.88214447206442 7.152936969649761 11.62823784052791 0.1797746183609033 -1.9927340193752647 -0.1656474349309018
Ni 1.501867369582256 5.6264810647217605 4.193154121998311 -0.2516924875471278 -1.4292034851393642 2.199815295970921
Ni 5.216481318761387 2.4819185594688866 4.379012240331384 -0.770302507121254 -0.4458115475551612 -1.2394316463564332
Ni 0.3023798910139467 7.223904856494448 0.6079305304461167 -0.43036744508594915 -2.5728240006317433 1.0502611886029267
Ni 4.476341474683431 7.596814048011013 9.73793809293894 0.12046003976098608 0.9250767467830778 -0.3583559877446538
Ni 3.2955100740971264 2.281359950289415 11.211897521070759 -0.7150052772108461 -0.079686714498366 0.021445828578601774
Ni 4.513422795730563 1.2416979514684499 12.8225112199938 2.0853168731100085 -1.1998831946398498 0.5585418227720574
Ni 3.590489397675994 8.424523426155455 0.6733436058510728 -0.42381498867941203 0.028063333895119412 0.40310269583272507
Ni 1.1523279050503241 5.378850599292717 9.329139611885994 -3.2804116452222796 0.3954973726816414 -0.4746009609830278
Ni 7.51556939066696 3.4425426827511436 9.22931182039367 0.6259528052268638 0.4666338836171512 0.6526244009807792
Ni 8.049305885470117 5.955587022411734 4.978358481888676 0.5739116203599083 -0.5532672046366794 0.614102076535865
Ni 8.404440788387149 3.673451466801612 6.818317750805096 0.633123097723058 0.17842247520838303 0.1511124745395204
Ni 2.4385308284926728 2.9897553765984366 1.6802916802522196 0.5839546064182073 2.1046325427194854 2.00634492529048
Ni 2.871253963670425 6.403083592269619 11.041770340653024 0.7766027383076689 0.33453034607996585 -0.6909623773290294
Ni 6.640686588909523 3.7538466516515574 5.482525023839881 -1.0884708669034286 1.3963890097125047 -0.9202106769400281
Ni 0.7137812665895977 3.048036576411559 10.591267376837733 -0.7828209513032389 -0.040910107950800516 1.364029876655509
Ni 7.145873421193324 8.463479126727629 7.0718677468425355 -1.2257718894811533 -1.4583662227462497 -0.7179116522243636
Ni 5.4102810815746984 6.947669328165997 4.879571294201633 0.7018797955724816 1.6907700372670946 3.5343494771601582
Ni 6.805761254666651 7.048405685891151 9.111983048843394 -0.43894978743832147 2.248360808979792 -0.6036911656151861
Ni 1.1458922275677916 1.2011079396847864 2.0850764037705063 1.0473280741165318 -1.7171582974526363 -0.034059917798186505
Ni 7.605419573712191 1.6231388015127926 11.376633321169912 0.32691988072255956 2.063315943358885 -1.52109419790309
Ni 2.704166417438128 3.794584397782023 9.673787222859469 0.6850300710049945 0.07903442562634776 -1.7578627171505339
Ni 6.779907743976419 6.959506542703453 3.2009684022012865 0.7484123919163821 -0.0629380342851174 -1.2017068781121498
Ni 5.263543941614284 2.489120608875451 9.54222886369322 -0.5646170824318599 0.21853065608317848 -0.6610828161607776
Ni 1.0691996347845545 5.22349870023445 6.699097056276095 -0.26367074295492654 0.45301372173055526 0.22525229107772818
P 8.828632265037125 1.5094202880624736 9.486739843034643 0.40557044064692727 0.07868758380989029 -0.06269480792605978
Ni 1.0762816500343428 8.933366683522587 13.230755697246241 1.036026018840151 0.9872051406827063 0.2512008926226899
P 6.168767684846045 3.224329819128913 7.555925797514745 4.658555849791983 1.968992452783951 3.254625794507427
Ni 1.282001727955186 7.56401702302112 3.2007523407190894 -1.0336341215692069 2.895085813757001 -0.39203821048844745
P 8.425991536226793 3.813171225288964 4.32334778513598 1.2094266153539106 0.4866710047736844 -0.4559365518043051
P 4.0432859372253755 4.64864589003715 10.986957204631063 2.184383020576251 -0.44262337963516674 1.3402204329407368
P 4.33567990973522 0.6542535582253393 10.263105995627619 0.2155054961036095 -1.3249105420565441 -0.08738356892199145
Ni 4.828835626151388 0.41097109929059206 7.8942088281600835 0.4782439570522538 -0.47210184871025795 -0.2403734629898828
