# total energy = -381162.5471476327 ev
CRYSTAL
PRIMVEC
9.23410586381559 0.00000000000000 0.00000000000000
0.00000000000000 9.23410586381559 0.00000000000000
0.00000000000000 0.00000000000000 13.51504732941679
PRIMCOORD
 96 1
Ni 4.460497857003284 5.5137030249963255 7.129754642143114 0.7291327177511636 0.5214552023324053 0.9938146755794238
Ni 8.592907935908155 2.632394234895843 1.0450385248478051 0.48026432991639223 1.2042635830957327 -0.41321561589701095
Ni 1.8298026975695891 1.4935150335451575 0.2926214246472354 -1.7478873511053767 0.8400709340646434 -1.5322257890398772
Ni 1.3487334891374727 6.035273021346811 6.236721502648853 -0.05429218568466134 0.21918962982341608 -1.0934791187512976
Ni 1.1310025091267069 7.33491800419745 11.422242561667884 -0.4304908580376909 -1.7329222451551123 -0.01323501063303527
Ni 4.447523938392862 6.5389103842870195 3.8734128036071915 -1.1573890300313812 -0.0012207597809785428 1.6938823576438313
Ni 5.0572704107653506 3.8155509734258666 3.7251250692376723 0.7990296998526174 0.3530160635889791 -0.17821575851421564
Ni 6.618111309498111 7.308009819976263 10.418196079165547 -1.7581100572746495 -1.365733746720493 -0.47952102399246455
Ni 3.378500747211457 2.683975949741262 1.56771846071215 3.1458272502447695 -2.4887419852791592 0.5016137421264457
Ni 4.902423691065596 8.794885531470964 10.985179407705393 -0.8346397357467433 1.1135519782417724 -0.19053905596625895
Ni 0.6615968996958882 4.915508418945287 12.96363366341194 -1.6516923545393425 -0.7839229261181659 -1.3238170518820491
Ni 8.325081932081348 6.105470693429674 11.750874228596302 -0.9262831083863531 0.9042217577109395 -0.15576951369555753
Ni 6.600769658857279 2.7676831185693542 11.565771961332812 -0.5159121610269889 0.123730997202774 0.5200624357499366
Ni 6.665833168130608 7.695168172701629 12.673924675725365 -1.208763270738299 0.17424340413002895 0.3509067305554602
Ni 4.772444418211295 0.6144946495607291 8.521683431263384 -0.9032167134851928 0.5794811440278859 -0.38457609778344737
Ni 3.493917835262459 7.655784711581736 6.219097288371381 -0.35066736085114447 0.2487002376880233 -0.45747998503202497
Ni 2.5189070749513025 8.571410937669677 9.194705690031638 -0.919866406226732 0.025614872354626853 1.042310309186966
Ni 3.839328795790162 1.430427622907151 12.862297663253488 2.329628237701717 -1.4247382502791592 0.45567558483343457
Ni 2.521307942452163 6.805535954363394 0.08202933180922163 1.4479044039829772 -0.2705569285517985 -2.8890768885587597
Ni 8.777848606320624 7.769770513237995 7.32733126289473 -1.4237638021810317 -2.2353350861440857 -0.5383098119958987
Ni 1.3608116994879575 0.11753169827291356 4.6346475514099605 1.6463578297003063 -0.978846741415682 0.06121976604243004
Ni 8.018943623404265 3.8523673531409908 3.9258375923096436 1.683030502530992 1.2949029399508603 -1.527886024013943
Ni 1.378965951436775 1.9620166240208443 2.46060385451405 0.22449175876261984 0.4506693898680948 0.585571830306656
Ni 2.1611962855345737 4.208018936970443 0.9969048250978532 -1.8133910892351415 1.4115600610259884 -1.5686228396116728
P 1.8822893547807173 2.635155232521833 8.16272326733563 -1.425437590339029 -1.3986536373769654 1.958499009451795
Ni 8.860530789407964 5.14895584698092 7.9599847814571625 -0.3322559482234923 0.41197454440105824 -0.9791650439870492
P 6.595598559624655 0.8490658682688798 12.83129415312218 -0.539758114406651 -0.3412432393237671 0.6511010223577174
Ni 6.85070919980267 4.930153710700539 13.208065983674588 1.000322651901271 -1.404755379399329 0.9370488315432894
P 0.05366769933943638 5.161966702014431 1.3844140738425748 -0.08491068190146667 0.005020336032726838 1.7659961448909456
P 4.168857094389093 1.8906923910337305 10.765289493765007 0.8918601508217929 -0.04545581833995397 -0.8859977785037451
P 4.066229242833062 6.977050234982588 11.77171468191435 -0.8855974577415328 -0.3702715082353172 -0.30858662963101047
Ni 6.603355208473589 6.227323953204137 8.131071522979088 0.511395504103558 0.010723042844458953 0.4221854234957891
Ni 4.86702012953367 6.117641244837885 0.0808667578924586 0.3440352002466075 -1.6218181926877298 -0.2175477233446189
Ni 1.3502940530130323 8.809124522572223 7.23505115026741 1.6385103086314297 -1.1391516810877476 -0.48666920500147154
Ni 2.075448379330749 1.8252225811064084 11.195959876301167 -0.29298903230306955 0.3430862060697769 0.8994755012752057
Ni 4.441752622285024 7.625284460215031 8.676471052686194 2.3677096179544703 -0.7167176319162625 -0.9870976685705646
Ni 8.879580749616718 7.684114948091896 4.828480665681389 -0.11701399019391459 -0.3155972566208888 -0.4004614015551361
Ni 6.980891622983966 2.1968029973934953 2.6235405742811295 -1.5116978442898545 -0.15223964616542812 0.5371828974803071
Ni 8.273112384793482 5.556179911550018 5.541885515814123 -1.6912258938575906 -0.05470973283805417 1.6417866653898563
Ni 2.1685835701526073 8.818257053181267 1.4567189688627327 2.423651166317097 0.3551724478103496 -1.1581482767949087
Ni 8.991248790724068 1.7614241443239163 12.305139423255625 -0.11530292104007885 1.1802877890064252 0.7133769975788037
Ni 4.960866346500013 0.9380374007978983 1.6912052337977757 -0.2342059007265902 -0.398853690748384 0.06461722175975324
Ni 8.829162532098639 0.8066813227729124 3.377910687852592 -2.0422838052789345 0.05734717046090124 0.4422359143887609
Ni 6.663247618514296 2.684336079866391 5.016893359864334 -0.34684875843600266 -2.759645241426783 1.2841667844802787
Ni 6.242089288334432 9.062517619076546 3.457054361607894 0.498862918854186 0.058366355754034975 1.6507973535288987
Ni 3.88567477266255 3.626861256069745 12.6166612155981 1.040134641691886 0.42576234221377 0.6085109556013326
Ni 8.642615127281747 7.4766984642290595 9.696370647978831 1.4992663033947211 1.0234522959401986 -0.5220342147643268
Ni 0.325176264548332 5.566152745784364 3.5648099120994177 1.4951093438035543 0.7063861680832674 -0.9266155520251074
Ni 2.8603104335737224 2.1461446931253305 4.349506675849062 -0.48525072738739006 -1.2594733954986568 0.44045516833925435
Ni 4.367501177768014 4.907705599567489 1.96304715022506 1.6168209965834544 -0.5121388100274857 -1.8928404909117207
Ni 6.34343359918808 3.8353396620964237 7.139147574534944 -0.7266986543883742 1.074062919008215 0.9316407731538406
Ni 1.9637618700118546 3.4365648043092007 6.299755355473379 -0.31521596202207003 1.648166086553639 -1.9030909649951353
Ni 7.471204171294397 6.711477352964282 1.1013767275766606 0.8117785148778536 -0.9476800860048903 0.573629056122483
Ni 0.6489369406817331 0.2574099325153786 10.679617307228519 -1.0368688264564208 -0.6001021627123472 -1.3400342850718598
Ni 2.6869862682231105 4.143140109812563 3.340905932379707 -1.6137441574303433 -0.002323248816537934 0.2108021770906692
Ni 3.2491586276554623 5.84887336222228 9.451369506800596 -0.3027648807429108 0.44272802353383106 0.2693765350904522
P 0.588821988691908 2.682609302086926 4.383794757403664 -0.0847042223176154 0.020825678496099616 0.6123740381011648
Ni 4.536356035924716 2.9617101490620055 5.753653110316981 -0.7376662091434715 -0.10976476483066903 -0.340283189403343
P 1.369898059568139 6.76740833162857 8.194146005869014 0.4572401011070771 -0.11706721202935323 1.6128866945260545
Ni 0.5758139038901282 7.978285855687764 2.571791722121227 -1.4620030481678885 -0.6818195344874967 3.003128710800557
P 6.542567090172946 4.587549918327689 1.971899887429196 0.1641474533466076 -0.6552620957139424 -0.2982762488439379
P 5.830488257629148 5.531035441531387 5.30010153708704 0.1713534841767436 -0.43715541454206003 0.9515429113944065
P 8.53505626324318 4.057161350964425 11.134263121992506 2.4649109442978325 -0.3749416600174768 3.752820483649995
Ni 6.4519528102269925 1.9407874148497706 9.233385512291662 -0.9564766012505979 0.5974235874389195 -1.2605059505282292
Ni 8.70151025389902 8.702858433341811 12.607025426224451 0.7509577840460551 0.10681570950467412 0.8427219985342455
Ni 3.665856884747189 8.965411762772495 3.30245603935342 -0.221226971968419 -0.430049142514582 1.0080814699110832
Ni 5.453875253696026 5.146988982451369 11.463747096883727 -0.880902880479341 0.5217400805626756 -1.8456165249277503
Ni 7.997326581790745 0.34141998001281043 5.825863817458259 0.20956521935977457 0.8542575099776707 -0.45711206016964495
Ni 8.473363202576826 3.223894114261788 6.630630910104524 1.0909067300384307 0.1693505948141019 -0.6478048681049489
Ni 4.5161979830232575 8.290703356290175 0.08812291820852204 -0.5934239793612232 2.1049076507577427 0.2897036766835785
Ni 5.523158749307409 7.166109316569611 2.158731702703882 -1.6513007755278786 2.312000754427941 -2.985485029576865
Ni 3.2748017393858118 5.085757627073642 5.300182797217839 0.15249984180535026 0.4702660810530998 -0.26348330953446875
Ni 0.7667946028884175 1.5413477014469248 6.350923382380188 -0.4384761902360126 0.178974233946795 -0.9696879577345494
Ni 2.6382855943787242 6.120503817627373 2.1105776879212303 -2.1441827942082816 2.9598979251363797 2.7088253305614383
Ni 7.236427032027518 4.362477824227752 9.710710290833012 -0.6211949788269044 0.7905640855837675 -2.3623203286180994
Ni 7.093381499505071 8.748770407242889 8.507005820137929 -1.0296645953984975 1.5463113205986658 1.9188569695801407
Ni 0.46045591411607106 7.19890886027368 0.5787817454854233 -0.9516609250295094 -0.5979694326400605 -1.8349934979962659
Ni 3.8503173816594862 3.118163603166183 7.728052670178805 1.0278581383173782 0.5227926901969061 3.368204019546915
Ni 7.111009407424854 9.090958664855975 1.3173292188156351 0.5871381463525114 0.24619366921608565 -1.0682720233580505
Ni 2.4397338520575285 8.848147853566985 12.125727211969178 1.625082722371614 0.8203572576858001 0.8718687953015307
Ni 8.459235020744837 2.260084324252725 10.065736725701663 1.961055457325061 0.9244771655258659 0.5800688982105557
Ni 0.6056843892431468 5.587834426138292 9.963927939327657 1.5843806166665617 -1.6735184492754984 0.713365684724894
Ni 6.5794204063111605 7.994842607337931 6.595086066754279 -2.254332196071879 -1.837889588597138 -2.5257118776352887
Ni 5.100412152934666 0.49597582538073076 5.769073143546549 0.8639148305617768 -0.27370061638710286 0.8985303637531171
Ni 6.056853126537241 2.667022131542875 0.4440986191505903 -0.4326109897044872 0.3845904959611505 -0.08913783260893682
Ni 9.060984757518304 1.0480987075008257 8.391492697386893 0.250273238602098 -0.8845250506129605 -0.7537397176665664
Ni 2.402243382621008 4.970359007234186 11.703747046375558 0.47840285122762133 3.266745717699413 0.8303459934673958
Ni 6.975046434029946 6.252948596722941 3.4844491832032944 1.4008658145369357 -0.9197923584556869 1.3821098740856714
P 2.127039328281941 7.19890886027368 4.177609179840308 0.14817627472933192 0.04411421671039499 0.44863693281909833
Ni 2.827178462061842 3.6776488378187255 10.147665405757964 0.8727334572946711 -2.095934500724855 -3.1055964277491803
P 4.896781652438572 1.5872135048191405 3.964517414569667 0.7149685104356396 -0.41862984493404676 -1.6494089578218043
Ni 7.301093474752629 0.35563957949194774 10.880613317347708 -0.02486848110690556 -0.3099775964412661 -0.6071369580719415
P 5.2871257716554645 4.661330423450298 9.152362698011647 -2.6838156958909782 0.6590534444355747 -0.9491337877322814
P 6.877432701908406 1.6950955625597477 7.0242291281956595 -0.5288136995800053 -0.3940542124772116 1.1041000888002532
P -0.013149366620099693 0.5633663293087418 1.2015556942818135 0.6731430897594213 -0.4749226059885047 -0.40061438219323264
Ni 2.990234301793387 0.9001868012362491 6.730006509607466 1.2190633671127262 1.3009555739028433 0.062464951303440805
