# total energy = -340888.87157453684 ev
CRYSTAL
PRIMVEC
9.12921818298544 0.00000000000000 0.00000000000000

0.00000000000000 9.12921818298544 0.00000000000000

0.00000000000000 0.00000000000000 13.36153360631826

PRIMCOORD
 96 1
Ni 6.609836900930698 1.8401491021929972 10.854027735208227 -0.6093823024626924 1.665531831525596 3.515142050993772
Ni 4.794327558355193 0.3806628324277379 5.8224080627983446 -0.7273632845555666 0.5535736801335046 0.2316255415939237
Ni 2.6927998131061006 1.4219487508340993 5.069151713810189 0.7558251394406854 0.6032725900205288 -1.1486611632400798
Ni 3.241137168298767 4.833008055390876 4.5469969560917605 0.825415646045314 -0.0792092606413152 1.2321016883539233
Ni 3.71608473928802 2.7849501404788164 2.4914850346114603 0.0866798579867475 0.19449906905527148 0.6001515278930438
Ni 5.349612248512257 4.551189093037427 2.6875651194548706 -0.3137496618891887 -0.5424875975226722 -0.46411883050478137
Ni 5.2707266750203186 4.6396055702124555 11.340093780905944 0.18773321108634766 -0.2575296630541952 0.24819398747556612
Ni 5.73146005344772 7.9402287235677536 12.31496463772755 0.6262086299914119 0.7868606685902513 0.7880192076747268
Ni 1.8493148371525978 6.894522437763545 0.22259498585602402 0.4517500245267833 -1.655306297142846 0.28632858956375845
Ni 2.7575350985628004 1.7788190150828425 0.08060825694500344 1.9568190506462106 -0.6728476700061895 2.214974777320179
Ni 8.014878339867208 8.9730171657785 7.024184722256777 0.15884223908361028 -0.5306530667815893 0.07374720908547944
Ni 8.611198865326468 2.5028116554923128 1.1227313246499657 0.8010148486034463 0.03542157403240351 0.26990463967978034
Ni 7.128549943430234 0.6240203989795978 4.9666159879414185 -0.1899762414842535 0.7370501728260275 -1.1720862270322396
Ni 0.8918579638324221 7.663449089598466 2.2953510873813343 -0.4541306089438179 0.137421350205673 0.3641137161640375
Ni 8.217976054654288 4.00820145964389 3.586222524918678 -0.36941790198577024 -0.06114109028569469 -0.7319861280395586
Ni 7.522457445458956 3.7999274782013366 12.614930659794839 0.6189938574105276 -0.8343340315808664 -0.8477927281889335
Ni 8.677741735964442 7.470256576436053 8.998084172802475 -1.010372322827789 -1.7919455177668557 -0.1683794891500842
Ni 7.071747948491356 0.83800927094477 0.10093172225084245 -0.4573120919955931 0.13089023395537458 -0.8694208479816704
Ni 2.1360088019646395 6.593221724011901 9.24888022625183 -0.19821894110901994 0.8536427592118073 -0.28000496133857583
Ni 0.49006373029812345 4.911984921063688 1.2899986842882027 -0.11689674788975997 -0.1572196158785228 0.9667486726005674
Ni 6.230883058128894 2.306259590073791 6.864888995852327 0.858858756195108 -1.1729483179222184 0.31421426023043303
Ni 3.400368990176606 4.509934156501138 0.16194867718060446 0.11073535627405444 -0.6258260498410125 0.5234514068268274
Ni 6.431999732591042 5.672457916949814 4.506738017248791 -0.8153412925284474 0.911879017145881 0.9877571565314344
Ni 5.467306128093101 3.294387897401705 9.147398925072133 -0.21032240924077328 -1.226370956517733 -0.5726587217894137
P 0.2573745680030256 5.665519711203504 12.630337128238885 -0.12048086569659251 0.056230283247638645 -1.5356456133547036
P 4.254882061579509 6.217590916593856 12.501157779382469 0.16446061371165227 0.9195866702027841 0.3492272859705082
P 2.5728418874396177 8.739272665872516 1.242611651962707 0.27530961274543553 0.5037063629894164 0.37917575270348247
P 6.206243298511403 7.922253293153956 5.832883840553465 2.2208759732959624 -1.0001341900395486 0.6426670326577513
P 5.0663965157914586 1.3217190654541664 12.376454486154232 -0.22458483269705837 -0.7787686356107362 0.7304686629537678
P 4.060219744305048 6.23930019720534 8.106575858022795 0.6113923909141857 0.9628295400518192 0.020376249663506842
P 4.966112055103002 1.2457183248777988 3.754243957970922 0.04218717489101122 0.38121900838575634 -0.09378201624916752
P 0.5015921068987045 5.7248139826802005 3.3965684966868834 0.11480309858552487 0.5296127984425331 0.11506457977702762
Ni 0.45267045301274184 0.4398137751804657 5.122931937562188 0.0784124757716327 -0.8784832152942549 -0.9377581989054881
Ni 2.00454806150822 6.983541443332333 4.453545715141612 -0.544410782687314 -0.9018378308597953 -0.3434065655236731
Ni 6.071797303740452 5.645198071741282 9.094995387407693 0.9085617798471902 0.3408686295931678 -0.5736596522501024
Ni 8.841748138901913 2.481723161710762 10.084590760082227 0.8306455269856855 0.6921867366544338 -0.5017325270924972
Ni 2.434835497614639 5.537838467035206 6.856003527888006 0.4469163505835658 -0.9183785088272958 0.5353299034319684
Ni 0.5717455832901878 0.2543792715485984 9.327205265753209 0.8084386518713432 0.905946196601214 0.39805921987154674
Ni 1.85116806842431 1.235986578396789 11.587188849342725 -2.3473891612295636 0.4975465140356077 -2.5433581299621424
Ni 4.376875802879448 7.2806792336361905 1.2607486695366494 0.04106540258174218 -0.3998993584040791 -0.44693357697474645
Ni 5.346480926708329 8.306894638824117 8.005509023344262 0.8170595607711346 -1.164893308828226 0.453561109593593
Ni 4.754323324696857 3.0328905745104766 5.111762339232436 0.5173946591097863 -0.042958505839396983 -1.653563089199494
Ni 0.9605671979225021 7.491582429887872 6.880574818369842 -0.30578901228121536 0.7894695669680082 -0.3566721722843277
Ni 5.205197147590028 4.663944065633069 6.93875167355266 -0.3011944509319974 0.34296073623550616 -0.2728786347064397
Ni 0.8675395526916019 7.402645587281869 11.254472670309228 0.44491988897882734 -0.48931898391949274 0.053523168729120725
Ni 4.575993178580489 0.19744581586926394 10.36149546433931 0.5988106975944333 1.3434484529597315 -0.06303290799176886
Ni 8.341403083193928 7.161122993565546 4.613096146730695 0.5151973943481514 0.791560902279398 0.1931240430846158
Ni 7.248334413953059 6.3203402661658705 7.063213955423393 0.34522073591427643 1.3681796371578243 -0.9928592536446901
Ni 2.81529566140084 5.445368617029437 2.37223371042493 -1.3038148977285093 -0.04731729702872496 -0.9212434890799167
Ni 2.4206486927070503 5.520219076126811 11.533221476619937 -0.1633270143278413 -0.3605900192814951 -0.46112040999808973
Ni 1.610421458245404 3.231432809472019 3.954065196386489 -1.2086601695015313 0.6696209355387758 -1.4168241376384052
Ni 1.8665873177736774 1.2598777421311256 2.5719344431617452 -1.3628176015149627 -1.2933659344810433 0.007347955724638959
Ni 1.059491405115958 3.4334350180886304 7.951100709387861 -0.2583148779596519 1.1881440518260504 0.7891944589297505
Ni 3.6679828891862925 2.5862983549002267 7.123207525005574 0.32252997918498 0.4348313943945737 0.6073012515639477
Ni 4.134677647024669 6.989320238381564 5.730828311556083 1.1307557437145688 -0.49361709707421436 0.1632809915812543
Ni 0.722793974074614 9.016481373091905 13.30458648513454 -0.35693056815203694 1.3480211599320784 0.42804753870352086
P 0.3082307032016768 5.646357482438362 7.889491268204236 -0.333692937780335 0.3501958205313646 -0.42452718425508823
P 8.458138394875611 1.970413915079987 7.692862517353782 0.23972040278691617 -0.9700124309535036 0.6547543028395885
P 1.9085817209750335 3.422753832926546 10.467211809789681 -1.1443288544133132 -0.1778501476446808 -0.7487029265736073
P 4.4558070224618245 6.395574152422909 3.3509260579378615 0.11454573115908015 0.46346679874307917 0.999065382455402
P 7.185698848656427 4.061479576401089 10.204898334801452 0.4957061183927592 0.31139118895934115 0.48237520561180797
P 6.766165631456791 7.82608610982285 9.989590290822674 -0.6317053914399249 -0.09124279476708157 0.24485566713095247
P 2.657999233757499 8.551448132945406 5.645621667460531 -1.2802031718468405 0.9689166267861636 1.3887309789466147
P 6.980820936342332 4.04895428918538 1.343369006148083 0.5825723813586998 -0.15389723637350916 0.9310252510570287
Ni 5.205872709728485 2.878643305708277 0.6339456848840574 0.5347364928223436 0.07525361842767685 -0.9675161468942112
Ni 1.410683295714431 1.2132456961414455 7.251410960448463 -1.0784152824396394 -0.21716771429738083 -1.8143822495038173
Ni 7.168846312067362 0.8789319039426828 9.084440185455213 -0.3535472535021008 -1.9452943378360625 -2.1181148934766365
Ni 2.6717113193245505 1.6844594169330125 9.133743440657224 0.7172483076087518 0.9105991219921931 1.898701577678188
Ni 6.649010375743094 2.137213858752157 2.6649310490511486 -0.27165941758735795 0.5164731757367814 -0.01982680491794005
Ni 4.735206742022153 6.952155191548362 10.37941246775735 -1.588336515990516 -0.165839753447366 -0.15329894066787791
Ni 8.265950095702795 7.308413798185261 13.596696815037749 0.6683119869193651 0.03308392703816238 -0.4517353692387639
Ni 7.625553705318286 4.10568325037956 7.641955258533842 1.0291812280041759 -0.35270907387152156 0.6208859322269178
Ni 3.160562689460687 8.418307616360932 12.42583899139722 1.300588677481728 0.3680876132101209 -0.3502138182534936
Ni 0.3420791051037787 4.997114879727307 9.994132989742889 -0.4076810592320269 -0.10061677978281382 0.5290163025091148
Ni 8.733411707860503 2.7695674080017976 5.622667161501945 0.3918577190465251 -0.811855647972692 0.48518362159488054
Ni 3.7073663360146947 2.8239319017113798 11.3904797613731 1.0047472633315278 -0.10440067230527826 0.15633875593546623
Ni 1.1459359711841413 3.6033297666923785 12.647158625486455 -0.5076028698303452 -0.5161098788600919 -0.5220519553761396
Ni 2.859499335379311 8.724702433805264 8.011561694936109 0.9933271944200441 -1.2157741548384933 -0.16508410622826408
Ni 6.153302962823432 7.920317898919458 3.6062109479207147 -0.7311065536480829 0.4946421959046191 -0.975505592857591
Ni 3.6131436761361737 8.656552820783933 3.3723441164923615 -0.36337555244643227 -0.45673667910809723 0.24835442431283034
Ni 3.4597271661799143 4.58203672095425 9.419453275759459 0.28981243434730086 -0.6664546219956522 -0.1802425591362573
Ni 7.450345751787758 5.971348517126424 11.504815001619646 0.8657953354139413 0.8453164987342991 -1.5968736069272498
Ni 8.124082046626908 9.349688704058492 2.216557718992076 0.5924649578820635 -1.255551177626115 0.14700590857031456
Ni 5.031742003932251 0.5525313179819497 1.5169081386122618 -0.5346436759982212 -0.06546182914823566 -0.07767714026750494
Ni 6.310316384706068 5.720075918492918 0.15987178006575475 -1.5791083125240288 0.6405168190839678 0.6470055121321051
Ni 8.182116486007565 8.741965785208256 11.420610745670073 -1.1136512228237982 1.1661186965948949 -0.2316898191729558
Ni 0.4785353536975424 5.116269434202112 5.606646296680629 -0.5680829294932732 -0.19031691265312384 -0.3205620568253318
Ni 7.536598604276109 6.114558561261137 2.316770058857643 0.19999660183473297 0.04952947418869535 0.27130537668204885
P 8.752290930864937 1.7967944454966405 3.474961092402111 0.636316150739059 0.05507920036233095 1.086032432665265
P 1.7726111467835117 3.0877571752148567 1.4290695409421554 0.29128361957618865 1.3709394592911486 0.17590742209601318
P 4.909793908722748 1.2726586474532775 8.352361796585864 -0.4818748689366217 -0.16900760965238637 0.29775611467440977
P 8.685830223189749 1.818010748331413 12.156884010250513 0.1061618779707591 -1.2033690963059211 0.9866040167635975
P 6.596407821124351 8.019926797469457 1.2590369411452897 -1.172893296314567 -0.19682231787180943 0.15143334821404889
P 2.029598635939638 3.337587357390578 6.012329577120096 0.06050088559853451 0.765627727353404 -0.14977575800596787
P 6.891911481390591 3.8737828525272002 5.439854569304737 -0.9094081870078854 0.2931782654957402 0.6822509655979606
P 2.492879066213383 8.741317610724062 10.311803304446784 -0.767193529178627 -0.9505550935598402 -0.9294514788120057
