# total energy = -381169.7393388414 ev
CRYSTAL
PRIMVEC
9.24242068723810 0.00000000000000 0.00000000000000
0.00000000000000 9.24242068723810 0.00000000000000
0.00000000000000 0.00000000000000 13.52721691397073
PRIMCOORD
 96 1
Ni 7.69289192827593 5.204887721203017 1.977814264376526 0.028349240566654398 -2.2451073350395014 0.1346872391039616
Ni 9.08715730810603 1.4955253413919891 10.785412375572458 -0.9930150624962639 -1.4757736195894198 -0.16522320290928966
Ni 1.7299870705725269 2.139675854449288 12.404498715515444 0.5682081422172279 0.5982838785566856 -0.02971475345561334
Ni 6.204400069062528 5.552864861838748 8.955233767274896 -1.7869143831008516 -1.086851843242767 -0.9007178583227391
Ni 4.348448046306086 1.6361672577015223 4.665563819868863 2.4611082827222903 -0.261448281382311 -1.5677046986727776
Ni 0.20538137658302727 7.014498246399098 1.4428398462397998 -0.899639794767212 -1.1433042698035407 -1.3263398183039028
Ni 4.998652344944167 0.8767323338605381 10.847258958156203 1.741835231374026 1.463683521194105 0.6245638952991374
Ni 1.8166440073746681 8.021820439778853 2.621209671659856 1.3170841040335899 0.8387938671244329 1.8317333391877548
Ni 2.472855879489859 8.452027397685132 0.46112100677741835 0.7649327581689085 0.4815467961732416 -0.4441403305003254
Ni 2.3308830545946275 0.7753235693248326 4.598184724233734 -1.2219584292723342 -0.8068731071564361 -1.209639245585349
Ni 7.594192117257365 6.225001424878651 7.150257391834851 1.4066587670696291 0.24774455864297332 0.7785457209666526
Ni 6.195065224121171 7.129760475373022 11.105561511620138 -0.9224146265698824 0.0281558936089257 1.329667340015239
Ni 6.812810141141385 4.026007714158443 6.9244336290723245 0.21902379366951313 -0.3709423090500966 0.02431723658912586
Ni 8.16055841741718 8.335036836033947 13.280209761884874 -0.3462545764954295 -0.1207973684957468 0.9170950141291818
Ni 6.111042377228224 8.4092257472659 6.468944953490217 0.26234508216496755 0.978502984923018 0.5266236339072221
Ni 4.9696034165771525 8.711462147688982 1.4155016899506516 -1.315329583236328 0.32942542075323267 -0.21019385408270896
Ni 4.562012662207012 3.8677127742469377 7.531534974375245 -0.5275163209248205 0.279799273085673 1.184751995425366
Ni 8.624953089618586 1.7002172333882588 13.27735570236221 0.2151367999102811 -0.6554024779465486 0.14472713983846688
Ni 8.5552652372841 2.4625228531092285 1.991017062395069 -1.8507787858549802 0.784170780462914 -1.0027302329014989
Ni 8.492453745975721 2.3490351689162363 6.910067210283369 0.03763426541300616 -0.9545415890114141 1.0415508053131222
Ni 7.116885783290536 0.3058843838867991 1.7105844567256054 0.5034533664383458 1.1092857467662507 -0.9341625111344298
Ni 3.6539448250898636 8.06387345411863 5.457501564705164 0.11051064185775808 0.08305408830870212 -1.1420873666773041
Ni 0.3312862530321708 1.1909506085232 3.422021064642887 0.14199919938434252 -0.23447715211010586 0.8365346387766109
Ni 3.057133991032198 6.139351911936518 7.930128232160819 -0.7182952608160275 -1.767910074084207 -0.1785859973694408
P 6.100958896207412 3.1003792776466623 8.913043040866182 0.33465427325233976 -0.20813465756083513 0.42072555112081084
Ni 4.160466450996919 2.118658589700134 2.1690214645218653 1.5664176044302376 -0.5274427873744078 0.2823271817138493
P 0.5728332219474057 5.418766579408899 8.210587640850411 0.23510141595766607 0.558267228954432 0.027162933568037086
Ni 5.896368670839216 3.7998271939555845 4.560173420480942 -1.140841410085345 0.6453903451261853 -0.19715450440024757
P 1.6720001228873056 5.461374138992716 2.2919160845379394 -0.13901980504104444 -0.11953649950545218 -0.2611101813166019
P 7.236316344015501 0.2613728856317743 11.743478011892345 -0.08574397643603943 0.5179302198982821 -1.0940894986417866
P 3.767312357813313 9.074079282767398 3.30053314106253 0.7244252849731654 0.018026004263775406 -0.32090529909736343
Ni 2.8692355775096368 3.730684644444405 3.371090705188087 0.5715289790603447 0.5755360433372089 0.19936282490547602
Ni 6.563662205414494 1.6664177007639591 3.634343499197161 -0.10065020412391053 -1.8036772043814873 1.3195150820725856
Ni 8.810069534500208 3.5923348484769075 11.740920634075241 1.95004367959559 2.4477969103253647 1.9260048934788312
Ni 0.8470438299787294 9.27088738987755 12.38507391985876 1.330873187397882 -0.6748217630134249 -0.7787745491480071
Ni 8.546900846519815 7.901650485395168 10.788294162357325 -0.14557431833011056 0.3133318576254797 0.6402910762264069
Ni 3.4240580941726644 4.554748119510075 9.77616036474344 -0.2856894133178628 -1.3652964020727585 -0.47262275421073435
Ni 3.3411535801885335 5.980631820671247 0.8602604916283734 -2.0043348368389866 0.6459349047757456 -1.0336968564863425
Ni 1.1019645816960866 7.076635040993893 6.67512672370881 0.25705555163125404 0.7673675928626462 -0.291602179257872
Ni 6.81848498747207 7.791841284654314 8.96578491478485 0.6721701843231909 0.6504747016276281 -0.4098716391254425
Ni 1.293328902993904 3.2794049672645675 10.19154063130821 1.925932388369683 -0.13075962191478124 -0.042568983710462166
Ni 1.343515247579615 0.8205716885123585 6.823696788523982 -4.036262752804894 -1.8480598442619207 1.608458483551372
Ni 1.1298212377884131 5.704856470809655 10.547265693245269 -0.5173748616154445 1.2906331089309129 -1.22452953243362
Ni 4.517963284988689 8.641589446939816 12.528705759275748 0.0900793705865997 -2.31864937009271 -0.114561414888364
Ni 7.449076869312567 1.0558911143370129 8.801835461868272 0.01956583794706953 0.8765111791695485 0.5447542820696618
Ni 8.11997494797411 2.85327391690199 4.785956516592238 0.6049674612244484 1.0493736437916508 -0.738268875724477
Ni 3.273572999781403 1.3152981370786618 6.583209925266939 3.0282432464799975 0.7396549574387261 1.4266979451086914
Ni 3.8868907972700226 8.31373305624204 10.059122620967804 0.1238184147102577 -0.9808419174688398 -0.5076321804063838
Ni 6.0476855830965395 8.520088583970432 3.728682736113417 -1.6508364342969506 1.3895766147763615 0.8739202785139207
Ni 3.782294321823154 1.2591042190158397 13.48240157907259 0.10140713689459309 1.6528640062499405 -0.8418362534951825
Ni 8.160780235514796 8.096277381212092 3.0688653956698855 1.2035984387079077 1.2063988842711806 -0.7518851809563308
Ni 7.75973311502434 7.225511954177436 5.106186061700305 1.0601365387351096 2.108955852685187 2.513132241198065
Ni 0.5453203839063846 3.814023552203034 3.3564544077136986 0.12120463123649447 0.1193459807612009 -0.06971289111510576
Ni 1.1857193983877465 2.6073700708527396 5.445894932747385 -0.1205446290549924 1.219373185043661 -0.6129628207250992
Ni 3.5837578820357403 5.975539246846805 11.461814315781108 0.23212767804132278 1.455133831851881 1.7586993541192162
Ni 5.557994405346128 1.6220263539784765 6.819610714317474 1.781704556765138 1.201521244463905 -0.6273340018451067
P 5.159415011191654 6.61765642734262 13.49258765096355 0.8689459652277809 0.4946573654132707 -0.7548887436693451
Ni 3.384297200174924 3.4336794541567754 5.6337887250595795 -0.014143124269601449 1.7649445636979797 0.08644537337843823
P 4.768211068782926 7.28187223581347 8.29084512553632 1.5118927339094799 0.31363293380566626 -0.7106788819213502
Ni 2.0346634700693897 6.47665405662446 4.422628639359378 1.3256605328486912 -0.545216566418061 0.1917922116470697
P 4.116805255449424 5.343875244201161 4.496934005092579 -0.5079008606867382 -0.8017771806907675 -0.12425318825483116
P 6.323904569153365 2.896426779309114 2.0973677492972533 -0.2939961334113453 1.8298091255818487 -2.242965863216466
P 2.3577045595647443 7.8049008251514795 11.30150267966544 -1.8607286979788404 0.1391432179927862 1.1515392561188231
Ni 0.10855962545761429 4.3145930591573824 0.5233992104094436 2.1951597994767806 0.42771663772666335 0.48008358136415386
Ni 3.422579306855221 1.9196969985589551 8.866752376619859 1.0489728088088064 0.4839453783124052 0.8174603957539792
Ni 0.6445248310970272 7.752847511577497 8.863168165859209 1.8468023177057358 -1.5053168804641752 1.5548214149522062
Ni 9.112573965124577 6.090293142680357 3.5899613948324123 0.44841324684406647 -0.6405836677661614 0.7451640601824134
Ni 8.29399124555418 3.5759665213569636 9.415767880335704 0.028598123352666874 -0.03874138243425586 -2.698430103370043
Ni 1.7776132646149152 0.541250946057197 9.67530152424141 -0.32860549595509864 -0.9970691779609796 0.3499860185134037
Ni 5.230202711593489 0.3306577684222577 8.655619441614053 -0.5691152274125295 -0.7931287609871502 -1.1081266934611431
Ni 4.218823095511501 6.832468770042638 2.9845236852616153 -0.6152241059554501 0.862425904721076 -0.21578317524502838
Ni 6.17679295833002 1.5035477625891156 13.207568956125868 -0.46836989247165145 -0.5015319810459169 0.25140683798590896
Ni 7.855965199706922 5.938902291057161 12.789104493762158 -0.02460468592255763 -0.008505466367849868 0.7039988987980134
Ni 6.372011369073922 6.323562599586206 3.757739058417019 -1.1894298605170095 -2.955795472932232 -1.1360853834575981
Ni 0.588303185772003 5.071075953815922 5.715735724255667 -0.8520710438493133 -1.5627617528452054 0.659405942678987
Ni 1.7328614634208057 4.444541494677659 12.316152264203126 1.1881543362386957 0.5716241098773124 0.8036142338995064
Ni 1.0170267351504723 6.982001895098295 12.835543036740225 -0.2363183190839027 -1.9342985009461913 -1.5028036271240184
Ni 0.4982801593385328 8.539349788780124 4.741222275997524 0.028126068812254785 -0.6088806802359255 1.5487497548368294
Ni 2.0283139270251205 1.5470610794048667 1.355102470453852 -1.76797229478071 -1.1085717514183617 0.7150423010963686
Ni 2.113436621985415 3.694463597587793 7.981909818565222 -1.0016560260007137 0.2560512787364558 -1.688650934041563
Ni 5.426012637264368 4.535699490377266 10.994665402200965 0.5876698504862653 -0.33527570888642255 0.2587100565155415
Ni 7.811878852805662 5.469008378519014 10.5210227638131 0.761998872351565 0.915511728802462 0.6837586604917385
Ni 7.006327946470227 2.7465147150033618 11.13003174475552 -3.3301702047026454 -1.9163475728947252 -0.2792246315291256
Ni 6.7422535012579 7.065960045046104 1.462467975152631 -1.0129030596694426 0.8304943461198019 -1.3490506296378573
Ni 2.6450514201853257 3.660035580353581 0.9749617056637419 -0.17558526286990403 0.9734170857596784 -0.4790188875450654
Ni 2.9844053822762198 8.43697149430942 7.648193733122078 -0.16415722353862053 0.9596655405015407 0.9442471490639415
Ni 4.856245126274436 3.6899348114281247 13.246864956360687 -0.8002509738542283 -0.6056765714763311 -1.1630958506081712
Ni 5.007284765909739 4.741426533495746 1.7355556290647718 1.597529238233378 -0.5906153062678345 1.587866518332633
P 0.49363122170932233 1.977388188780688 8.59876469046875 0.3076191235114186 -0.6263870645508051 0.357268668217746
Ni 5.22620074341566 6.309181392924076 6.02736242414451 0.2731097768806393 -1.1097608866304565 1.05856122382819
P 7.640311796720108 5.09488442962675 5.131874445888431 0.38479027067678245 -0.7894618536585242 0.0758053771660888
Ni 7.289987081217937 3.6406727089158153 13.669117886983273 -1.951319718094536 0.21888161166469403 -0.05004935124790735
P 3.7034287456997896 2.5028382923510097 11.25826940819793 -0.8556471912363456 1.284575075662291 0.5028447863200695
P 0.4047061948590533 0.09721178128038847 1.5169557423479536 -1.1883548822852759 -0.28138538662587026 -0.9845743879280784
P 7.548682437563066 0.7473689435727254 5.594505664213789 -0.22815506654681994 -0.6322208976237628 0.18964945427245403
Ni 8.618317031531562 8.690990185763136 7.500152334772891 -1.8711097841028483 0.9916179250384212 -2.6440317311248207
