# total energy = -340895.8152339725 ev
CRYSTAL
PRIMVEC
9.01492420285897 0.00000000000000 0.00000000000000

0.00000000000000 9.01492420285897 0.00000000000000

0.00000000000000 0.00000000000000 13.19425281339286

PRIMCOORD
 96 1
Ni 6.554120397167173 1.9082791709727898 11.46457849865161 -1.0696239094002546 0.13994745906163641 -0.016101019326920655
Ni 4.584909353005584 0.49410709813445536 5.904797938799626 -0.05512188067480829 -0.6507798915728729 -0.19152584535956046
Ni 2.698473343556165 1.6041967601825253 4.6815980218470035 -0.030590214082031185 -0.5272304142532855 0.24900671318484854
Ni 3.5102131851617675 4.402176837909125 5.075565538126773 -0.1252533473845714 -0.2140376533088314 -1.1112816941503572
Ni 5.348202991546146 4.574965891527963 2.728967226415824 -0.06942904132609978 -0.5278022275963555 -0.1452102501224725
Ni 7.304459589521567 6.230998466303711 2.749392340350409 0.615411796486224 -0.45281574678713626 -0.2831633044618994
Ni 5.167985640322993 4.569647086204483 11.632330012584415 0.012692250755687818 -0.84754590228545 -0.1736260822610042
Ni 5.47734178181535 7.794447768753825 12.253991077300164 -0.013454325732692958 0.2541797727453558 1.0992895547854873
Ni 1.851304849541629 6.340439647027491 0.41246433791148684 0.42802131345127575 0.6096008462314018 -0.4376662927402076
Ni 2.7250763850978355 1.4698834033782755 0.4826500308707114 0.3429386247483191 0.2745079427797466 -0.6031028972118839
Ni 0.2995379874621872 8.888102322352346 4.461913332138783 1.541352948152126 0.28019393742093035 0.49487205252723804
Ni 8.589744388478028 2.0895512683363613 1.3352977958608578 -0.22464216829755507 1.3487626660837935 -0.7135366630851195
Ni 6.999674014637691 0.6574052394743803 4.859628352440536 -1.8736122388097283 -0.05849028292640895 -0.5730027353923938
Ni 0.7186138708384863 7.182289335718548 2.474779717021927 -0.1780643205380159 0.6553176315422262 0.2649156711056212
Ni 7.648396980540814 3.8592710531703953 3.829619164238216 0.08640140751438022 0.19427666863182025 -0.7765443742659078
Ni 7.712889748819061 3.9072214354001966 12.534249747703383 0.19762655894065964 0.04315596656218374 -0.472074080796116
Ni 8.094365284528077 8.801964720884824 6.799064904699778 -1.4183919963461573 0.6853082643670456 0.8281340734177415
Ni 6.96995180929615 0.4587577770591601 0.30757749693248926 -0.37221191979113966 0.03916098647017772 -0.15102248592887538
Ni 1.7847476636039303 6.58419418455552 9.155466045069625 1.352813439114399 0.03734244520420021 0.051291965405756826
Ni 9.079110537935167 4.856817499050942 1.4147012488933992 -0.5575357501050462 -0.9111015155499084 -0.45189220653160245
Ni 6.214122528057013 2.122978607555783 6.959467452361904 0.7919121149712298 -0.37449660206025825 0.6662139667397559
Ni 3.6370171100432076 4.317373445234612 0.6538416399076497 0.04759137662571804 -0.43082921521371603 -0.5073755843108876
Ni 5.959432887380882 5.661345401234878 4.815902363726976 -0.4780806920015122 0.21885718618466177 -0.4968422888797314
Ni 5.051404639571764 2.777786647345936 9.448562869135838 0.802290115771444 -0.34311757352834454 -0.03208608190126732
P 0.2530840826623819 5.564777532378772 12.168888389139651 -0.871629425597215 0.5134143343057996 2.814970753471965
P 3.967504234041046 6.0741928734281405 12.646070868436311 -0.22489516484862557 0.8266029814851958 0.0857401197812975
P 2.206114239239036 8.402567515712969 1.2198842278035111 1.0749221816847165 0.006970003559929931 1.2433656913035167
P 6.240121569672119 7.8527743288265475 5.785574663742784 0.457657905370786 -0.8809072513547151 -0.2118051644338868
P 4.69396289198545 0.9924259688911636 12.482554565928881 -0.18271004684014341 -0.8856959309926101 0.15632255798555011
P 4.057383029083557 6.194433933435866 8.23711931493296 -0.6543820071018344 0.4454094270207361 -0.314084162410472
P 4.611007558787738 1.0396190974816895 3.54827780142932 -0.911176848872534 -0.24680584887878787 1.0741156266230212
P 0.3622286723774455 5.369424123294398 3.6560088510177366 -0.6856977864959803 1.4232629512852133 0.3145433614350776
Ni 1.425710274420572 1.2234965079613382 2.509230250146797 0.12267838756854356 -1.030566795497793 0.38560582459954235
Ni 1.9118490809865143 6.484218674322677 4.993378276477468 0.3505812288952414 -0.19927926405273422 -1.5067533558003856
Ni 5.901944715265929 5.535190550901388 9.229195504762172 0.2916613146305816 0.4469096657153465 -0.2541869718342074
Ni 8.485135207166765 2.4824036384830555 10.107813463609736 1.3978208570630248 -0.3566765431597019 0.12964042070867351
Ni 2.4594065666522185 5.245739362212829 7.093467991293739 -0.6221087488904253 -0.2835299437726988 0.3625684831641046
Ni 0.3530424645390986 0.0459833257525416 9.035609020836105 0.16828410122280052 0.02617331596125815 0.6106519132037355
Ni 1.4267740354852676 1.1164442821709852 11.305205455341927 -0.052423507907038744 0.6186020212887475 -0.5894832495459202
Ni 4.323593742985798 6.636273402104225 1.7210455041847834 -1.1382204275227301 0.7188891856462846 -0.3326683531705626
Ni 5.587513171405574 7.974205358838846 7.89141680174026 -0.3761914732641779 0.5369808087718301 0.6268758312617655
Ni 5.322925143873207 2.814711777184865 4.745656270775094 -0.4132585533198044 0.2025743898642382 0.08056834577237093
Ni 0.7897416233846658 7.351860061370467 6.866117911472716 0.1829473596619301 0.23562746366446513 0.23905217307529794
Ni 5.033906671549948 4.562588400495528 6.994919543573958 0.4334201158693438 -0.4057267637191336 0.39612343630141456
Ni 8.174994767262302 7.038339024862097 9.145556840304257 -1.210207202273677 0.6762775216233451 0.5442416040993013
Ni 4.752532855013653 0.36771876126218866 10.413564536883689 -0.8869267180759177 -0.04062985770622035 -0.8278684784611806
Ni 8.16761154427937 6.925995038521097 5.005833295858685 0.37703942308677 -0.17998030661380618 -1.0850512996989183
Ni 7.115074060308623 6.044425593465215 6.911769488011862 0.44510423707549146 -0.22171111069368912 1.154446145352973
Ni 2.3133647933634847 5.252743958376121 2.5294705581337023 0.419326099670123 -0.07097838809109067 0.9356897464122338
Ni 2.2443645629466964 5.478008886211854 11.34676696073656 0.558915146951076 -1.3315635285966874 0.2694642097082521
Ni 1.1442823683386154 3.350387592653375 3.6175737213623966 -0.4551577646567516 -0.2824498233346426 1.0923930847759702
Ni 3.6519097649489476 2.879754455844014 2.676665340237475 -0.1163627297631609 -0.5628875013352628 0.20573119032566506
Ni 1.0892192108541967 3.4569710423813187 8.204384321898017 -0.22975146449966238 -0.0630853584962591 -0.3170239617650863
Ni 3.513341363885915 2.7025571042536836 7.22092459669284 -0.289776696013359 0.6723090238939002 -0.5940924661831575
Ni 4.206336622913788 6.818897738109359 6.134021319885425 -0.0941154883291863 0.6106971646193741 -0.7440160626208993
Ni 0.794811616798097 7.429135992273617 11.233969523704422 -0.2839176661294207 0.5718205421588346 0.23541457632271068
P 0.26399304253007927 5.69934330706278 8.002406746454843 -0.7278181127047981 -2.797572355489859 -0.9814435556085805
P 8.436634914556063 1.7511129811261361 7.9883551839841545 -0.9210108042438202 -0.2629965997060374 -0.28676541999086097
P 1.8562089683483622 3.321864372240686 10.281753723058758 0.13995825769491382 0.06913002202844223 0.2577644047728206
P 3.911332240870546 6.243159599153496 3.8283516658848584 0.1645799128983359 -0.6243708054517246 0.5516533231823402
P 6.805249142753856 3.8397717719590667 10.327313347370277 -0.08479549647984107 0.7830078705030644 0.2270759745500283
P 6.137928388067113 7.67216933585948 10.03349082189976 0.8937059457812802 -0.3400836717980272 0.8250058122014049
P 2.2322845644154063 8.587986478243996 5.648829080368577 0.23649623942266365 0.3008018434792691 -0.7242622770327398
P 6.981995748130332 3.744691365608679 1.404014056162918 0.20054964612472556 0.8467025804485482 1.1355562504270056
Ni 5.4489628001910955 2.5058153968306387 0.5563407263888656 -1.009058746222688 1.0107988688422462 -0.2743215378005534
Ni 1.280290530906957 1.0531955734429757 7.062672108470798 0.5130440954505745 1.4553168943969645 -1.195222813049703
Ni 6.949406796868679 0.6309004606073305 9.371877415772838 -0.44340422366524923 0.40476774223997386 -1.71685387883834
Ni 2.7166654607473175 1.5625027354010195 9.292092631443376 0.19784715959189797 -0.04639067144939752 -0.7674318704416784
Ni 6.343297378023326 1.9309336756810975 2.7001906866309495 0.7848516085800225 0.07872563613667732 -0.6148633801819217
Ni 3.991691275876458 6.817608603937736 10.501160753099242 0.7091639879387206 0.729057384428538 -1.000490802048019
Ni 8.151150292549419 7.119509403052946 0.3384707409376227 0.4242716166008564 -0.24406119625411515 -0.16591971475568199
Ni 7.576223496778492 3.886442034941522 8.209002667605168 0.2172350772002065 0.14020714048092628 -0.5999183288363152
Ni 2.965702743901717 8.387539636943071 12.159876169339851 0.3055588985482802 -0.26496863583074365 0.7328862712563249
Ni 0.052208130965866954 4.930379281151934 10.214845856566681 -0.3840042844403774 -1.0495970726563666 -1.5679792924904028
Ni 8.52948863461001 2.211793641533598 5.6445677256628 0.8470640775530249 1.1412486728260927 0.953643759787493
Ni 3.5416301962673993 2.7026472534964543 11.703988744170513 0.1950048050470964 0.3814272677418205 -0.659405942678987
Ni 1.2126425391317308 3.365649859454475 12.39367823046598 -0.5862302898262615 0.3410799742730255 0.8979228120761052
Ni 2.849446280424463 8.416775036373648 7.70693448984162 1.552211488133185 -0.27542196995358376 1.137668668784318
Ni 5.735132556442798 8.008416996470373 3.5044201948213143 -1.149095679674337 0.021065562421047592 0.7419234417579288
Ni 2.893348961653854 8.327211763680836 3.4691123423976937 0.5833869068401953 0.061790808054551644 -0.25843314870507106
Ni 3.5826841614252323 4.5200469728319765 9.530539181557058 -0.8521517764885777 -0.1281782343408502 -0.34907096289830203
Ni 7.115074060308623 6.152496505698878 11.338243349832577 0.49910126011723727 -0.5656714918383032 0.31051187167818134
Ni 0.5921002265187681 0.058514070497686047 0.05464216052067919 -0.7762978054727404 -0.5906171060400474 0.5178839400413792
Ni 4.658353941090974 0.18831545770125613 1.505015464778493 -0.4568495505368777 -0.08081594300680275 -0.5308939791478018
Ni 6.097253049728918 5.584384992681426 0.5501159211755402 0.20170612832667198 -0.22467353575612276 -0.960443813428462
Ni 7.8274694363807775 8.606467073012016 11.337425696200647 -0.2667357550334955 0.5225813455170485 0.2027440826728831
Ni 9.275094991718937 4.6892210418157045 5.855662094027388 -0.846968175405109 0.3205479157579447 0.293447717107043
Ni 7.934701960656671 8.851303401453295 2.4794377283958955 -0.05577314110556201 -0.5904052471395573 -0.5022128091630255
P 8.378723041000086 1.6881797947478243 3.532642316763148 1.2487323549320688 -0.011107165656755064 -0.21066153774774685
P 1.7937806177295668 3.2622216332235094 1.495660677856165 0.2752581906822098 -0.2563680386459262 -0.6098006209470337
P 4.6088980665069 1.1031112091651805 8.120614039545657 0.35126334256393055 -1.1509985531240048 0.2509540667192065
P 8.565304928762858 1.7099959114983636 12.260759482447398 -0.448954206949201 -0.37522550980648284 0.30759649780359927
P 6.262081925211091 7.637867548985181 1.3790895935216407 0.9500956374249186 0.1930839338752997 -0.26924926548396855
P 1.7815113057884577 3.1569633773642956 5.940408692678956 0.27738269322438036 -0.22046515410172995 0.19984079298315907
P 6.913897010141253 3.930732357914827 5.86888248047973 -0.0835971052963657 0.6726679498952157 1.0695434338713063
P 2.2505848606978835 8.565800749598099 9.947160301052707 0.9897872995875856 -0.306432302292169 0.9338604065129789
