# total energy = -340863.09624628426 ev
CRYSTAL
PRIMVEC
9.35047623255167 0.00000000000000 0.00000000000000
0.00000000000000 9.35047623255167 0.00000000000000
0.00000000000000 0.00000000000000 13.68536712696527
PRIMCOORD
 96 1
Ni 8.672183189186946 4.16340232721939 6.738716057827193 -1.6637130331493024 1.3366913367415558 0.012864514667493974
Ni 1.9969905256165987 6.596115687411881 5.896942254401274 -0.041656242088205675 1.0253893650619115 -0.1962412485573588
Ni 7.893812158876519 1.2129998591856521 4.906888601392652 1.5605727156136864 -1.5640935842827515 -1.38187153282262
Ni 7.102453317299199 6.202413892312888 4.621480279993184 2.7034308990187443 0.7516751218280537 -0.3955331110155833
Ni 1.533478076148551 4.157193611106203 6.521885063002609 1.5186043416017008 0.060771879871734054 0.7691236563218043
Ni 3.4046392452363015 7.956993325709052 2.1997312880451556 -0.5261636635516681 0.5486402473876293 -0.27787377392818596
Ni 3.1097252298599276 5.0933071727863 1.9555566960371507 -0.2106052305885147 1.612592046103771 1.2285571655357745
Ni 6.435801775121838 2.639798353805064 0.6309093473842028 0.40958521823327526 -0.5819653439023202 0.26845787993092474
Ni 1.9386716063425833 0.1136391408710743 6.85617767331735 -0.5963072144462892 -0.016140614315604464 0.5125036495660723
Ni 2.318628201612683 0.39006539495378395 3.9850560218204913 -0.5040663174319964 -0.9261915771138113 0.8770462257374121
Ni 1.9174366751783556 4.3441096278269935 4.113192140796814 -1.834892967862659 -0.2689672154671755 -1.3776060726780468
Ni 3.523408992329222 4.882453937315875 5.46906914448957 3.3634446504850595 0.4110201509075889 0.6476948248896458
Ni 1.9720808573552588 1.9684248212102948 13.526917640181221 -2.0647061388381927 -2.0504498860294946 -2.039063241459108
Ni 3.4391518524257183 3.228607182665737 0.921308017864405 1.5224468552762425 -1.0923113236954414 0.3572221312505267
Ni 0.3260323997509005 5.880916473457916 9.908410565988211 0.7238105342073019 -0.13807466751895575 0.346025748314075
Ni 7.996770250928175 4.735847822950429 0.929829106710711 0.18372023327221262 0.03503822255105578 1.0636736053540907
Ni 2.993293101785527 7.696217898479133 7.797169378365293 1.475776704913213 -0.7288784356485125 1.3721429926809463
Ni 6.6705454769615296 2.0848943511889924 11.929616019493844 0.5271486531727567 -0.7466452727136303 -0.8898063536165579
Ni 6.961055418107014 8.632733530630416 11.32416240817371 0.6191275547749143 0.4111687606703112 -1.3640818129393668
Ni 1.3479739813149467 0.40269321289182425 11.401785385302654 0.7350328852856824 0.805836952582438 1.5324677298473544
Ni 4.574150040201424 0.22065346944366537 5.816116739216957 -1.5741756511091018 0.17831834553035095 -2.2943660720653134
Ni 8.208268669247712 2.459857792235535 7.975284727005162 0.40465615636277397 -1.1123602719265164 1.0492229771463994
Ni 7.86331090592288 9.131693634895287 8.857045841361867 1.088707922614899 -1.775200437098033 -2.0226652597170585
Ni 0.2205833408731098 8.164031566941254 10.264709521743288 -0.7045084914445803 0.14304332437814074 0.4966728531814027
P 1.587486425952417 6.765041388166147 1.7528215438942383 -1.3758698067132304 -0.17311314718032766 1.4508056367901725
P 6.983720972110575 8.697008703163618 5.10079596907403 0.6227708079544564 -0.8496089554620658 0.12136455385312646
P 0.36558491354424416 3.8556594586693835 2.5963195751082155 -1.3217087472897946 -0.07041094562339487 -1.26884532363186
P 9.492977329445456 3.731849804972536 9.59555018188286 -0.2772942472756321 -1.3170051711665383 -0.16224020902156572
P 1.8571822073570063 0.2703540549202043 9.295799165233367 -1.0966441467428403 -0.8368557695614556 -0.5971963019194618
P 7.225729993859823 6.539489204307273 2.316863766777505 -1.5358708419916325 -2.5447724938111658 -1.226762792639513
P 3.508523034419292 7.733732008488328 4.303623936521456 -0.3314223965786034 0.20488761137844713 1.918912248298108
P 5.197798742914106 1.70855639015956 7.289442267733367 0.002915888095214333 1.8175447063921988 -1.5786730247588232
Ni 4.890934819115063 6.407600739282424 3.2403251992817697 1.0009158054005796 -1.1046284504998978 -0.05851008042075085
Ni 1.5103169469130633 2.0216477310239385 2.1545834493690843 0.48026972923303096 -0.2591304318824118 1.0900914332259872
Ni 6.0792681224173 3.818266904849151 8.124030230296357 -0.025584019116691427 -2.169722076129966 -0.2887477405282124
Ni 7.970813329346538 5.416618583999646 8.446020419240433 -0.47823495819118933 0.9256804418053477 -0.556045538712765
Ni 3.65192193549133 3.7105494204757896 7.927850696928979 -0.23227551647309672 0.0004823389530572338 -0.43663425193126737
Ni 8.840370202331359 7.197173639929594 0.5023421714608652 0.9887958822085938 0.06992269313306669 1.5545519633409033
Ni 2.5052263021469545 6.3182288889664004 13.686872494190018 0.2144706270811919 -1.0726066461776624 -2.1900487035024607
Ni 1.5471858740731472 2.4667771445303517 8.308851740376554 -0.7158097753900123 -0.560624159222383 0.3125142468201908
Ni 8.422703137054508 1.3825707427890297 10.121081534007436 1.623766574663352 1.4829143443992592 2.523587117982802
Ni 5.822728460848937 7.948512443909865 1.208217090673762 0.017342605043505616 -0.5266930536925768 -0.14141221653262098
Ni 9.33955471802201 8.103178668651166 4.909557227264193 -0.4233185086589677 0.08981017608561308 0.5378493274197124
Ni 0.6013861542279135 7.510386536982935 8.02800084101559 -0.23932496712071039 -0.116175039232387 -0.8567129134966988
Ni 5.49812668393737 8.82036953400891 3.4482199441223575 -0.5303905571488221 0.00867618761775925 0.9738595726137357
Ni 4.94249334418752 3.5828125668278297 12.778560703020972 -0.270931795392714 0.9591775451215286 -1.5417782086150027
Ni 9.153573748908627 2.4866936585681345 0.6377847524414713 -1.8789210526171511 -0.8143912699103523 0.1419279798267749
Ni 5.806009809628488 5.354391165726665 0.3373988384665479 -0.18566655836530604 1.6873291299063458 -0.34505052888499926
Ni 2.4890406280627277 3.8103564020904823 12.587102225023395 1.6854717649826327 1.325504466886801 -2.917348224699627
Ni 4.864370116588611 4.366485317072258 10.04525104314189 -1.0407830739091624 -1.3010005682081658 0.2531094224993125
Ni 6.174138052664881 6.071740989177669 10.895153215419002 -1.4997306446256493 0.9569067468094811 -0.43531116224446964
Ni 7.799026382913604 6.424487699072206 12.356709299700972 0.9572283918149579 -0.9238716707313831 0.036785030038833426
Ni 2.6424538890101013 2.2305934693752523 10.620885051214191 -0.08303017704930217 -0.9415081528662237 0.710196542968293
Ni 7.346781257114818 3.9859489922855658 10.056363148908323 0.3404989049585749 -1.3107825872955943 2.5495727434132864
Ni 5.419218016348238 1.7897372234346922 4.2576822424266965 0.8846849732295925 0.6112383818348246 -0.5645245227180535
Ni 1.1466301800118568 8.852076998376104 1.6394526317817049 -0.36261527724164 0.955745379511528 -0.07580974804146298
P 8.95195878379939 0.8317211065986778 6.763732321515777 0.662409248281685 -0.9094686079321755 1.0599375353504261
P 2.441643064843234 5.579625433399021 8.258284365767947 -0.4783586282532472 0.1062984035486234 -0.7712694990202137
P 3.7227985441328295 3.4228165707243066 3.4005671129060415 0.5974575260006485 1.3668588614638717 1.2897501921053272
P -0.053911104852695645 0.7866985643019992 3.1086443148257645 0.7520083367977565 0.18645048771918213 0.15415254691742483
P 7.20101668559604 7.186214881970777 9.322745367183641 0.7604086450463098 0.2815237119759474 1.086719945650593
P 8.675278196767463 0.3610387120770282 12.20450038007194 -0.054159259651222855 0.9242069425836148 0.12680372259082676
P 0.20283333214169033 5.549292489014717 5.377445699534909 -0.3477303897100076 1.26767778568632 -0.8057310231321931
P 6.348842347632927 4.961661820139377 6.436159898355476 0.5200282400778915 1.2651727598762792 -1.7758527259700512
Ni 4.360108292389738 1.2741239212818902 12.735889805456923 -0.17292339976702475 -0.4070660513558473 0.24950653563940253
Ni 6.3693666426155255 1.3232980749554588 9.065802700096485 -2.273270941957911 1.930768890526378 1.0128009868739396
Ni 3.613248366448949 8.323232772578484 13.578415387159197 0.9091397638378471 -0.5390531179198266 -2.2383399344086805
Ni 2.2605336937644456 4.3423984907054365 10.150655219734526 0.03380280748205791 1.5753154211404998 -0.4781537113312927
Ni 7.632120384991338 0.2030399776629274 0.5555043031800274 1.0300407477909939 0.09358764085017432 -1.3002595762770832
Ni 7.956600605713941 8.375773097638719 2.814286652775799 0.4494236903864518 1.4642028840326846 0.45199222244457643
Ni 7.540326761372128 2.532548393235406 2.7987396162074316 0.35690382867915954 -0.07605760238621095 -0.009044112480139263
Ni 5.453281800686099 4.085064038670777 2.239597042786981 -0.3083614009940818 -0.38382584988098406 -0.8573423195505816
Ni 7.2423177384152355 7.662649689373199 7.22962353209707 0.6888828690921813 -0.8938812950168799 -1.8008351069470017
Ni 2.3380397899424663 7.0651542682397075 11.308341402656371 3.34630413415003 1.4938243064435435 -1.9916179034929506
Ni 0.1792364707211508 2.7875826281558433 11.790408936845816 -0.09460039838540482 0.39184563486166707 0.19469164468205177
Ni 5.351847836234517 6.118268958122274 7.973026587033273 -0.4006349510185229 -0.0543430935272548 -0.2827570701624163
Ni 0.9152302084162552 4.401867518536564 0.19593642098945147 -0.7981868922363479 1.6936643280957542 1.433609841737176
Ni 3.9111077817886573 1.5274470190807716 2.6443136987012354 0.6738308598550653 -1.5697361272805095 -0.670568901274342
Ni 3.753271745658245 1.055397584957092 8.80920226043364 -0.024020274173997342 1.074143394537163 -1.5786318871082425
Ni 9.204094371136863 5.97219582089305 3.2254083848007955 0.7399285228150869 0.02776302904588122 -0.5855844287121463
Ni 3.924198448292364 9.127177354951508 10.708813188024376 0.0605322530571022 -1.692110610455389 0.9125619021455186
Ni 6.766472011005481 2.819065681097259 5.748155609015354 -0.1258722119154929 0.7550995741285705 3.0861658298283943
Ni 5.940834324140598 4.334375782233879 4.353862174372255 -1.3864478393393929 -0.3383314649936109 0.4892912160053509
Ni 5.223671510211076 8.91094759573849 7.74390626150453 0.9106415451943544 -2.304348380089005 2.3782069179413687
Ni 3.454692343660833 2.38396932841833 5.607017653058028 0.23071691373672523 0.3925956256538142 0.08016622523794581
Ni 9.044322786459116 3.3314437185284307 4.714663384357001 -0.36759473273410237 0.6556145939573548 -2.248708165016882
Ni 1.1619930122015645 1.8941913916582014 5.691921845905858 -0.38904261819523317 0.2858092267251787 -0.5339325088638095
Ni 5.490477994508776 7.359460502671267 5.619896063754854 -2.776154294825399 -0.6680746740975784 0.6734284822103241
P 3.8069528287995187 5.328518398429696 11.730809002349652 0.18672893819154937 0.14637033186884468 0.16605752588512693
P 3.086386441579033 0.6412584543029907 0.9396031593509431 -0.4730369589300177 -0.15059645413505035 0.5337070231165647
P 6.129657837980499 0.819321440276845 1.9202212469532156 -0.04512157492898681 1.1312146856288583 0.34294556672685456
P 7.344050918101188 4.101997750840929 12.580766342435602 -0.21370752366292228 0.2572360430731764 0.01835921923347806
P 0.7338599590550002 6.349365974293075 12.07075397545117 -3.8548261733605353 -1.3490454874315345 2.2661032205648777
P 4.535354914970081 7.2733800199333185 9.524714715336087 -1.0837004420979788 1.3930149510339493 1.0221623734841816
P 4.739756321949393 1.8090553070037345 10.619748968371189 1.3629165889866721 1.1714498789998211 0.8928145443152624
P 5.629893592773256 7.965764072266536 12.729525871440908 -0.6333295573069093 -0.5175977762595279 0.7786508790859493
