# total energy = -381162.14496827713 ev
CRYSTAL
PRIMVEC
9.27575464570124 0.00000000000000 0.00000000000000
0.00000000000000 9.27575464570124 0.00000000000000
0.00000000000000 0.00000000000000 13.57600453163999
PRIMCOORD
 96 1
Ni 7.30569568299369 4.473594441495742 1.1998541137499543 0.9696427063189107 -0.40182948554725634 -0.4719326701222453
Ni 2.73595804439807 4.074987436288497 1.6799356376302803 0.24650965779460768 -1.6525498174436315 -0.19332638890340897
Ni 2.8781182603896514 2.7141229179173063 3.9752851321237634 0.386554818776373 1.1365661797487585 -1.0384117454635085
Ni 1.3122039094000415 1.822147797847984 11.847616260925264 -1.498913805151309 -0.5453188963238802 -1.0138384269995184
Ni 4.322640810082 5.163812621852622 5.962431909098816 -0.4137720026211132 -1.467342458102931 1.7593231037461445
Ni 8.834024676081832 0.9694647745384383 3.4896307348408704 -0.4633176747597246 0.019733988093817625 1.3960624796110215
Ni 4.2803340930561875 1.0052877390536077 13.49541697409507 0.8318110080486965 0.7343721117732319 0.3072221451833161
Ni 8.446307406850977 2.57803832123112 1.6828547176232695 0.45705421034851607 -1.5418280880163318 -0.5233897003509567
Ni 8.430974584390185 2.581730071587681 5.808941358784272 1.3298293195144 -1.1227125616951181 -0.3794603738234368
Ni 1.9677122158015194 7.674286346105883 7.864824260551339 1.331503107672397 0.9670574620902377 0.8859309298215516
Ni 1.0561745291442912 4.332204113141333 12.110203599728974 0.2847139367784709 -0.24762577367692193 -4.063755558908524
Ni 2.810850487561063 8.521589431709888 12.402250735347854 -0.25935231808523074 0.9874229131204671 0.5934594605848489
Ni 1.9615160116854828 0.8053238027178574 0.6992620411549878 -1.362092807533796 2.4882946133290953 -0.6917401360353184
Ni 4.959671813191345 1.047974762020674 3.6484019722860417 -0.6396819818874984 1.57533598996579 -0.5108311469596557
Ni 2.948484135276258 2.1129890853604487 9.546551046407377 -0.03341559934596826 2.5772763799761416 1.2110183853210628
Ni 0.5109920487250568 8.41559538315607 11.736361004325616 1.9990771879844735 0.46040307221609095 -0.0010549236270756025
Ni 5.034165398903755 3.149192914711586 10.770075030910778 -0.048623160324342066 -1.6296569720058578 -0.5659381152361286
Ni 0.9137879847388908 7.964960670034381 0.8025262351109762 -0.1186191298975054 -1.9430821606760922 -1.7689891660809987
Ni 7.873557383568178 8.440036996697621 12.84869744523842 -0.21108499843841064 1.1068241725996357 1.1560721109921703
Ni 0.39942327161773983 5.645224288951869 9.006267092026585 1.4864526965698206 0.14622429320928365 0.34448822862362605
Ni 8.026941262704078 4.443030829875471 10.372488358716653 1.1994059978931149 0.285103973128038 -1.7140241226990287
Ni 2.422548845786329 6.293126476528273 1.9821508555126313 0.4258348473229182 2.47545478125195 -1.9236718744702805
Ni 8.988586576060152 5.135772015501157 5.054088792348119 -1.0874694222221077 -0.6709357976954574 2.457420292347742
Ni 6.413748390188362 0.6414870756502793 1.481332454503845 -2.0405642514846662 -1.0179239099228017 -0.5940870668665188
P 0.37644537216228213 2.9265191482301884 9.712572213698499 0.2190050246164357 0.4806494811699528 -0.1683206108876908
Ni 3.899499433786558 6.992119520797983 9.415991089199503 -2.0971112946417754 -1.0174515982720735 -1.3896344645974905
P 4.865504351835053 0.6608808235032871 6.10959546715655 -1.0584810054095577 -2.390652342793573 -0.11400965614995202
Ni 6.885652408756266 6.235199388647063 7.698748366307696 0.2864640867003582 -0.8753567538501311 0.5904826373447121
P 0.9889809623530206 7.594088171274667 9.871289651766615 0.1654052370131087 0.19912679763526994 -0.7405607570824472
P 1.990901602463333 4.372154788482304 5.426125398318257 0.06929020175539036 0.17635248005323179 0.07164173270670242
P 8.804898806434595 1.2633485095809327 13.262642838359254 0.26352290452315263 0.06520291905989416 0.21786731146756674
Ni 5.636857558244286 8.101351366624504 0.08276013826961283 -0.990829881919487 0.08179604753188494 -0.07809417320026552
Ni 5.975932770013324 8.20029584163313 3.1857319674868725 0.9954406412186211 -0.25733580187583427 -0.9242946172014147
Ni 1.0996036124845354 0.8510495629130875 9.066422216178262 -2.3407739699058916 0.07325689971262221 -0.16718624017293143
Ni 6.360477731148844 2.0041752073885553 6.692454207872966 1.0579626710122425 2.1572373133993943 -0.7983375588815993
Ni 0.6004186718722078 2.972072379388655 3.6504380004349493 1.5017505032691556 0.8839558083730519 0.27402611804732163
Ni 9.008668584909282 8.307987353290592 8.019874992800489 -0.9489273281484303 0.6273142043507648 0.31284154825262256
Ni 3.4740298430702694 5.291270766700613 3.672594068027112 -0.7348922459427601 -1.305803646023764 0.6791913528360304
Ni 8.375969359228364 9.229450097439075 1.5521992201423471 1.1095904224908633 -0.49686877124229273 -1.665567826969854
Ni 3.880669651817165 8.523055000946915 4.565570042024759 -0.09912965371432604 2.9983649708633267 -0.07293345493493245
Ni 3.0851994832796454 3.0694214245949474 12.927886417962114 1.503348958104527 0.7416863860464582 -0.7075688755374588
Ni 5.823587775399873 5.423301858598314 9.903613801622251 1.0195231360891217 1.1593836918639064 1.97520475224225
Ni 2.6687088230788114 7.059563532965202 5.575027232800161 0.08150422732307898 -2.4425269201756774 2.5259296500730497
Ni 3.4266585639975164 8.620923488414432 1.3410162585396115 0.7890538195868282 -1.5179962757040566 1.0819310089023817
Ni 8.042802803180757 1.1925466742250839 8.013562841751144 0.9895273610579796 0.6702541982474005 0.1931962910834479
Ni 4.140492815730788 2.586664773069315 5.81154784584506 -1.2760531542342086 -0.08238817258992907 2.1040527589566156
Ni 2.951526582806288 0.8369671121811015 7.5275550382155245 0.45010786093766997 -1.4411647712662987 -2.4107336869244804
Ni 1.755640636901903 6.265020939894154 12.817268405707932 1.1187540912680023 1.2601200279437201 0.8971034014986035
Ni 6.128741552360009 2.9097393080417002 13.013305915094103 -1.3748675907009613 -0.3964198844959108 0.9376931499955077
Ni 6.681687839433619 0.3793477557968747 5.015057344294421 1.6790427215278374 -0.6825245309743213 -0.6164803469600544
Ni 0.9797515864616188 3.0952358498268784 0.23789342473527902 -1.118373825110448 -1.0257917427066527 2.7720657265783224
Ni 6.106359156354027 2.6716214100435347 1.928729001672078 -1.796181153114758 1.5924304835542318 1.2854001426667476
Ni 8.894409838949194 8.606740859532067 5.352746758316548 0.057889673227932564 2.350815156191977 0.6722910261717712
Ni 8.556855850945174 7.662255692305734 3.2729435404200866 -1.2525825819160943 -0.6398087372733496 -0.10896926551256716
Ni 5.298162652416504 3.6951360070133283 4.352874204836206 1.0375655954131293 0.5574560459070464 -1.8898153309321517
Ni 3.083566950458654 9.188284298237024 9.623757790359221 1.1945687244054717 -2.287371385915035 1.700696038131555
P 3.337323770821546 1.2344081550269896 11.469429829612414 1.4486909044400147 -0.3217967005633813 0.5226739052308548
Ni 5.696482109229141 8.266738072296558 9.431399972848544 1.167276207238106 0.9385539553339062 0.4647446370142383
P 9.26157203584302 5.129074920633225 0.30408521002275934 0.18427456311378584 0.7706686322114211 0.7847618770796937
Ni 4.410760479396892 7.4361127935797295 7.081881926263997 0.21330874556260684 0.62602479611538 0.09523134710118437
P 4.512701023162224 4.927633356579384 11.596691328461514 -0.8780754383328748 -1.0792714597923476 1.7385195367372317
P 0.9562560998958695 0.8271199710290291 6.695862120136786 -1.3653329117376485 0.07163839027259275 -0.4203283156823922
P 3.871189830549816 2.1297503740396073 2.092075968893359 0.1960990665525397 0.11957969403856179 -1.2658911260995425
Ni 5.276281147162417 5.056909549341661 1.9786344169192336 -0.63820951110703 -2.1358920149543987 1.1893272735008744
Ni 4.905093272744101 6.736238552616869 4.587237277346091 2.2059134384488592 -1.5201732287507175 -0.43748605840860133
Ni 7.775549759780689 3.5153255028376265 3.77535087820294 -2.124943486362695 -0.2516112406872312 -0.34821864220033577
Ni 8.006942735646929 7.033183286698724 9.753490350251003 -1.3755972697781342 -1.9003607105481661 0.76547988892163
Ni 7.004818028933993 5.627572527824897 3.320174755597402 0.5578815634802392 0.8578369997988129 1.0394581844501516
Ni 1.964725422799478 2.9070957179622536 7.462430892289954 -1.092584117740854 1.1601753345272665 -0.611625075750282
Ni 1.4080224550866545 7.55244003283005 4.007351415999719 -0.1479695580351645 0.8274517026387364 -1.4158514893124907
Ni 4.105198569231508 6.893982036445189 11.576706715036362 0.8884482969267666 1.0899523365449615 0.9413654566407723
Ni 7.0431268956993085 6.957409646842581 5.433768620161991 0.8589459165922756 -0.008908872453855625 -0.7167292018804883
Ni 7.765717459836081 2.02679877301582 11.341163766533125 2.1103180231400365 0.7586088728334097 -0.2336546562088105
Ni 0.8844691793946267 5.513536399976763 3.3916936067888344 0.4520292463300989 -1.6162854357949585 -1.947700119064078
Ni 8.818005447775851 4.132960902943031 7.5505802440197725 -0.22726443641175054 -0.4981257835778454 0.5609614879571435
Ni 8.025420038939062 9.147981144218793 10.233238874538864 -0.249913284159518 1.8013323582983944 0.07802655318712369
Ni 6.176057176904774 5.797726971394619 12.964840096970914 1.560204276530674 -0.2846663713699871 -1.7128696973796114
Ni 7.918516966428101 4.02692047561589 12.4690853304336 0.7381202659617546 0.24334051603800672 1.869231336133213
Ni 2.82124860854022 4.7066570532016305 9.984758103429268 0.11286422969159916 -0.4099132909966553 0.7483866808847691
Ni 4.127005868448277 5.760855846602336 0.18871708380477092 -2.9116606873965467 -0.10997662373115898 -0.9688698327086281
Ni 2.011002162821793 0.6023591597480682 4.432185617521474 -1.1404827411943457 0.27463264128306897 0.6219398274127289
Ni 4.49710847957082 3.3584353884384615 8.243702663162178 -2.84970352896746 3.0554326624105963 -1.2037856150180495
Ni 2.4909575364386782 5.332353084110682 7.701830699582784 0.11109942448169254 -0.14040485831402916 -1.107280543410764
Ni 5.847009055928305 0.9490859415400366 11.586726385225198 -1.584855242310135 -1.940559908474871 0.4005033105366651
Ni 6.6052556209962825 8.438441566895289 7.109197168600681 0.11250787479344494 1.7771387917713266 0.39945764288097013
Ni 5.052846768798513 1.3473961225980093 8.347559577841242 -3.418241800830597 -3.7032174759108867 -1.028861125660596
Ni 7.612240823153534 6.6901751549518425 1.1626574099689393 0.84510258295128 1.5478007606599988 0.04644363617452002
Ni 6.881200046517197 4.4890849517858324 6.0312487329564135 -0.4854060220183317 -0.21589990332855077 -0.11169849151827216
P 4.797475967123958 5.517766144103878 8.153815962583657 -0.6047823417968359 -0.08963996905633594 -2.1489056536052478
Ni 8.758779754241582 6.222426674473735 12.049341663071848 -0.9176665703619358 0.5454351101867704 -0.17557729245010406
P 4.730356606370005 6.997388149447548 1.8907030454240366 -0.4401499783940097 1.2736409452482904 0.40635822665554533
Ni 0.3906307837710466 6.936251650452342 6.441827954709418 0.32971518407950956 -3.072759069504185 -0.5821355509315975
P 6.492796371441152 1.4477783395796675 9.545247802876984 3.9677855338691024 0.15232989188638926 3.019583256812154
P 6.450823581583269 7.758213374312318 11.507781364849187 -0.9679370364817137 -0.7310253067881862 -1.0508448290205386
P 1.1816662140033611 9.063850049409734 2.48784366559773 0.29809292918853825 1.0936130732260003 1.7725177480595473
Ni 6.620690476758385 3.604753053560244 8.735467000042727 1.7895014271017373 -0.8899043126470029 -1.0723122548656954
