# total energy = -381174.1157270687 ev
CRYSTAL
PRIMVEC
9.18912306347623 0.00000000000000 0.00000000000000
0.00000000000000 9.18912306347623 0.00000000000000
0.00000000000000 0.00000000000000 13.44921045419918
PRIMCOORD
 96 1
Ni 8.301141345784485 7.710510460849368 5.981186418637743 -0.15502955020573944 0.7023927306531581 0.7033676929719177
Ni 8.618496899920919 8.574618837290577 1.0796355822568335 -0.409686776808146 0.1644755261099877 0.3450710977102896
Ni 3.3699730468561726 0.9668243940499962 11.189581371282237 0.02509216708193743 -0.18278615149371746 1.2104573706112702
Ni 6.378078427454159 7.208370831020048 11.12374773691521 0.3097089161609118 -0.5497458217469823 -0.8459980981823558
Ni 9.430888891758242 4.1217811503329 8.629215093062706 -0.8599113658293384 -1.0731545482613325 0.47375172560885503
Ni 0.7718339593699849 5.781051912866534 7.205226313107566 -1.4605915125323425 0.4870430434011224 -0.9243444966027436
Ni 3.472624740603512 0.8405594107652358 0.5179908671146263 -0.04802203640523342 1.1091461358645929 -0.2742400338303406
Ni 5.069905678947768 2.767001169646176 12.492662426698896 0.24796438796326326 -0.3809181893158859 -0.45617643572925315
Ni 2.1400824377315355 4.8763459907288125 4.12098629118787 0.41259366604229586 0.5989968454633103 1.5024840390010705
Ni 0.26818455662125895 0.7443125357934671 12.65565357813333 -0.2818859804113726 -1.1206690489025282 -3.5573708777559956
Ni 2.130507371498904 1.8721827439252587 8.565963602276646 -0.23956742214881965 -0.37452257020218727 -0.45810013511452724
Ni -0.14527819781637072 3.0255187688041634 12.558536493207406 -0.16449378094243286 -0.23808209585254478 -0.859152890396759
Ni 1.6042371045036625 4.341741189114572 10.756436434153942 0.4537994508566443 -1.1726904362751418 0.3939140873549216
Ni 1.205888619681611 3.716476499351442 5.7276686213388475 0.33771799977932804 -1.0532007308472249 2.000599795276587
Ni 4.753827412917222 5.029041648682401 7.664691655427921 0.11109993870232478 0.0875038965499396 -1.0907478358630633
Ni 3.4192267464789223 9.055255919150264 7.012122405392583 -0.8980439110350017 -0.4251607040740291 -0.2780663495549663
Ni 2.921470328351105 2.841754685771375 1.8950076067037938 -0.5326734396457278 -0.290374477498358 0.4699007272938811
Ni 8.353069080218843 8.939868100836296 10.281800768567319 1.1077158311759698 -0.9351030206708283 -0.17992708477836752
Ni 6.212766103533774 0.39698757569628124 10.066451831739135 -1.018170735826285 -0.05564124351338804 0.11642057958428981
Ni 4.99574026669866 8.816467367210567 12.492271888968679 2.789233753717177 1.5220606755814172 0.27326095774652287
Ni 5.8856792680726215 2.7690779114586275 10.212899804921546 0.21414975340666348 0.7797525967905604 0.06394976337908341
Ni 6.954944006039486 6.657482903336496 3.537963081237392 -0.548595767302939 1.1834936975382326 0.8839596650277937
Ni 9.127583506786582 5.305275877107676 12.498593086724368 0.4192327686253683 -0.3749452595619026 0.501426051595672
Ni 7.11438448032201 1.6124062349075103 11.75703085546394 1.27631540675666 0.257813255732885 0.052826656882728376
P 8.321348227402103 4.238262474291478 6.56402125156541 -0.7953584216486174 -1.4554428784518676 1.9354845508344924
Ni 1.4379783009076905 7.152491773668193 5.362845733103296 -1.6066111459299879 0.8424916276909942 -2.338154272894857
P 4.42958001648283 2.939572900787078 8.626632949481737 0.294099491758429 -0.3715696582214504 -2.195108891634187
Ni -0.24859794081045844 2.0084390607174476 7.2055084191856285 -0.606244271054343 0.7097813098077455 0.5514630615484051
P 5.845816852221225 8.95822796871806 3.832917391168538 0.5073956389155455 -0.1234664306874777 -0.1036391115489054
P 4.666870741363104 5.737568982527943 5.345428669247894 0.9738477455391938 0.8203017218575163 -0.4253424810675319
P 3.9320900829238665 7.061739994288664 8.3603918923885 -0.3457015322054369 0.05509976918762124 -0.20305775725855998
Ni 6.385742156089489 5.425212311338297 9.110683790559678 0.414039397349887 1.877095569372638 2.2926429187266195
Ni 1.0104084047422912 1.2150685536224928 3.3540041887956478 -0.4450790402645109 -0.4300540276105883 -0.3713642270788637
Ni 2.2628491218658517 6.648008917457568 11.317026237968408 -1.5220493627275078 -2.023169710157303 1.0593042726418014
Ni 5.179210297793403 2.2239148074439132 1.3708784053824519 -0.4264233728365366 0.6911058448854291 1.1977545783326211
Ni 4.385242497699291 4.240440296457633 3.2679030245987817 0.21196071617514464 1.0498297574924629 0.17615296244791598
Ni 8.335168668490278 1.9327390649166616 9.53734580136636 -0.9582619752857948 0.6189149245434761 -0.47928345406036166
Ni 8.860372997210101 8.194299411919987 3.7672583501397257 0.34232670219593303 0.036491410057814574 -0.7138444241335256
Ni 7.047110910370863 1.3975737267955208 0.5464495812436665 1.0062765554918605 -0.09888797001716518 -1.1821071016033513
Ni 2.6062098942732517 4.232638730976343 8.2063720818014 -0.28121080872121895 0.13406631769051106 0.15118549386930089
Ni 1.014837562059113 8.398435780785544 7.620120732918558 0.8518941519518168 -0.42129325069882284 -0.06897729850066185
Ni 4.760875470307269 6.500146738235615 12.80258581810121 0.1055368427922505 -1.7300762910658851 -1.1865908484063177
Ni 7.749380451409858 1.060682097025139 2.750296262828228 -0.5174998172290829 0.1611084094099677 1.5572999583996856
Ni 6.174631242818399 3.6256603961104656 5.67849854273598 1.2786612812810172 0.09348376828245836 0.9199335120192415
Ni 0.31166748695985064 3.597091412504658 2.965456822633601 -0.15979329014296997 -0.2629631753649407 1.5085495284688601
Ni 8.113931341602719 5.260423767432556 1.8571612844526264 0.9410911199334632 1.4939765157506917 -0.10725871057936368
Ni -0.06643735975232833 7.508221105719665 12.108768432456433 0.732458696800603 0.9195995257185904 -0.7591814575074279
Ni 5.6795948051175085 5.869726950433612 1.7611064621528945 -0.021206201763969933 0.6943804018716427 0.08206138537812964
Ni 4.084372230339577 5.346893415464286 10.092152890036685 0.18408250170763782 -0.03741803563714201 0.6945351822819523
Ni 1.0141391887062534 3.9374749090393393 0.9798904081346208 0.5931504139848623 1.8803608703874712 -2.4827837108131954
Ni 5.74692350980704 7.829252309081676 8.676556536175848 2.233617846342663 -0.09046529317110873 -0.9489874919624044
Ni 0.8120115621424753 6.646042445121883 0.925992525715353 -0.6710903209954506 -1.0118311667615028 -1.2973128349439336
Ni 2.479059998437433 -0.013257147844354646 4.7447467215054315 0.8444945170536358 0.040475591516543195 -0.07973376568621753
Ni 3.695001518751001 7.119456876253308 3.759323542374009 1.0352408039346945 -0.4873312640655026 0.5526349703693192
Ni 0.2599648860405594 1.7794736813331093 1.1231984579660816 0.5189879717388352 0.7931688701964662 1.938448775669139
Ni 4.519789637601586 1.550903434240521 5.522205343102858 -0.03815157136905688 -1.4930313782286027 0.8615031357964905
P 8.215627366551406 -0.1697745620802375 7.856060656708431 -1.0330378827461046 1.242904178286066 0.21270890719507884
Ni 2.7580785311510843 3.055760172807609 12.958301021893611 -1.028331478409371 0.030592013854244083 -1.0018300896847327
P 7.530467972657477 3.167224235573272 1.6777087379614413 0.4589380576347903 -0.8703089070135785 0.9673415689895598
Ni 6.87698348596497 4.425720584795973 13.49493753861729 -0.3569575647352304 -0.6102842454516715 -1.1098362199530822
P 1.5163615206431484 -0.08688591530652698 0.6871286229665323 0.7305275412161613 0.016039827071682056 0.13894858548347683
P 9.393397269657342 5.818258672152451 10.27125624985144 -0.7431200331691912 2.0355801680065135 -0.22707417477781536
P 0.6415073836909605 6.202345637979258 3.2227807547055822 0.010239161229504946 0.2660767812932579 -0.6925826865412718
Ni 3.7713631314123903 7.678164747664278 0.9531831408615686 0.5623030895867026 -0.39264961882020116 2.327662115114282
Ni 2.9063174644186582 6.335349005206811 6.6664505685346 1.958869762527652 -0.4430643238273273 -0.06502448450050091
Ni 4.007321433448391 7.829987438926791 10.475146350218884 0.8385452414487364 -0.4419836891686388 -0.03573704839029329
Ni 2.5961845610104866 5.449058085689236 2.1134220349861095 1.008846630211882 0.9484884408387988 -2.200196847680056
Ni 8.067884645929285 6.93119931204225 8.536187167900236 1.451006954167701 0.07096424702370359 0.6272452987860423
Ni 0.3381477828932233 0.5284416567752518 5.6506049596753725 0.5293268917709981 -0.23995283051269642 -1.1181447398187776
Ni 1.794167089112359 8.951088020097373 9.930036543117941 -0.6110982567125347 0.20567976826243933 0.5057493615613741
Ni 5.812671685329573 1.4968346341322638 7.487807468833108 -0.29017855943746795 -0.8376289002820543 0.9263736112176303
Ni 1.9955650993048595 6.688477815431185 9.04156780143421 -0.9432541890230529 -0.630381787532495 -0.24976930238248599
Ni 3.5165671270953003 2.9811261152822413 10.45170397837045 -0.7815266579718476 1.3257428081498523 0.7567617923223419
Ni 3.9012789532904564 3.830247032006155 5.743861694002133 -1.6935578844248769 -0.0330265914376657 0.5326009345365795
Ni 4.0372504072676625 0.41358956433591215 2.774302846832787 -0.09259956590529213 0.035432629775997045 0.8277918595869743
Ni 5.647377739655314 2.344338265196923 3.783639799825822 -0.11747858853515897 -1.9561585342440762 -1.1134483627843728
Ni 1.91640999323203 7.918157074725352 2.388337624251709 0.19037553380520117 1.4426878927790445 2.4349663342195997
Ni 2.831710974262482 2.4334911371633257 4.2075046415718385 -0.48363684593305095 0.35174799550983293 -1.3554858437402397
Ni 6.699789625922902 3.525719493666991 8.144586256144041 1.605889437272615 -0.5157013305677635 -1.3748112835417292
Ni 8.665159266839636 5.418982085900941 4.921778852981573 -0.19756999467111133 0.8942016544707762 -1.1399860040635852
Ni 5.508263605590239 8.364812779494565 6.152543347709592 -0.3438210273532724 -0.7454054867692581 -0.7525500682338394
Ni 6.237172414391614 8.68913368891347 1.5576877637986322 -1.3875053340696297 -1.3336317239796258 0.7341096021404647
Ni 8.508236612276633 2.7022270411684213 4.7947916046239865 -1.274939866565372 -0.6631710661483741 0.630925575851107
Ni 4.143228563564151 0.3742132530945979 9.077275814748397 -0.5469003818783872 1.7719477344886903 -0.616507343543248
Ni 6.918068055183872 0.822343812115576 5.482435737394407 1.5308710747841958 0.6394166440412536 -0.6775772142713751
Ni 2.863202099002624 8.35995173339374 12.488667914902999 -3.0948229912827605 0.059303008635691414 0.054802806772492725
Ni 6.678783290598722 6.307735690399654 6.610878427893081 -1.1359339454813986 -1.8636782675254677 -0.26332210136625617
Ni 7.305150675129525 6.783033891759188 13.472208242718619 -0.5274299318586013 -0.058154239743228885 0.7420753939547607
P 2.4777551429623528 5.57759553910771 13.311046645686218 0.363855063186012 -0.8365343816662948 -0.5665253551981664
Ni 7.907185261787 4.311600865464829 10.607297885738408 -0.7760350387296571 -0.8892831341232361 0.5526095164480225
P 2.378154238072244 1.8345440958553365 6.1963607621277115 -0.7144689450914018 -0.907445921075192 1.2897941579693852
Ni 6.883535330709563 4.160154928247938 3.4975612638621416 0.5276063095354655 0.8529159083481117 -0.26223323917745156
P 0.8595459768399606 2.2243466962279186 10.687684334301807 1.1326935841672299 -0.4341091715165684 0.49609718318359086
P 7.271040650316158 8.71847455885665 12.410258965622962 0.4841446388074049 0.4712199603259369 0.1599277588383052
P 5.803657155603841 4.779171014327585 11.593488356645668 -0.28089353459111627 0.08617617887745159 -0.8149180889480997
Ni 4.361258886502393 4.404980734040647 0.6151722759019981 -0.6913742680554673 0.41501924476465296 0.1155759721958074
