# total energy = -340886.6552558933 ev
CRYSTAL
PRIMVEC
9.14843391697750 0.00000000000000 0.00000000000000
0.00000000000000 9.14843391697750 0.00000000000000
0.00000000000000 0.00000000000000 13.38965777537074
PRIMCOORD
 96 1
Ni 6.258077829911281 2.810636814566446 11.963967155714665 1.6942551676022177 -1.0130611825138618 -0.22108967505960636
Ni 4.3416089642024325 0.5120323674727896 6.287422347127933 1.0971383127704395 0.3367327530479233 0.31044528010630407
Ni 2.739022872437765 1.771731489825115 5.0120967844907325 -0.35665623144472774 1.173664627262953 -0.12420613706697964
Ni 3.6680738005156828 4.77280210860089 5.215378649549003 -0.5363447178497278 -1.4830261873867752 1.0999516138495187
Ni 3.687349551162736 2.8898988476020735 2.966492282410959 0.41451299455219576 0.880523128542419 -0.2923781381919481
Ni 5.424499960092805 4.960756687169329 2.910670367224349 -1.2696086841604457 -0.2860866487562815 -0.1267427874459043
Ni 5.123534775096721 3.301505194594104 1.0236429921336052 -0.2445571620539272 -0.5380395890536476 -1.2119853772200222
Ni 5.894839254001818 8.165938019132764 12.686325682502122 -1.3906775611500242 3.2882823062196076 0.38391121050593885
Ni 2.5488360759491155 5.645123596829555 11.499788417328064 1.576799461885194 -1.9084257469444876 0.3433150342511313
Ni 1.3226440083285873 7.438811328492793 11.683212691330572 -2.1215491159691657 1.4734647689505849 0.2990799756921559
Ni 0.3877261894628409 0.4077969390331159 5.326285116133827 -0.42297860882104577 0.20163953675479465 -1.3501873143454617
Ni 8.644876841095043 2.609362115949544 1.5342134398373397 0.5428395815454522 -0.4713695985299237 -0.3086362519220233
Ni 1.7217261490387878 1.5209820595996402 2.6523844569879382 -0.8479318248699591 0.4834905501631737 0.25843906224234203
Ni 1.6642831313297959 6.9446037700189205 0.7080869695926778 -0.0669633533944266 -0.37750145032485305 0.33241329973696304
Ni 7.636252833222122 4.157679696637649 3.8280762535373714 2.239777952406788 0.34098484345605795 0.1500845474956383
Ni 8.090289617566329 4.4328371490398375 13.081026638122207 -2.849347174069306 -1.2797190331215704 -0.26444490211678967
Ni 8.17008225977971 0.08460746307980074 7.432317769969168 -1.0277812623328557 -0.024527809938035175 0.1754428237547688
Ni 7.092762660255762 1.1005200283995664 0.2880622335425466 -1.1547027414484694 -1.075492709476206 1.549874869580208
Ni 2.0073677069186813 6.972168001959866 9.588936690156137 0.27370832969658665 -1.471427683915898 -1.4429725138989986
Ni 0.23315882113949782 4.838176818673904 1.7298764889777813 0.6150515849333279 0.6363572883896396 -0.44080098171444726
Ni 6.731445255507134 2.4642405058336436 7.369975765800045 -0.4300943939302206 -0.621910002616058 0.1506800149877921
Ni 3.4815921198372166 4.973226002846564 0.35837160896867903 -0.13926920204768917 -0.009008888366829648 0.45814770052301096
Ni 6.243559264995821 5.6539335388671015 4.997408973544438 0.23047780114272565 1.7594876543484663 1.1320754909672566
Ni 5.571067022796382 3.3543648468193874 9.455682428753743 0.5805946888070388 -0.4284350039499267 0.3083570301187077
P 0.08127377369404559 6.106479128453134 12.775675693818958 0.9051062171984219 0.6489497803426695 0.8811034265259213
P 4.451335282788457 6.658669462247853 12.716452390834256 -1.9962165786072266 -0.013352767157822165 0.6284989686874853
P 2.4285341675443948 9.016806429398763 1.442253380271997 0.8114985217435896 -2.4772180437999594 2.453751585246903
P 6.438878333014132 7.9845154225111665 6.311670271707912 -0.0681915693745729 -0.20924820233998803 -0.3618025515323575
P 5.037438861788978 1.4033972361223874 12.990659320933538 -1.2966057815745797 -0.5840391957122135 -0.27583823155539594
P 4.1055427707062035 6.385378290401904 8.482174685170673 -0.2928190823841086 1.233258941886818 -0.09630941065671154
P 4.849639806600224 1.4180164338129382 4.025667792585929 0.6352625126635639 -1.4377750288584594 0.23632551817275424
P 0.30747063648403833 5.989379171983139 3.5285629250328334 0.8876214301500972 -0.10135417216947061 0.7056364344014363
Ni 0.7955835081610116 8.170878173546342 2.9425645530244537 0.4203116035118439 -0.11123106496355036 -0.6018173456312409
Ni 1.980837248030948 6.818062629558534 4.517496758194004 1.1544870258932374 0.8112239279259641 1.7165682292771212
Ni 6.294616675703559 6.226213833943703 9.353586819049877 0.04855656875246476 -0.2968287177641339 0.7568417536306579
Ni 8.848621616918733 2.8942535022333016 10.99227995051734 -0.6515113704222586 -0.3405408139401038 -0.9601532787712368
Ni 2.386972831431646 5.677737764393267 7.2637688498119894 -0.4087202991298187 -0.2164632320311885 0.07319467901611909
Ni 0.6915420265242415 0.3532329335351482 9.33023544101162 0.10071705280610395 0.6646833890278423 -0.6351519552276287
Ni 1.6164459694249833 1.5100588292851735 11.587209023893376 0.2629215234937278 0.2118326752377126 -0.7435571207066097
Ni 4.029647361419088 7.398814374611011 1.647932135064263 -0.23231536857209664 -0.881660841691288 -0.08848065864091213
Ni 5.253515726778415 8.270211870995654 8.235938177486343 0.9347289251608611 0.17207519283411654 0.44607765673235433
Ni 6.759832846517008 0.7344070144961288 5.463342381591266 0.6430778949429247 1.6409695688051997 -0.7037752128229815
Ni 0.6762531634576278 7.66086212094902 7.194088886651884 1.1941506630314467 -0.349990646499094 -0.26031905287387425
Ni 5.426640693672022 5.156185536396831 7.260675764243044 -0.4867445383240972 -1.097623222826658 -0.037046254120020064
Ni 8.574653460949442 7.450878113069662 9.5559977531819 -0.86287790465683 1.2531978469025902 0.5638352099605128
Ni 4.833465375112806 0.6027116462642416 10.697734221728677 0.14201359756204573 0.39051586030665003 -0.22925112782447613
Ni 8.449283320053754 7.481324101751861 4.950103335660791 -0.9548866310556586 -0.04052341403534311 -0.0928582188833175
Ni 7.642107831045623 6.43001350037199 7.2037697596156764 0.28338416222345386 -0.4563911228432204 0.3289873047745495
Ni 2.9684655996461604 5.319329561688193 2.854528256844266 -0.8477153379837788 -0.06023683330387046 -1.6794049899632624
Ni 3.661880310630512 4.583639936731353 9.414736782255872 -1.0588885252606215 -0.4146626327561826 0.42963288091276974
Ni 1.3577374015331884 3.842616774694669 3.8139236259858804 -0.47649432135099873 -0.5650891369722719 0.5038104926674485
Ni 0.9907296707748475 9.263155462822512 -0.0341355521544133 -3.0877272607782436 -0.571061552505623 0.3582174052842605
Ni 1.2251948883037136 3.677185640878504 8.472292546656698 0.2879794949036202 0.22236802755139767 0.03474408834940468
Ni 5.626744392724225 3.26784810554308 4.8038610423677355 -0.3947828631131201 -0.17410019368394533 1.5123303356675308
Ni 4.168602926952115 7.197548824428208 6.117895459365548 -0.0644326165527729 0.17686130136885025 0.7411685658697752
Ni 8.03550879418021 7.783002864607685 0.23746315938318005 2.1254620778703264 0.5789808073526997 0.045699558919643876
P 0.3424862679987964 5.885379773143226 8.6223103987025 0.9631645547937348 -1.1843172218807925 -2.442282922485671
P 8.78030111106577 2.0183458278377433 8.141099105709976 -0.20575381603348436 0.3180925122389167 1.2049181859605957
P 1.980663427783063 3.5080219459498583 10.602493533695355 -0.19933917075639218 0.6652222922504479 0.7705130804701633
P 4.247032452484714 6.43762499754254 4.114226464353181 0.48213455035591163 1.7757840775156448 -1.4630996236661769
P 7.089359442770852 4.447264229614305 10.816915446956243 -0.11345455497743043 0.534231271051151 -0.5463576220010397
P 6.670187340778768 8.324526124242714 10.421813789922613 -0.6897588439392315 -0.12720995689030995 -0.11519981980331126
P 2.3384403885352927 8.932585945081359 5.998794740358055 -0.15536327939607436 -1.4697541528682172 -0.19986444713224288
P 6.969716221621275 4.2808542133495235 1.6539170406519716 1.426082937232512 -0.10268317539353929 -0.758333764795152
Ni 2.825932996380339 1.5732745089107723 0.36218742083146305 1.4092879771623599 3.2706815624187096 0.21598012174718284
Ni 1.5190517400047052 1.470354625294566 7.174179149521755 0.41071367541076365 1.204254584234668 0.4808088895659525
Ni 7.147470296169087 1.4020981584802983 9.855189971649558 -0.5243006422010001 0.05256543280154173 -1.5804573703527556
Ni 2.9907145913754594 1.9235314568334445 9.462350722368663 0.22230040753825586 -0.7440422878731444 -0.7874509938760825
Ni 6.618452945947689 2.3858750193397396 2.7885030931067973 -0.9775524480842906 -1.749608961782174 -0.14124200950334384
Ni 4.38318859718338 7.386747590034141 10.626875940256589 -0.22263413672859075 -0.5013610026856915 -0.24099644128586237
Ni 7.192370810728051 6.6173734307239815 11.8044834189064 0.9923319203863105 -2.2871824098326803 -1.8354169586869293
Ni 7.996874956979211 4.185353709787784 8.74765126460907 -0.7833961070804186 0.03168447558747447 -0.28438175025003276
Ni 3.070068108752079 8.707223419481213 12.631120371773799 3.005452988058359 -1.2159880706215123 -0.9170605613468206
Ni 0.08270184425693357 5.217827685357364 10.686178834617953 0.4810148349291716 0.5497525066152016 0.5517880489879916
Ni 8.444919516988428 2.6985593484169224 5.7165005945150655 1.0841251883402232 -0.5926225665058503 0.418880270381956
Ni 3.894982411478595 2.7519953519904563 11.53646265994501 -0.3678032492004827 0.7200922048154501 0.7014198252169275
Ni 1.1585119521545113 3.9349610684921785 12.754157661974185 1.5123259647921568 -0.6357875319290985 0.390329969548089
Ni 2.796218882426078 8.726590654469259 8.324203184519012 1.0868405303888575 0.45547760989001557 -1.523441615089344
Ni 5.662587957524962 8.257321727349856 4.1546232048051 0.3290279282044979 -0.753535057854928 -0.7808435158618939
Ni 3.381114868125502 8.876570083091845 3.6290529845522865 -0.6592264796783291 -0.23190244940439417 0.09667579285719478
Ni 4.051996985923479 2.8732486975414964 7.32801281343034 -0.7981023029423417 0.9762172742126347 -0.8521558902536356
Ni 5.216482865544779 4.872712157398452 11.919098660675047 -0.2339107380836746 0.3249275328828791 -0.8121729221027948
Ni 7.96912775635628 9.408066658954132 3.0491730852694645 -0.23554647391488467 -0.023135300465882736 0.3526625369043023
Ni 4.9947156745456285 0.40416226616549644 1.6003858933638055 0.30103144299157186 0.9334559719857084 0.5597011331874813
Ni 6.0963335150371005 6.13648599229857 0.7317997107778517 -0.05783439450996491 -0.3514546326391302 -0.18219274088409268
Ni 8.521802957158258 0.1226805012705176 11.192656272905698 0.006076802321699212 -0.45991122018133695 2.1702900328182944
Ni 0.3473312786977424 5.369243418133527 5.654599544869526 -0.3448682376708641 -1.049755452611102 0.7461876163509213
Ni 7.587098296807023 6.39373081073449 2.695231148091627 -0.5146896014737975 -0.015789658734088937 0.29620111148246403
P 8.955676592747785 2.0672625049662634 3.7738479955708453 0.10412196472259487 -0.09260933609730503 -0.868222456798195
P 2.0759443689264216 3.568520540647989 1.4198259940777636 0.2247190442820775 -0.3669457862961939 0.6681034704529849
P 5.096336480519746 1.3407579078450393 8.353459876768312 -0.3682040841833272 0.09025060605714133 1.0703325054315052
P 8.77946860356274 1.747716850314667 12.777001301919933 1.306109350189641 0.9208033162187045 -0.3807294703438475
P 6.748186889908704 8.111047414537454 1.8147803613223967 -2.4952090810607417 1.2326678452700381 0.08322429533797925
P 1.8452940484169296 3.661194178073071 6.244146594464991 0.6999586672903687 -0.3545237584827572 -0.47307809658059813
P 7.37739789038474 4.325324751505824 6.479885274020468 -0.8967172218037782 1.8776493849935791 -0.8621981049809861
P 2.5091044266562106 8.926456494234882 10.466133378916275 0.733802098202375 1.1841848100679864 0.44972913744201254
