# total energy = -381169.49610594107 ev
CRYSTAL
PRIMVEC
9.22207113325445 0.00000000000000 0.00000000000000

0.00000000000000 9.22207113325445 0.00000000000000

0.00000000000000 0.00000000000000 13.49743328475076

PRIMCOORD
 96 1
Ni 6.205587059372903 0.3228139921769441 6.5094884278827045 0.08342509849487569 -0.7592285086952795 0.9028457032990193
Ni 7.682778428108434 1.2510200719554159 1.4983366558461177 -0.0266962783442637 -0.11829799911266076 0.06126758856122998
Ni 5.418354171367285 1.3511164330258083 1.274195136942508 -1.9577752439118932 2.040870212760859 -0.16863608524558055
Ni 1.4112443374093497 0.39618755746019113 7.053664406696203 0.4242716166008564 -1.5869851441689444 0.2884698042764774
Ni 0.9586066375699356 1.635681884799265 9.233797088031457 -0.7496712040241477 1.0023530520677382 0.41302895380750154
Ni 4.454131292421647 1.582239982053464 5.364743504718075 -0.48018179750491496 0.5468715855229809 -0.19230257562458494
Ni 8.973914509890292 5.047977346850138 3.40492979376389 0.39496335455504233 0.20249391433529 0.6317424153254475
Ni 3.0373906005625133 4.379211185794056 7.529948419362279 -0.1453622023193045 -0.27653782872558186 1.9396050007607697
Ni 3.5242421846447094 8.894005262730264 1.2443368369390428 0.29513924587685303 -0.9496701198517257 -1.4530198708326718
Ni 8.669567715340348 1.934375549688609 7.411994439572824 -1.6481447463974 -0.15673881958736233 -0.09474438016243683
Ni 3.9037488596740797 7.4531211884054684 8.337378565556609 -1.0561734403223035 0.022138997990884455 1.0199692224876047
Ni 5.7163746250572425 8.631323785972473 2.149438861678851 1.0982963376342827 -2.0091469135156492 1.0265512465804967
Ni 1.6324910481555985 8.605096215410082 4.471173680044466 0.6011010362905068 1.505812332043355 0.1282895631077339
Ni 8.315311071323576 3.96494652431966 5.771233037943121 -1.3742790651873427 0.8098938962606309 -0.4425444467681153
Ni 1.9433394029187934 2.080425491670533 12.28598450187363 1.2018040658116462 0.9303567642350945 0.0610007080530885
Ni 5.9680541708442405 4.540459101153906 4.973439956178363 -0.10024242716253058 0.5155378084067057 -0.13170578787813447
Ni 5.793637137775848 4.017115781236484 1.9751334156722746 0.98170992189609 0.5794063249258925 2.465113804337258
Ni 4.8752479528158235 3.100589454663803 9.318817207064086 -0.23188239479973616 0.011267088273387049 -0.6678026513831143
Ni 3.672154985013976 4.000156392254684 5.279210638525365 -0.5352106042452847 -0.2227071560583713 0.7400272531764803
Ni 1.7255140805968228 2.2170320327186004 3.991649953757234 1.2769383850526395 -1.8122130097666405 0.3987359342235972
Ni 2.2203150900745117 7.399863727084157 6.462908668335031 -2.4832549940226585 -1.4320826064593726 0.13345645202065404
Ni 8.656785924623232 9.192901813186547 9.210203341010773 -1.32297090183167 0.9016236579664602 -0.02322606040747613
Ni 9.216860754227717 2.7365850813627652 2.664839211650637 -0.8555142652029072 -0.3824608512126575 -0.4951391901456957
Ni 7.106583418003577 2.718288492053418 11.328963138347182 1.5371070283915786 1.2809629328310004 -3.407062387175009
P 3.831825926194442 5.249313605822758 2.4924491898373833 1.8960502560982702 0.006594365388066063 0.6688431768324868
Ni 3.058555254022671 1.6262569280078571 9.945503057122915 1.3716092316646638 0.2771862609428581 2.6565985120462376
P 8.484489967936469 8.206841069581364 12.236570799838677 0.5069418392075785 1.1724934897729873 0.6747268893067734
Ni 0.07700706134568802 6.17209249668563 0.47792277472266476 0.10941380924915349 -0.003244989299858928 0.20589034161134864
P 7.240819886746956 3.320157748447198 3.738789060646381 0.6438571963111106 -0.3922629249047438 -0.5476262043008181
P 3.5145405657165676 0.6413314213704079 12.742278752953547 -0.3014109378181777 -0.5927328668314695 -0.10352495456854428
P 0.7342170449503875 6.896735187290773 2.5537814967228405 -1.20541800841515 -1.8298829162425778 0.6103814331511682
Ni 7.5477673053822 7.884409793360236 0.6427331761965273 -0.02677495410099905 0.9671042561677732 -0.2117992508966159
Ni 6.528230443232194 4.851879224333018 9.79811130377783 0.6204647855290991 0.6816997210801808 1.4727024368632635
Ni 0.7245320257504496 0.9245218623242962 0.5533141291898257 -0.05934543183785263 -1.121748655119952 -0.5852915800620759
Ni 8.483964309876674 8.940336948561999 6.629642793866318 -0.9541448677936276 -1.3274132538737398 -0.10011052957035663
Ni 2.6251455726862756 6.349608145685443 1.1187359156902574 -0.1610878405846774 -0.489595377509331 0.2574895538448791
Ni 5.43668764896153 6.292385193737609 0.8125198073031136 -0.45072286881384954 0.3198316064172104 0.2536239002418858
Ni 8.678872785205838 1.110807701058581 4.680424320541925 0.1511510410869397 0.6235254267322939 0.3728372120799643
Ni 0.5760612900721023 7.552738001772188 8.224876674275059 0.8237505996380652 0.5441014789770113 -0.3604576074686889
Ni 7.0469258392524825 0.9481211425877137 12.537901054891098 0.7303912727486132 -1.7570381643667097 1.7842867156700173
Ni 6.278837971108865 3.002263731268509 13.427381813183777 0.5054745106334326 0.5277556906291362 0.5984977943397047
Ni 2.9283211641907116 2.004269627498864 7.763238232920563 -0.25510279878025743 -0.015513779364882959 -1.3510105815777054
Ni 5.365447148752502 8.64336781099163 13.0368602962839 -0.845982414453072 -0.15372805778549656 0.39523229194571285
Ni 2.1476543908969163 7.484992666557235 10.801955889532278 -0.2901104252036939 1.4680515683548137 -0.7553667117470282
Ni 1.3737842840955543 3.8616132162494785 0.5484623975186322 -0.028330985734209273 0.6003664721173273 -0.7657634816003199
Ni 1.9888872126964485 4.204240828452195 2.6813052198219283 0.3862545139271348 0.11536437040563356 0.6985286197120614
Ni 6.752594214052313 7.7642277611629495 8.279028676505144 0.42382938685711524 0.5669192482024753 0.4063361151683582
Ni 2.5424143717315593 1.8714533577240533 1.5569964064907236 0.6067731469746196 0.606206218727556 0.5403209288886566
Ni 1.7321263056647673 7.932761112790129 13.226971450162093 -0.5596245143132749 0.869971835389134 -1.3142422637094204
Ni 1.1501675010446168 4.080692740257977 5.293680068276558 2.4740411887338745 -0.37834631482365166 0.195030001858077
Ni 4.919108123559401 0.33555428357354883 8.465927782975857 -0.8808645710422379 0.8448007354401451 0.4129983576798823
Ni 8.270418028602858 8.734085325626737 3.064888972539636 0.7105549547489763 -0.05306396970451506 -1.8394574473048904
Ni 6.725416770153801 2.379552593907427 5.824816960585779 -0.8421504423014916 0.45860021467939727 0.6179978120458453
Ni 3.722544382184478 8.944016554980562 6.318256792350737 1.1807791268205472 -0.01767376313067924 0.17776273013719707
Ni 1.8685852935732432 3.8474757810623665 10.112128362213753 1.0032254273703627 -1.8898477268319838 1.241591115901597
Ni 1.5930666936709914 5.533381065750093 12.036782004417525 0.4387386998687799 -0.2367572063935342 0.4243024698387918
P 2.4938878329484004 9.061948401799079 8.97800634289259 -0.26560961184885223 -0.888858902101624 0.05610327075147112
Ni 1.8004710755093112 5.847955137287973 9.259913993739154 -1.2272469313647831 0.84138348222848 -1.2210199766184648
P 4.722475120911262 2.860612717260657 7.092415549981424 1.485525813880177 0.954611265907085 -0.23516903597080788
Ni 3.93921694560339 5.370712951421675 9.817749704450337 0.7203945665472175 -0.1754857611775623 0.8291753701980623
P 7.538646676941199 4.5947863227372565 12.286092400106957 0.8672510940238612 0.8022723751596312 1.3165971370948422
P 3.4594294680791373 4.258752491460035 11.950560249504347 -4.007232941231448 -0.9515645086609613 -0.3225878290061089
P 5.573100526513883 7.446748737189361 6.200464198807709 -0.5537816823792527 0.37949868326054 0.21044916462662466
Ni 2.2065280935939295 5.813778141330089 4.553358934382694 0.7599260489829364 2.5526791502527524 -1.3126173265114878
Ni 6.6015735756803995 6.857181723809022 12.045204522066832 0.5147811327463392 -1.7561722168219882 0.38848880257429225
Ni 6.446098676907068 8.78974052546641 10.73484595502469 2.104886053491188 0.8365834897366753 -1.4573778906910515
Ni 4.9236546046730645 1.9973530740805114 11.598195974502836 -1.2175230192088 -0.3145413045525486 0.5051469520906848
Ni 0.7030999322247825 3.9707379850486264 7.90007440354212 1.1704062682266554 -1.1229789279826274 -0.5438065734444119
Ni 8.640029421208371 7.217377381694353 10.424229996456353 0.1404817342985516 -0.03875680905322358 -0.5401350381300957
Ni 4.02517587148667 3.8148665372126427 0.6297623330193108 -1.54688750481711 0.008492610852043439 -1.0128164134929074
Ni 7.367623366083412 6.252656510902595 6.206470533796207 -0.040713161448646014 -0.010883222571407064 -0.09253580254689224
Ni 3.8677366715425263 6.580971468564935 12.191152099058165 0.11863609917836987 0.26231294337545147 0.45461834721351385
Ni 8.814271234923499 2.5497459183550126 13.328445588673423 -1.4477521946758292 1.582723797789429 -1.3480224454836591
Ni 8.542109468946954 5.6627759471006245 8.280729226438938 -1.0191469836966254 1.0757853010159601 0.26796114280016436
Ni 4.254289008987392 8.896006452185974 10.698915843327034 -1.957309617129384 -0.6622249001850208 0.6361557139017947
Ni 6.766344322247997 1.6384761723802792 8.889693022225702 0.3209281819154989 -0.2618051505010975 0.46099879681856093
Ni 7.396165676523145 6.514922994455284 2.5047053224947033 1.383102577016244 -0.08563110500725897 -0.9164964613132344
Ni 3.6765908012729462 7.80776515941367 3.5324129397495896 -0.9319176809643112 -0.21483675217135903 0.3166799481621062
Ni 9.04732219683707 7.344983181227339 4.858225853749698 -0.619126783443966 -0.4027537971337386 -0.7128643196084433
Ni 1.3720136464204562 8.743510282418145 2.105451426352376 0.6848819754629043 0.8961202116497277 0.7448241603444915
Ni 4.1175994692983044 2.8571544405514806 3.4664511531094484 0.43896752805013434 -0.2861671242852297 -2.755765446756402
Ni 6.855604749629638 4.167988866468806 7.6176272615289236 -0.435175922218186 -2.653871857143694 -1.171509271482847
Ni 3.9387650641133907 6.005726331796199 6.411402478339246 -0.05316475694843747 1.147581814132972 -3.325731966425634
Ni 5.530310116032345 6.563929080942116 3.53756899977119 -1.6853833190338843 -2.345775793995857 0.4165130557013601
Ni 0.0015898850790985492 1.0679435140072466 11.542802681485936 -0.31390855606455614 -1.2030801043105925 -0.7692270146688882
Ni 5.480095938215108 5.82985221147434 7.858421996649681 0.8108781145507712 -0.32880501356041436 1.3823096488013031
Ni 5.365041377618626 4.695472896366015 11.935065325432994 2.0889665540474542 0.3212117745941887 -0.15527406211637776
Ni 8.039054705723366 4.231833265555808 1.2336447675613929 -0.28371634875189206 0.8289010334907532 -0.45141912354992575
P 0.4572256802735877 5.9187806442919 6.267208939294807 0.23782421420546787 -0.31600503358226867 1.2624746442188257
Ni 8.95476026795707 4.971849148892142 10.624882899951238 -0.1717023828757301 -1.5055176836210717 0.013855674936169687
P 0.9964447958039341 2.1549121609505737 6.0689860515675695 0.8945538956038723 0.36029845618300527 -0.9366148293296643
Ni 6.560148031740083 8.358949912357765 4.460941792020917 0.7713548596451683 -2.5281443983361815 1.6705945907604842
P 5.55421372464617 6.88878576189528 10.097200595522702 -0.5788777061159321 0.10838073999894883 -0.623757597347758
P 8.173844498740213 3.2846527742329905 9.118731460949505 0.451315508092526 0.2967778099215405 1.180836976641676
P 3.7719101294490636 0.6540191469610331 3.1462377850178047 0.12014739361657373 1.4749369826207372 0.2888061045699736
Ni 6.296304574008009 1.1394698984242322 3.912406540139612 -0.3786594751886962 2.2880663550995304 -2.3630890884633238
