# total energy = -340870.48931043205 ev
CRYSTAL
PRIMVEC
9.25447976159828 0.00000000000000 0.00000000000000

0.00000000000000 9.25447976159828 0.00000000000000

0.00000000000000 0.00000000000000 13.54486658825152

PRIMCOORD
 96 1
Ni 9.301399835935639 3.7655181963888174 5.71261536237891 -0.7197065393412573 2.0348165503676117 -1.783136661225974
Ni 7.180347141896656 2.4768596721521674 11.563821184370639 -0.692395253120814 0.17225439872445816 0.23876292396965332
Ni 7.649771366356643 0.154237008313521 5.944598328567715 1.1444412116214613 -1.014703088992659 -1.3905078683413794
Ni 2.476433966089452 4.865255773576218 7.652361695203468 0.33529139261570645 1.1478600074950231 0.7569703087887221
Ni 8.574155063623929 0.1053807594812293 8.150758919023065 0.4514684887306225 2.1481636332329006 -0.29896684715305927
Ni 3.371592016703386 4.947602133272711 3.0736690322959412 -0.330034000871509 0.2947247840472537 -0.1369125288900545
Ni 8.881940546966927 7.528148995134871 9.220884937756782 -0.10767882883591777 -2.696776884037336 -0.4496718018415159
Ni 5.64852716553308 8.771728949121846 11.590477787480301 0.28459515181241957 0.5419936886053891 -0.5271530240481308
Ni 1.9621902968092668 2.8857410909103716 6.090855199101253 2.4234951003552068 -0.3894030868584455 0.7858036880806467
Ni 1.2917402659515225 8.829958134917568 10.29106463247232 -0.377217343425531 -0.6623249160979948 0.8943222392090404
Ni 6.046173646027457 8.490605621576284 8.765871788967663 1.8243172492293418 -0.5650186887456526 0.7819606601854727
Ni 7.443572305848935 2.484920323904881 4.977995695254642 -0.9325835966830843 -0.8686137786993428 -0.6235305689386164
Ni 1.3315160193765092 1.4576915945734075 0.11565970999987349 -0.7859898359495238 1.5235868824179566 -0.2057874974848972
Ni 3.3623930639568904 2.6485395236614573 8.575729250608013 -0.438157116333697 1.3433970308965055 0.7843335312930233
Ni 3.852427014540062 7.280147450164468 11.888857017733221 -2.7476623580332937 2.1980687455934595 -0.2198516888874472
Ni 4.215480250199026 2.81311193481933 2.249450269793662 1.3203643174467583 0.7377369144804069 -1.0869757704151408
Ni 5.788917621432812 3.7189866728381347 0.5359158096642321 -2.131584902938613 -2.8265967677466675 -0.5004374624301574
Ni 3.6151884293726506 2.4280052742158 13.304309316405668 -0.04462560912917476 0.7528719703496324 0.8796381548343045
Ni 3.5443268788898394 7.352193574039182 1.6783443013582544 -0.4250995118187905 -1.287442627018073 0.8605466854204921
Ni 7.867297909924422 7.287763886895219 2.604217044397081 0.3795771019069592 -0.8803403231076515 -0.45746867217811543
Ni 0.46790926614549905 2.205731182600786 2.7149598493725953 -0.23625892660087697 -0.9690487814886537 -0.3399995967246532
Ni 1.655885530206147 3.874498948443876 13.05637070189671 0.02111852714617008 -0.5602562343600028 -0.7867197721370128
Ni 0.10388708646987685 6.0432122125477 6.937436486167547 -1.2744297596981728 -0.05961745455231668 1.6922219392222726
Ni 6.9199445942297695 8.75404363855992 0.24491054877590693 0.32064253235428003 0.3026237271793562 0.048281974934839426
P 1.6509806560052993 8.75412692887654 12.44839581208629 0.6648142581787518 -1.1952066150997869 -1.1781792273038547
P 3.092004932775449 7.781259012857856 6.199078934723049 -0.17968180153678087 0.894657511061272 0.8544405725227542
P 5.523277038298606 8.107294330019858 1.6691342432362102 0.003921446541593247 -0.1881764692713533 1.2713979148503847
P 1.1554773079642016 4.2472971511471656 4.023123114865295 0.6741777016715228 0.5619415924822256 -1.339696185006151
P 2.67324898425818 1.4855013058442506 1.8537102121018796 -0.9285495358230267 -1.620377089365829 0.31210724118975924
P 3.2471007567981 4.4612884834984845 0.8605435204753864 2.113418002221599 0.6928107433916778 0.13113448875569672
P 6.269993235739719 7.033173152432355 4.444991344880196 0.17578040959984564 -0.5249364760127863 0.017363430979112034
P 0.047944682589304 5.988638546203552 1.3889854123950816 -0.181013632974327 1.1802484511280578 -1.4018466903929663
Ni 3.8874737288770618 8.188835549989042 9.560657604473008 -0.17121027373065997 0.9274095086813123 0.6395706531206147
Ni 7.712007741829662 7.366834160804731 11.175259826523378 -1.056931915754883 0.01869834774045167 0.46404658250594916
Ni 5.753065767368503 6.816044551488419 13.09412064973195 -0.5477647867612114 1.142967198179096 -0.2827529563973582
Ni 9.28409395903831 1.705137870766356 9.985140224981755 -0.5045090613963699 -0.2829648152978481 0.6985941828426743
Ni 1.9835403813023902 5.90023050235318 5.453257645461601 0.42933668982858963 -0.49566755184533995 -0.4741191362506028
Ni 0.8190353284647417 1.1542001897760565 5.018210111013818 -1.0135298946201643 0.6694407012071697 -0.90828152960261
Ni 6.0788789770195235 1.365415178240103 1.4791943779803305 0.1408432314030284 0.2495600145851573 -0.37026276648456874
Ni 5.585624467527116 6.492276581834358 10.550286308539151 0.2217134246865343 -1.111669416507079 -0.8638379545772542
Ni 2.700901369375411 1.2250617402588677 11.483879138480521 0.1958229300730176 -0.05293464321550239 -1.1557540655311191
Ni 1.3210862208399896 4.271590160160797 1.7992189106263876 -0.35818218117095085 0.09017064474882536 1.0937722245116839
Ni 1.9902313700707164 9.112404853049394 3.2350560515671503 -1.0405514175143304 -0.37403174660869776 0.3837962821946293
Ni 4.1776201740562575 5.15286649133837 12.230906286437008 -0.3276516166822615 -1.7879286832979788 1.4963576143883583
Ni 1.554169544656117 6.48047712031345 2.968723233357051 -0.7391083409066368 0.9525132457274756 0.10517817390125112
Ni 8.945435531668844 5.272249278491076 12.855134818811482 -0.32718881811323003 -2.9748393769375605 -0.583012554219912
Ni 5.381341084301626 3.3992999286983627 6.730417478765132 0.7570404999050252 -0.2564359157693842 1.0267962727117672
Ni 3.440315782392998 0.8101880459439676 5.449777035674924 1.4862673200318919 -1.021963370099498 -0.39109435851793933
Ni 8.084667127338589 5.0536769787257585 9.926301168978796 -0.8494732012151499 -0.6990281850562994 0.34814665131181977
Ni 6.392124603340824 5.845860434560766 8.133881524532338 -0.8449969106113512 0.1083804828886327 -0.2441193031855602
Ni 5.74976191814265 5.544719667587972 2.9435973211772373 -0.004151303164212206 -0.061780780752222625 -0.25540978849771495
Ni 1.9987640002842664 7.663495759639392 8.164127940288244 -0.1824087135496407 -0.48744902059028955 -0.6684757661907391
Ni 6.928745604352423 5.400840272869901 0.6032560306500199 3.186716275149647 1.9254639333736967 0.9995412936505561
Ni 1.7879191910051897 0.7866474261237865 7.08629479092346 -0.26807581400115765 -1.0729015517102618 0.501364088009485
Ni 7.780120711864074 3.8988752477741264 7.222989933109233 -0.5082980961251569 0.0866160946283476 1.508655715029421
Ni 2.7403254525746767 5.341722657030252 10.014315897445137 0.1222137892272992 -0.2058152653990391 0.9639489983682432
P 7.571358160500451 0.1382832108892924 10.344038199289436 -0.13994231685531383 0.5759471627326983 -0.9230291202254297
P 9.19346484007812 1.9499743837052692 6.887645534893208 -2.6642537145986505 -1.4823219622308987 -0.36320303142430993
P 5.26239325769126 1.2193517263307112 12.879487981942672 2.422148356519325 1.0196424352758051 -1.0724395244721787
P 9.075377680072808 8.711907992830753 4.263423081892405 -1.217166921420962 -0.7315652384520562 -3.2895706860137284
P 4.145905072383985 6.21646532559311 8.716947982434114 1.3125085688477653 0.46066043964253567 -0.6927919743386003
P 8.412433032190323 0.7534284715125744 1.394592701599409 0.04495445322350322 0.23131855187646616 0.13157157629311533
P 9.235184034224197 2.5636759455071694 12.205211223760303 -0.3368399680497489 -0.06927786046021618 0.6399961706938074
P 5.7457732374246016 1.0489860109280635 5.584141899891313 -1.5450010864276746 0.8670405206749519 -0.12951315110218983
Ni 4.926548192127563 3.491030330733837 4.369912528032619 0.20774102166684222 -0.17767582685034564 0.4062672096036358
Ni 3.6657734149987506 7.258926928386084 4.2828325020083255 0.8658277313137733 0.5033060422272042 -1.628791538681769
Ni 8.422363088827133 3.48582005870539 1.0457885882178883 -0.6257000657861096 -1.8370953748306167 -1.4391246009078182
Ni 4.818529905953425 5.8484239254166805 5.847508657381843 0.18501889747897812 -0.06354352907960024 0.40680611282624135
Ni 4.25145241249845 0.26181570670550747 3.051455504853876 0.9089592723959248 0.09562678276739016 -0.6398514175858271
Ni 5.539074435017185 1.312294465196961 9.95280877496651 0.3665686054624332 0.6666227721424003 0.2446422655685658
Ni 2.5824255212258813 2.4744627619294888 3.8821487013012734 0.04810945391271714 0.34375726399487244 -0.3152349881854635
Ni 5.423236113560564 8.128968321299828 6.460115414244196 -0.2346188198942927 0.25754020457715643 -0.9010191916132416
Ni 4.987257578462582 3.7381527001399375 10.466456455758893 2.7384009873360258 0.4588778938208162 -1.6785290151162124
Ni 4.54008112301927 0.8965860168199543 7.8481800059166655 -1.3811125431694085 -1.3573249538315075 -1.0275444637317015
Ni 4.010650852675706 9.045541237764256 0.17873269043092382 -1.1316268334656125 0.12439742714217933 0.0072322560823810935
Ni 0.6632546729498974 6.477219543485718 11.12878753164229 1.4678667060375172 0.07246191461515263 -0.43129767020970244
Ni 1.0571021895585226 8.631079367792633 0.866677389570333 0.29914810992592994 -1.391782621288745 2.7611498509967674
Ni 8.25523644129297 4.8825523959939225 2.8623281829090046 -0.6960019966354658 -1.4773504771582362 1.0694367330901131
Ni 8.827357626143156 7.3754038089367775 13.197332159189257 -0.022956608796173367 0.9929705824115737 1.1775084264890752
Ni 7.055476448326775 0.0008838028041149906 3.2631619061859696 -0.4107676685771506 1.3480491849565366 0.9283577315271947
Ni 2.194070538274243 6.222092049204648 13.38483346906415 -0.8362502747669727 0.6643051797528172 0.622573861452302
Ni 0.919809207989024 3.8712691350550164 10.850047232599971 0.34519990997867 0.736553692805583 -1.7941574378165102
Ni 8.538756679061208 0.27372066929413075 12.325692517644407 1.3446753833882972 1.3147803956010775 -0.8842049482693803
Ni 6.679374396397632 1.5130518916856155 7.585870109999223 0.8672058426082226 1.1596042925151446 0.9109081685921796
Ni 0.8276308891397366 8.107905125675057 5.882115783936691 0.914797990564889 -0.7823468398802979 1.660595056345611
Ni 0.8368483508454804 3.2464251797855304 8.199682725556615 0.051670688901414234 0.8967341910846427 1.7801719221706955
Ni 8.828329346503702 6.164769802412102 4.71014606783413 0.16714973050804116 1.2002038112040618 -0.33368753846369625
Ni 6.932891611224083 4.803944846065622 5.124903155705765 -0.018587276083884118 0.8267526196891826 -0.32439094365311877
P 3.1817086037732145 3.447562039938778 11.23887974670022 -3.204682372709765 -1.103357554207274 0.653927436062919
P 6.538752578507294 2.9753151991933975 2.9203000941711736 0.518091685176811 0.9192074324864944 -0.4186604410616661
P 7.562964347481265 7.581621378403735 7.227717121301295 0.4877632093965987 -0.6210353133205886 0.3155360643656501
P 3.5651309490851326 4.170614532980707 6.011577624848158 0.3272857487024105 -0.22925549869985032 -1.2680066297806483
P 0.7434604715093046 5.438691094533047 8.947589974525368 -0.15291558918653017 0.44119975981476267 1.1414245362823245
P 6.3991024809775015 4.7639562396092785 11.927921101675103 0.7047753719527217 0.21103229082360428 0.7842684823830428
P 2.390552395176498 0.7702577427092561 8.996039951702155 1.5283853322478644 -0.2289107137659219 2.1920179114136893
P 6.515357254017214 3.5410230296639855 8.865182535263353 -0.906506182869742 -0.3404762792507556 0.10556358226512788
