# total energy = -340873.7111822281 ev
CRYSTAL
PRIMVEC
9.20873420157157 0.00000000000000 0.00000000000000
0.00000000000000 9.20873420157157 0.00000000000000
0.00000000000000 0.00000000000000 13.47791333711566
PRIMCOORD
 96 1
Ni 0.4191907973153742 5.643664946787202 8.480329928632635 0.30106358178108794 -0.45508963042297756 -0.23512507010674988
Ni 8.721712036593132 0.926352634079657 7.258395338703394 -1.0896497177028783 -0.9660930412944394 1.4264760589058723
Ni 4.292301595269517 4.451097010767997 4.131654303288971 -1.5865336584538223 -0.8232386929986532 0.020877357669641463
Ni -0.3105185229998114 5.839939911176821 2.912496146772674 0.618464981490251 0.19798008562533645 -1.399251161751648
Ni 1.2333165856121513 4.1823216806732315 6.396159438557264 -0.4770627922599591 0.10593459245130143 0.08618466351788383
Ni 2.677503979592413 2.203640926314706 4.644529238857201 -0.3749987385076574 -1.1601948749112923 0.897712495837512
Ni 4.885353297514798 6.362572421684867 9.583402779664482 -1.2924678481468064 -0.848479726953629 -1.4966098396084806
Ni 4.499074516842405 7.573253938212394 12.807819018808278 -0.48800540731439185 -0.6718174289694624 0.3787738892793735
Ni 5.932570570217601 8.316306714631576 3.7274249367066274 1.0430153056737907 -1.0844260074100935 -0.19367117383733742
Ni 7.147957750008857 7.183660013166338 9.526809581712298 -1.0331427837550853 -0.08175028189561405 2.0038774375865938
Ni 9.237281447838402 3.859666045772063 10.247082711917226 1.0584928324840996 1.7442500114631057 2.1680817123130662
Ni 2.8630507684394835 5.970869696467786 5.6459791017347065 0.942726598654357 0.5602076405102545 0.4831799609012904
Ni 1.023311398274942 1.1795744118213183 10.319755280955116 -0.9865891043652621 1.035357789128533 -1.2285877616633938
Ni 1.4457252526202669 0.2169043711281779 1.4455060847422303 -0.03080053032062437 0.8229671845048214 -1.0475041946830799
Ni 5.146227533518998 0.6520769269449214 12.527113773335511 -0.11501547170664708 1.5876361474893819 1.0956385882964614
Ni 7.8496817265697 3.9976497215914337 7.356851443107451 0.6992202464624473 1.2480435563951604 -0.9495724179315969
Ni 5.475541083370607 2.9524123267784566 -0.024348814551121038 1.301164604589856 -0.001021499285978886 -0.7245669527573522
Ni 8.63835457306424 2.3648582389528343 5.68811090323022 0.9338861175445917 3.892895983649063 -1.2429807971602722
Ni 7.857371019769725 3.90971551708001 1.90243427551114 0.4682667912348838 -1.0012639327686175 -0.04107080189838088
Ni 3.6415571721881212 3.6953361809164393 6.646552293100065 0.9942646186326489 -0.5256229605568495 -1.5372466392932365
Ni 3.0043495886325173 1.238583981672528 12.162900961963597 -1.285755212013321 -0.2805268952803169 -0.0030431577016979848
Ni 8.312254871508209 4.954805572143047 4.977474713544845 0.02688988241230853 -1.3822124611018067 1.3793999313536762
Ni 6.615177214223652 3.853413315133959 11.092120379751542 0.40240104178001024 1.2580520896710978 1.3055707040773514
Ni 2.5522191484710484 7.4423794053276575 9.081256019638802 0.03232082361989272 -2.5026930481426124 -0.9740994565386837
P 2.6318102396420855 -0.176898866398994 10.298460082721514 0.9158714261347258 2.024018945531475 1.3246639732633767
P 5.894566123467298 6.627710301702974 11.398918574065354 0.5258139935217332 0.11145912181395642 0.8720469727506078
P 7.608753609213708 3.0148383370814136 3.8876237633232917 -0.5727762212038845 0.36452946354521737 0.06596190871310575
P 6.9591418604599795 6.86394196452961 2.2500437388116232 0.9544616277030983 0.06848004714926915 0.05116289602706027
P 3.8700074544710192 7.755605296232627 4.205028577885952 1.030273175516774 -0.9593657498729349 0.37852192116956745
P 7.59397359054779 5.026734996317173 9.352001098015588 -0.44334097452748167 -0.4411329111325693 -0.3859123000963676
P 7.486636582716065 4.05091304119496 13.304600770189246 -0.22901021545826364 -0.1689183923726897 -2.029768703531059
P 1.1229406954379004 2.7809917364569414 12.627578302705945 -0.16272357641588747 -0.15781739736352177 -0.5022482903866511
Ni 2.8791752623236078 9.17353858852035 6.072541490914296 0.1990625200562378 0.30491663697859095 -0.7932539737111047
Ni 7.995511244073407 7.225421623540126 4.560724230837862 0.08993384614767092 1.2797509148007702 0.8459554178698786
Ni 8.444777767845405 8.289896064454723 1.2185936610993373 0.17262103803525755 0.6944904450869459 0.3558558470306194
Ni 2.4485103819816096 3.0468386890216372 10.68161065632798 -0.30886070922800357 1.8407399135617397 0.46239259184229403
Ni 6.334283189696272 2.2158148731535476 7.334087451741628 -1.6339070055314633 0.34844001418252246 -1.6215826796381556
Ni 4.288001116318125 4.39146124697954 1.7324244632953063 -1.4174903104674943 0.3174134838940211 0.29022046841899696
Ni 5.856119657467174 8.439197274816406 1.159888900355817 -0.10396229921627903 0.8740154093308883 -0.10680748197455797
Ni 2.4487129741377776 5.9021725380579815 2.907172577432633 0.47735384113781665 0.5802835853245232 0.23756196168301666
Ni 1.3969650041243 4.079745588511461 4.127894377045174 -0.5479825591989723 0.7699548939738481 -1.1310876731326909
Ni 5.60889276580122 0.03296726904920892 6.0682686381660185 0.22222378866404954 0.9359021195333558 -1.1545196789033858
Ni 0.16618818745174962 7.782678975284213 10.598316733066248 0.22784190618177536 1.3997311867118603 -0.4442912542558929
Ni 3.8558352122736075 1.7512434328564692 1.1918818853085438 -0.739846761734558 0.6435651189919884 0.7358209284046165
Ni 1.5115861208437142 9.452857919470238 8.219411490703452 1.2800167668676472 -0.49972783795764253 -0.2634149181903786
Ni 6.715883933308051 9.363625283412464 8.233590179014923 -0.5794243226480215 -1.4756954580533166 1.1195282504298654
Ni 1.3731972607120073 5.2961181028804445 12.451638065555 -0.39232823092504043 -0.789877086819072 -0.2547346168075613
Ni 1.0004829457685207 4.316511357931632 1.3932253370961203 1.0769852348613322 -0.6575596334988675 -0.1622144979899529
Ni 5.654254991314182 2.7312921970551027 2.2894801437566614 1.000550708751677 -0.07041480227813679 1.679229897837979
Ni 8.923733251230436 1.7612164921805735 0.6214763026291333 -0.11562328049397506 1.5890692803914825 0.2673834159198234
Ni 7.884094766915201 2.5403859248039433 9.015456849935644 -0.7796271269562896 -1.640690347001884 1.6805406462296026
Ni 2.2788026162531536 7.469572797926069 11.763671017271426 0.14084271718239616 0.09825522152917272 -0.015049695244270855
Ni 6.901274173670809 8.691958615839503 12.026989251377765 2.2984096460070673 -1.1331640960457452 -0.9884649812317364
Ni 8.210590444049195 2.110384073336678 11.55572029857245 -0.06405852104280581 -0.1670412299546349 1.1443555938861907
Ni 5.985253739555737 4.227490522764396 5.699082189360172 0.6964025745079943 -1.3837414961518235 1.0498171590869727
Ni 4.44332483895863 0.7452895779979668 3.509971725009921 -0.3804744169102479 1.473510791697172 0.38779383338979667
P 1.0569601136676263 6.215380011494209 4.6114413353877275 -2.0098143718963195 -0.26046946240880947 -0.4658152443705978
P 0.2284613327641436 0.07712867560015484 3.236666618477919 -3.056115033189601 -0.18767458993427033 -2.0329972377706858
P 1.714961019433597 7.42079413196136 7.038732951631016 0.23957796367178094 0.642858322732951 0.33877960827462295
P 3.3293074071265076 9.111140204420506 0.5379236139315684 0.7661406624340805 -2.0352834627017016 -1.4351543034061607
P 3.2795894502559264 5.865457314119658 0.3691035701965048 0.12143165964563603 -0.24099926949933978 -0.17590356544127125
P 7.8866547950704184 0.43591109631332076 10.102841701092567 0.8482401001389972 -0.5578406829399747 0.13146796083571555
P 4.599707566051833 1.9935160254306699 5.572187671470706 1.372777798051468 -0.14006830091021683 -0.2298208842850171
P 7.061386438184384 0.794925577132643 0.4284087404210329 -0.7819058956881373 0.6891728895287744 -1.1276899603050514
Ni 4.983674954397032 8.729382912324414 10.178318329746514 -0.9580747989756532 -0.2564824527366035 -0.1818016760932611
Ni 0.7905560326734671 3.0121678041137403 8.334970977455301 -0.7055022228164172 -0.1913381548287866 -0.19581084588815953
Ni 0.6033212828161402 2.193842832943656 2.8734234868353012 -0.2047444009323635 0.17335046000211435 0.2499356527570212
Ni 5.475375326151925 6.484477647291969 5.473246266765283 -0.6624421584021495 0.8380197079625697 -0.6979866311656624
Ni 7.611258384962698 0.6354017507453942 4.789227923780114 -1.6171752945990792 -1.6092812365629832 0.4675630802996399
Ni 1.5177743903412195 7.049672928064106 0.9217022232221568 0.10923126092470221 -0.23426503609929977 -0.1660158740139141
Ni 3.128787216191724 3.613212687793298 13.244732025421195 -0.9757081957867002 -0.517549696630412 0.18961911525515085
Ni 4.808948428436226 6.644930634977281 2.1742705889109217 -1.2650112945977505 -0.3558033965261292 0.8742792045152362
Ni 0.5391474547295124 0.4352793771354504 12.347534244361034 0.09528379760567461 -1.6186611351159865 1.4787918375904532
Ni 8.225545428668168 5.929900037249928 11.618365476753443 -1.6985314263800684 -1.201341781463247 -0.9122325438305581
Ni 2.884525536993326 2.3219639542513777 8.490667653837843 1.0824264604815617 -1.5386795150850212 -0.3084873850489849
Ni 8.884255406980726 7.774473992959395 8.314309340146442 2.284872273642265 1.253223557934203 -0.6580365731352861
Ni 0.5741019686560452 9.312977244370384 5.225697069396334 0.8963271854542112 -0.25156264683748286 2.3823677341872775
Ni 7.172968672561273 6.2877330374494145 7.259662460552884 -0.8341036607376151 -0.9007854783358809 -0.09745046623969023
Ni 4.416868145109921 7.805654767540574 7.293101216801903 -0.5981941470563569 -1.3981769548508631 1.7831754848837096
Ni 5.649263857284945 5.425187723828408 13.561746389646514 0.7299367017096977 0.6509130747166274 -0.9191902060953138
Ni 7.276327507144604 1.1631736559060553 2.653773991991043 0.7938257870541747 -0.627574657101003 -1.295864018312549
Ni 2.6529442850241898 4.594025776944749 8.46423766531881 0.9911317294306222 1.3666575440863429 0.2882422616467036
Ni 2.2032265332679977 8.874429687406563 3.558721843898079 1.962312983881246 -0.5117341183898994 0.47860365438451774
Ni 3.776971611117902 5.160860212434974 11.65427125294053 0.5841898623574648 1.405638810445547 -1.1047783458142004
Ni 5.209160024212376 3.776934776180417 9.185521914557706 -0.81033561178374 0.06933673872260962 -0.8904570998266794
Ni 8.350480327883423 5.960141520925236 0.5289349683117548 -0.31553786413786306 -0.597190902602823 0.7604659806468065
Ni 6.3708602826190255 5.075145312907031 3.367240946622152 0.39162169177631906 0.21490025841944282 0.2823760326739137
Ni 6.015550475637273 1.6804006393381552 10.242311666639463 -0.49274472177159007 -0.15722347253326469 0.7933233934964595
P 4.678055478082746 1.2733561626585093 8.588760013234234 1.0936650095098583 -0.814834528095358 -0.13717349586092506
P 1.4669513853460843 1.8489020608639724 6.66823794167101 0.607181952377264 -0.01675330819893889 -1.1214020704138106
P 1.9014194729834242 5.592924820401407 10.08522631311373 -0.4907937686928064 -0.24150911925622282 3.2362634899501552
P 4.564051346566209 5.53828939937656 7.383928805652785 0.7766011956457722 0.14194546332827168 -0.03608851819244107
P 0.17349255555505477 7.375118809479774 12.696706429884326 0.1479847275438161 0.6928678218818584 0.7479387947140731
P 4.507224246760994 3.0382101049157413 11.44994601296353 0.4124967354531154 -0.7909381810937346 -0.3608448156047785
P 2.798101564918793 3.0396927111495184 2.6573193547239886 -0.46324722653310546 0.6219112881676386 -0.3560908458595609
P 7.832249592404852 8.162861573802815 6.635284485723358 -1.2666591146138186 1.6509500770566794 -2.8440075070239472
