# total energy = -340862.0646243539 ev
CRYSTAL
PRIMVEC
9.31367524182548 0.00000000000000 0.00000000000000
0.00000000000000 9.31367524182548 0.00000000000000
0.00000000000000 0.00000000000000 13.63150515713538
PRIMCOORD
 96 1
Ni 4.643658637060763 6.316422603469749 3.9631689455760832 -0.028565213232202416 -1.1923238942353531 -1.639268526953693
Ni 2.7530198719780055 0.8451992393026616 8.728497707031096 2.9134455472111114 -1.0285471939646027 -2.46240334738463
Ni 4.14083195254832 8.130679920088282 0.06265216018461055 0.6919831052840599 2.9504704611748926 0.9063431749293165
Ni 2.9515501677301583 4.419059365055547 0.47561957717752157 0.48572689569286015 0.8011881409565169 -2.1428766738023484
Ni 0.9949892111793142 8.162169455176386 10.973661510010539 -0.6968370909422515 -0.851422868742353 -0.218909636689152
Ni 7.95358039045199 6.341252860951229 11.790801440718129 -1.3216221011132594 -0.3885011438694664 -1.5977436682370287
Ni 1.9018896844517104 2.5956653332872275 1.260366546324502 1.175339958082847 -0.8539021835207811 0.4177384434680289
Ni 6.548044386405586 4.78575737614364 13.505849491510432 0.9230982829004682 -0.8299209901148352 0.613446445229737
Ni 4.288304682091367 9.217529907539106 11.250517018194051 0.077109440689493 -0.6564674288759532 -0.6084582479865264
Ni 7.828413912472389 6.3283068527369535 6.311481698895884 0.08372128957905581 -0.7341458546950389 -0.7785495776213947
Ni 5.291536495622935 1.3568720523056939 9.594957272197588 0.9978335669308299 -2.427876003031722 1.7539348428510373
Ni 3.757052661557364 3.6322680442517083 5.532919009931837 0.9858344855874247 -2.6508970907860867 0.267540510322978
Ni 2.5067104236077 4.2254560033647985 8.363296403511374 0.8850261586190952 0.14509172226673722 0.2784227044531205
Ni 4.140319700424733 7.971211177178338 7.754731567015716 0.6123197878244615 0.5683192138737954 3.380067860864037
Ni 2.19071605907969 6.370693387544988 3.906039794651232 0.4735948883160167 0.502521855763012 -0.9051982626915959
Ni 2.5793570884072303 4.947433460022493 10.91064239103194 -0.9780414719055671 -0.8670742021263648 -0.3166241552235063
Ni 3.944546252464973 0.6086039539305494 6.045272652575491 -0.34870483780813494 0.3612880737897842 0.4908865855169288
Ni 4.9835239505479 2.436364236526821 11.830115394152141 -0.2491751204419128 -0.19234705570927518 0.04173157541083135
Ni 8.181318370923544 8.680000470072425 13.052643273158559 -1.0133581449289901 -0.07272725246139733 -1.167282377885693
Ni 9.04572985896319 6.727844881784423 4.038578977740489 -1.729102100078074 -0.8579352159395741 0.09105921800136575
Ni 7.678957370159817 2.2170923866069043 3.9490466202125543 1.8482585905362878 -0.8371280493862358 -1.0055193656108619
Ni 1.62289855059659 6.693943104877976 8.452228029003466 0.060487001641463575 0.7388111213811921 -0.1265260434494079
Ni 5.422812744385677 5.290502677700788 5.941918801385697 3.3709558712604397 -0.08133196341127283 0.7930976506388986
Ni 6.265104254361362 8.477679508605732 0.9944918609356866 0.805918970773283 -0.31122303881259306 1.2677991417555325
P 3.5235122615768217 1.6775418816708012 3.6497535376484573 0.42772615080836013 -0.20568259647591672 -0.755886331695924
P 0.5606301455054338 5.77555887036227 11.30845087063668 3.1124941833102784 -0.8875275848847102 -0.481865612965241
P 6.577540795049189 5.318397134248813 4.195573077209761 1.6110972067257994 -0.04285437616136491 -0.3779025424180137
P 8.197552106403748 9.159002774000612 10.652802613043452 0.1701635776337005 -0.08312659341785039 0.9995487498497237
P 1.5832968046058717 4.230829993824969 6.313839921399375 0.2878648237026268 0.3404857923324523 0.7909440946310056
P 3.146289797767772 2.4852796574918385 12.981895666686288 -0.4262328540922853 0.005993498579273549 -0.0933914656789682
P 7.626046382630825 6.6680697157993745 0.12273095197382233 -0.49160058086481784 0.6766827274815636 3.0810192526304485
P 1.9337238255138638 8.685439656257415 13.45999361277447 0.22527543100617978 -0.5198983993682466 -0.8418506516728856
Ni 8.366641875562141 8.552887434023194 5.7895182064137485 0.5969559037738816 0.4542532505646112 0.8436866764403599
Ni 0.9293296653455025 1.4690459536961484 3.0867316404096234 -0.525287945814934 -0.16601021758695925 -0.027378649123268976
Ni 6.053050502546528 7.8072066745559106 10.254326342943052 1.1965692997752684 0.8157418704009758 -1.0753114467033353
Ni 0.5932149687705155 6.866767657701065 13.17313149219857 0.4492725095205682 1.0019146789787392 0.20808477815950616
Ni 8.816706591345183 4.160940176817831 5.760060915205036 -0.29513873165622073 -0.3254643792229556 -1.5037636770444425
Ni 7.437351327651531 1.6676786998730186 6.768028732461035 3.0459694601151672 0.3255744224382586 0.7865955878543227
Ni 4.859121193916192 5.6201974581159915 1.509934849568315 0.5059031135304191 0.5621056288639158 0.389720103878232
Ni 5.639849312311762 7.020517804176788 12.37016790616936 1.8722133015796725 0.9622050190939427 1.7351963859012698
Ni 1.3826895593344501 -0.08042358340307007 6.817401454867292 -1.1790642010119692 0.14961583538933587 0.6493503582151978
Ni 1.2689230195233903 3.524695098298557 12.496532122750656 -0.40516677745060536 0.017400711974950675 0.36243787112351133
Ni 5.783950491514113 1.1928209813083948 2.813311015556631 -1.2235527703426476 -0.692811000501994 0.16266855480823597
Ni 5.313907942911201 3.584796242907708 3.4166275962042714 -0.027938378281480918 0.18002555802944478 -0.8066005702213399
Ni 8.18170023159749 3.3862845745055035 12.708325091666211 0.38930255672483927 -0.8017656107265418 -0.3590812959464526
Ni 6.192057101537936 6.557879627178445 7.853260003201326 -0.7109971844927174 0.5652372325143621 1.5622457324407353
Ni 7.593057345871858 0.24204192249708212 8.653851396214582 -1.2278760803083497 -0.37055690068621994 -0.07664844189267445
Ni 6.2384671439348685 0.5613817590758596 5.16916225740063 -0.44382279925990664 -0.12061353461971484 -0.711270235648446
Ni 0.43394833260751386 0.4851279079587832 0.7943307406955339 -0.4703139035718997 2.036030111059739 0.07835951104651022
Ni 4.556417443576506 2.313460981565974 7.8479437575259965 -2.3811762849823377 2.69503264765272 -2.784183335777463
Ni 3.8297924631066373 8.494611769709008 4.135730852764897 -1.2083246405389836 1.801098130800401 -1.6958567077613824
Ni 4.10889536106145 1.5950786034483597 1.065286035782829 0.7923108930715451 0.08065576327985463 0.07809365897963325
Ni 1.2280266727112443 2.2077973389825543 7.708057016249515 -1.0127508503622946 1.712469376617399 -1.4760687822323353
Ni 5.162132295530028 3.719881784734937 9.690882536227882 0.9631177607161994 1.191816358471315 0.8418061715881954
Ni 5.075934233642893 7.727462989425965 5.749127592152708 2.065542518696559 -0.4607769106157419 1.365717805880893
Ni 9.07069050789431 4.997857696333345 0.669488378605038 1.2431566606165043 -0.6661813137296075 -0.8726344698229616
P 9.219541661333555 2.788477032605161 0.9635294798511277 -1.2896584037224692 -0.33386314480961216 -0.489813407057408
P 5.674198145616976 0.7202479072149665 7.326034284358712 0.6194952225269783 -2.710032977716294 0.7661674019069579
P 7.693291115945263 0.35339435775480366 2.346009481498656 0.7031033835669375 -0.14932967160748475 0.19969398299264965
P 4.617766620632213 5.251180341959299 13.018782476421999 -2.2042226810099974 -0.21304186505446535 -1.517623208635354
P 3.236380975794164 2.7045142527118573 9.91015811161779 -0.5332339401348881 0.0026376947331631997 0.6342338142887335
P 0.7203457008021966 5.971378886696901 2.3534110590007313 0.671189051356844 -0.19085941542015517 -0.7740640310462152
P 4.394024206724632 7.746770237647686 2.1727667446692216 0.3147742464989611 -0.29396862260751955 0.3928979873855814
P 2.8522384514792107 7.935241764427595 6.21190361154067 -0.9073052817322697 -1.1660685600832499 -2.4594110975255257
Ni 8.719881626312372 6.146485289888694 9.47176901878253 -1.1274811867283552 0.37690058351606054 1.0204181370995653
Ni 3.065456412665833 7.267255681595913 12.032556502026003 -1.7864302443755815 -1.2142489764432185 -1.914375279659703
Ni 4.678957465213355 5.876137246409722 10.801181563161498 0.38538676661020077 -0.87618233507522 -1.5616240396963363
Ni 0.17187735207820218 1.0898489907925473 11.927962069329633 -0.23222769395429685 0.5676869796064352 0.06764135329805769
Ni 1.83853806727653 3.745988015687897 4.295492045069033 -0.562125683468574 0.323667692333849 0.23511041481873057
Ni 2.659678221385583 9.132607819123448 1.9295941420302596 -0.5342785793493185 0.583474581457995 0.6131163155838278
Ni 6.863219147535857 7.795015074014554 4.218746431913313 -0.20634928352563817 -0.7392034717236043 -1.7179944202006863
Ni 0.6123797177651302 9.753373569835437 9.07130334770762 -1.7043197509270713 -0.9552836093837613 0.809074228572813
Ni 6.566438894479826 1.5236520300704621 -0.05924894334900176 1.1487051291041377 0.8995243522352702 0.04613021869915926
Ni 0.1378917520969859 4.701654891125722 7.963593522416859 1.2169329510332847 -1.2035940678325334 -0.48020802275716007
Ni 0.8298987340548836 2.767269794688683 10.141716561563799 -0.09724066422172929 0.4596350837018149 -0.26919090144220736
Ni 2.3268261051540926 0.8443097833426161 10.79983201165772 -0.5835244608593241 1.0982616277416055 2.837150117782482
Ni 1.2582402343278696 8.787098418601886 4.357555580995268 0.5153449756696092 -1.485505759275519 -0.3569092279957982
Ni 7.17703411211988 4.402685924450731 7.971308970765568 -0.9185134917432632 -0.9988206134344474 0.3649899481214036
Ni 6.528038612560792 3.1924856256402943 5.560590869647977 -1.8500959008553426 2.063398989990995 0.001540605014242508
Ni 2.6216598001404954 6.779712737716293 0.9812543346947158 -1.547471145234722 -1.3473873830028213 1.42005678564309
Ni 9.147435189682533 8.142675933455179 2.239478735775129 0.17545130839520107 -0.7025354268786095 -0.10251193992299763
Ni 1.040365435654098 6.650606575222564 5.799155997277153 0.20287058094841837 -0.2936804019431394 3.2081158238713456
Ni 7.353658644332483 2.2440182209576025 10.895580315863503 0.17694666199380496 -0.1877149562539025 -1.58764823167424
Ni 9.501624935280143 3.8576589786297393 2.9160650660780805 -1.6828034741218505 0.3880614852288865 -1.2471177021467812
Ni 7.4830907854503135 5.439428340539827 2.2018291360590236 -1.2097582876617166 0.43512450015496024 1.138536158990936
Ni 2.0381673766756503 1.71441472089405 5.265877321068743 -0.0348441042623787 0.19237199540993968 0.7612311409476051
Ni 3.00266361598911 4.590235397408185 2.6355287935447236 0.7004659459440904 0.07219760521017243 0.571907445445686
Ni 3.3785914789767326 5.738350738839946 6.042614529737826 -3.5178046854275995 2.201247400431757 1.6084065472675138
P 5.860052529729108 9.266259055004637 12.541202370662386 0.10630611685810724 -1.0934053280905687 -0.2733296062009293
P 7.160642044165114 4.725646917859515 10.467673764211817 -1.0387274769317143 -0.7283788703042745 -0.5813017421763924
P 8.4239861723789 2.531624504163949 8.605773274629756 0.6573601158935518 0.08145511925269842 0.5535569679629563
P 4.650103700142978 4.452579281288049 7.752714225016283 0.48685766686319387 1.5455327905614284 -0.8610218252846977
P 6.581061364189474 2.8204136240920317 1.5680046816655706 -0.5747752539117843 2.1344545111769238 1.127923673582412
P 9.32457197401872 1.0234052335258998 5.128635663484962 -1.0432744728724483 1.0852814134318536 0.012278817367353048
P 3.0016391117419374 7.988190006656485 9.643199314461965 -0.17768945369710046 0.3488205374503928 1.4780840128901513
P 8.61451602132813 7.630982630367203 7.926569801659027 0.3320266058215056 0.5583826714863739 -1.0026052772878602
