# total energy = -340861.11845650914 ev
CRYSTAL
PRIMVEC
9.35700195478811 0.00000000000000 0.00000000000000

0.00000000000000 9.35700195478811 0.00000000000000

0.00000000000000 0.00000000000000 13.69491818108725

PRIMCOORD
 96 1
Ni 2.4154819662292155 4.425272401625998 4.448616249934709 -0.4875881172713151 -0.17134242843315006 -2.5578946330154206
Ni 4.105805643186048 8.186983657404433 12.037421747880042 -0.797267465745872 0.9643937992151456 0.282952474002674
Ni 9.015770742579882 8.885848771373194 7.839861344186052 -0.681138192149756 0.24486106644759123 -0.1942391305256655
Ni 8.949495098211356 3.860698978745344 13.635811009892693 0.3427789592420032 -0.04199048549917285 -0.5279685779708908
Ni 8.463520491184946 2.319170345802105 1.632954962684933 1.2744523854059921 0.4005814720727682 -1.4226114337441436
Ni 5.873464940742323 1.1483099856267234 7.671619643149856 -0.08029606594759074 1.4229330787496204 0.22826973774781334
Ni 8.524266147438011 0.744100603893256 5.28354059264811 -0.7431040923295913 1.8888341979658048 1.1075096287024344
Ni 0.6680627994555968 2.9962617163788634 7.961924369507504 0.9787133011616111 -0.8262332568506029 -0.7969746170958016
Ni 3.79929833236016 2.7659765429278176 10.141210344193397 0.10315471571331912 -1.6422808314174553 -0.2117704545412095
Ni 8.449765698410454 6.7856041987308195 11.629012007999316 -1.4293742063892738 1.0865186282730643 -0.4855106659169961
Ni 3.3797210107268105 6.308696526533309 5.596633361402356 -0.21668280424116232 1.0995376662405514 -0.7248448890090872
Ni 5.484035879190208 4.390988346710528 11.689475082795383 -0.5707121395860042 0.14492202945809232 0.026085384233142172
Ni 8.52036427765096 4.864611711245557 2.0652344143804413 -0.6699104417547366 -0.4727060579531601 -1.5373888212980553
Ni 5.437119871726735 5.052266384097564 6.37099918790044 -1.5363860910651541 0.7512521753580224 -4.405098299924632
Ni 7.145745844375341 8.854512172052258 10.332980226475486 0.40873058354246383 -1.6204346820766415 -0.08256660714932232
Ni 6.24127932793452 2.493669074000413 9.96216317737762 -0.42508562786171955 -0.025040745018711712 -0.2715324050911904
Ni 6.209119312447492 3.748312029075663 7.753542066074507 1.759803900037305 -2.8757418620127506 1.9977641256000047
Ni 0.8292493210686868 5.8838324988335735 13.655216496106993 0.3799805079929649 0.540843634161346 -0.3454914730771598
Ni 0.6522195238598342 0.4250128040297459 11.915017191989701 -1.3943835492467018 0.3252185817607367 -1.5426161311352657
Ni 2.993941179910786 7.306976343897301 3.082424732558889 -0.6364850722167553 -1.5665063074893022 0.11814990357057072
Ni 2.8912012991870246 7.15084541040398 9.78718256358211 1.4179099145034162 -1.2705959877743795 0.7546856265196035
Ni 4.493849868458826 8.431276262680932 4.309996009773485 -0.8005908736921502 -1.7740197865263707 1.867179852920823
Ni 6.934034319670803 0.7514617572780815 0.9068581661232423 0.7159606991455798 -0.554441941671071 -0.8435216116174054
Ni 7.81893534516505 7.197143855742883 0.5667405045177781 -1.356743884517057 -1.3924256541893827 0.3286672024309695
P 4.8036508439490815 2.6391610963477508 6.163630247771849 2.49460615736942 0.8726126154460907 0.6564358043070695
P 7.063020590688749 5.251589238303171 12.98967073015911 0.03641016319791794 0.11825146214544151 0.37209364904572045
P 8.185383610081685 7.240962695581624 9.11269431093043 0.245980267653699 0.9810548048105943 0.319854746345662
P 6.285435019841208 8.166519894276666 2.9308768585900205 2.1159883340519365 -1.0155785496190768 1.5996938499848643
P 5.436717520645576 4.606405244162479 9.565954967958076 0.6209399253933049 -0.24213055489030558 -1.093126106287253
P 7.41106363289285 4.781961313574065 5.58474622620459 0.09879489608272662 2.0324817315868478 -0.33883951497828096
P 8.894812779181333 9.290894669075396 1.7106321138532665 -0.13775225118253048 1.2326904709778577 2.4926071246615202
P 3.5884663658330394 3.816599428849981 12.808419053698659 -0.007566499493348259 -0.8239022947245812 0.261518215388298
Ni 1.2410659453366184 0.16152618078160294 6.141663750140966 0.9822236283077148 -0.31111530959013517 -0.008176622273521403
Ni -0.11009074140651047 3.2912692718851244 3.5422727189152736 0.8573222649459235 -0.3764514117937839 2.227311958729293
Ni 9.232899971377229 5.273016772625339 7.255143231941994 -0.49768663915789774 0.4445187968856667 3.158832661365502
Ni 0.6636706227696465 6.145341987582906 9.55824479840285 -1.4875073630865803 0.36416925199232125 1.456641269635343
Ni 3.0764418655520793 0.1584505342612113 10.437978887454868 0.8306429558825243 1.9727025546456864 1.1290930113001652
Ni 1.3623420467993386 3.790755389636955 10.187170066063977 -1.7013305863917603 -0.2890380180751216 -0.6635073664418701
Ni 3.3367068730503866 5.960054636208414 12.345325123387532 -0.5888083349660828 0.2086905300643051 0.14466466203164763
Ni 6.356772802230821 6.604190646137716 4.788592620811673 -0.02651424424044466 1.1142878279665325 0.7051106438049535
Ni 2.4783610189126106 4.541477008065742 1.1599706813788138 -0.7825147329167298 -0.10560574835697295 -0.6007781057334493
Ni 5.396323343497627 0.6447161440463202 3.0803016288306355 -1.679673670243617 2.8128557640114913 -1.5355810786653554
Ni 8.059662932722444 6.838227977345612 3.034327871457225 -0.5225515207203776 1.4502055413123283 0.880589205893664
Ni 6.594786859240869 8.36021919034794 7.5201120042891025 0.274840643528817 0.7778142421172668 0.5323425386688703
Ni 0.32943757965117443 5.1798116768248486 5.235224777702279 -0.2502524126664916 0.5549679893778701 -2.7018427285960183
Ni 7.562740633487764 0.9661946578920637 3.199584688891338 1.0780339878408207 -1.1497446261122457 0.6203822531176219
Ni 4.8849070483393495 7.332614529068804 1.7196298068682 -0.9688081262327574 -0.06402226848823168 -2.0340439338676455
Ni 6.316032416013038 0.0016636749355814886 5.386498491515847 0.2697123211633161 0.24183539224738995 0.0056556556238805825
Ni 1.7736290647604427 2.5417547066998125 2.0628380861970754 -0.15884815262088126 -0.6045370585552492 -0.4948797658367219
Ni 6.500243712170478 3.021403980450334 13.27555240172458 -0.3675620797239541 0.5757450740242214 2.6926551485594787
Ni 4.09098415219639 5.796363245190065 7.903925929008583 -0.6002643993218243 1.6401213618722916 1.4754671440925944
Ni 1.3912364686276606 8.551495022930375 9.474828997976967 -3.8290367231012574 1.5687405961364596 -1.201777069228453
Ni 0.3340262533767603 8.226807057437249 13.880621057373567 2.6728962207649967 1.1326701871284623 -2.050944566277726
Ni 4.716022521273487 5.123379598441879 0.4625147318942962 1.6605449198339661 -0.18683718163463953 0.13769825801614352
Ni 8.226610560397614 3.0248660711486757 6.228325494521591 1.3574126284493073 -0.8899819599624736 0.8504800452131096
Ni 1.4171834348614485 7.477966196387831 11.687078754612017 1.0673744512444456 -0.18636821241802098 0.5359683083469157
P 2.0026791139623508 5.053931930433523 8.418594718022923 -0.014665829542290872 -0.6624133620467431 -2.536565532520341
P 3.959752200725466 5.044780782587636 2.561812375945665 -0.23742260789167494 1.502460899072619 0.8324501842945923
P 0.20326870190152746 5.021753200942721 11.647486472525818 1.5248199834941094 -0.8205930278456899 0.1077770449766789
P 0.8179254773845431 2.038076652102423 -0.21700010217130156 -0.5867316549427122 -0.21550292500044824 2.1100359731232436
P 8.074400210695115 8.823278499752083 12.529028334342485 -1.4546144690133014 0.6558958726431995 -0.6733868303391113
P 6.57190898962615 3.4572905563734393 2.1984725070560263 -0.020620761574145132 -0.645457708029011 -0.3922557258158922
P 1.3881580150067026 1.4121961528554587 9.70866983214523 0.3379362864377212 0.9079652839137718 0.20909933546694956
P 0.9004963405399922 5.541020020684535 3.0823835617505844 0.6815575390753617 -2.0405796781036343 0.6176365720516848
Ni 6.795625547752236 2.874751689868958 4.33162004113529 -0.8340661226314603 0.2898461157987137 0.33320442817969065
Ni 2.47037949630265 0.4585904053027165 13.159323467079929 0.07560200290603108 -0.19869176698038038 1.434847313688703
Ni 4.314401286262077 1.4598232924623755 12.254308630328506 0.40663513446601585 1.0888200227127314 -0.8080817827525567
Ni 2.3797007910117602 9.44654839547246 1.930805175364589 0.2840487923906463 0.24770984875029595 0.03894115714988777
Ni 3.014666939091399 1.9529185779251048 5.576844238110672 -2.737681849781814 -0.6303763882158563 -2.63458858343405
Ni 5.845534290108405 7.1081119827841786 12.837479094460388 0.8555224927330234 -0.9915580183347633 0.20880237305182106
Ni 5.076005097885923 6.595788058442821 10.305863635005773 1.2101658075127804 0.6735277267923497 0.26813186405007366
Ni 3.352613776258984 1.701028087116029 7.729685454062367 -0.08225627499775512 -0.4594998436755312 2.466950343325364
Ni 4.474967438650032 3.3056696977898485 3.6512705625013346 0.1390311178949541 -1.2634773744517274 0.006426472351634092
Ni 7.979828992619064 3.5182888516774646 11.443035045585722 -0.37896775045773445 0.13782372785041425 1.9285677691100012
Ni 8.177224304435864 3.9122841301506353 9.352957791194209 0.39289670183400077 1.1500369605416838 -2.216833427795472
Ni 6.618619143048101 1.2252993971563326 11.966592050692915 1.368055195764818 -1.5433854052011227 -0.006398447327176078
Ni 4.176797216505827 2.2296799797509164 0.8755075312994752 0.08829168255855761 0.3827243892866893 0.3977080071797151
Ni 6.1185528911792515 5.540187247516555 2.716359169019449 -0.6014957006257641 -0.83632483675865 -0.5328217922981341
Ni 6.921514651145449 6.21382588439686 7.789764891781049 -0.17396521076797783 -2.2936412780841464 0.1279360364230571
Ni 8.423940373201201 7.954059809421136 5.222365450008411 0.46072291744935495 -1.652617437456773 0.5809451301679222
Ni 0.7687853105724324 0.8859602381079008 3.5859044187162663 0.5169843110452451 -0.5351599535130074 -0.3963432656217045
Ni 0.8114869243858164 7.427709739250552 2.363879972220527 -0.14550772675823326 1.8677287834457574 -0.8660773854307342
Ni 2.058577843237738 2.521899148694729 11.89317327108354 1.0068149444938337 -0.4496915993358578 -0.3271744199355269
Ni 1.8535565748826985 7.380241668675722 7.290818673038122 0.19842720046508405 -0.550438991159265 1.6119916935156111
Ni 4.123555875766464 8.6527752113597 8.552462536925532 1.2166735267243112 -0.10412222183291099 -1.748187398844299
Ni 8.510370999635207 1.5409859268337693 10.17717304524747 0.9674845223253273 -0.3482831768896841 -0.10307938239069346
Ni 3.355317949804445 4.924599450345743 10.01501152403771 0.2385847465205762 0.7841710375732301 1.6558315735186968
Ni 3.0947722322495155 4.081477438278782 6.53500965268315 -0.24603837458514402 -0.06355844147793571 1.9852775630972195
P 0.8021308581985952 2.277344547365382 5.448742203771087 0.23103778741125372 0.635794473907634 0.08438026331929338
P 7.957559328127028 2.031433180762362 8.168936807864185 -1.0361229494293318 -0.3634889380958449 -0.19658860459444855
P 5.260487747098097 0.5034665863547345 10.095647359202843 -0.7770958758940036 0.4982229712773419 -0.0036116286106582956
P 5.100539156834712 0.2543682249088619 0.21642464655522584 -2.0565706542152515 -0.7324694954338804 -1.05486269193068
P 1.1915393343465575 7.389430244529159 5.310135999112695 0.17722562668680447 -0.1930242842819579 -0.7328878139182217
P 4.811070946445797 7.703395085859311 6.507756448985879 0.011931204219947193 -0.2319911524634585 -0.2508936457949163
P 3.2266404598487837 0.8164068359782166 3.8129389697116265 -0.06048288787640552 -0.07655511084791977 -1.186493660706821
P 2.498469215968654 7.8159317475591905 0.4324768844353328 0.4410753184217565 -1.4070642300381637 -0.6326420443215813
