# total energy = -381169.8593494798 ev
CRYSTAL
PRIMVEC
9.21892416332716 0.00000000000000 0.00000000000000

0.00000000000000 9.21892416332716 0.00000000000000

0.00000000000000 0.00000000000000 13.49282737616209

PRIMCOORD
 96 1
Ni 2.631274566260672 8.597909816214134 3.0741655135806383 0.9474114057245361 0.12182658109120953 0.33226443286392454
Ni 0.9343471873656296 1.789780383514105 2.8852522406106846 0.17869629769505999 -1.1035246759127575 -2.2239515268974923
Ni 0.2847412244308123 8.839371879059893 9.326391050884434 0.19395116697160145 2.408279054736401 -0.8146584075288098
Ni 1.5083358463799348 7.1058730278332565 8.38247277640646 0.6158748521655716 -0.2630685905945534 0.1446736608927121
Ni 1.4724650122881184 4.606281574954107 8.143070221228681 -0.5036053186351779 -0.3100267045116467 0.7713216924143877
Ni 4.306371532632091 1.386489325127934 7.819296071702843 0.5010452712174855 -0.8463212858497295 0.02875136110107952
Ni 6.777605574648627 4.36091068824432 0.2995025658720397 -0.2896939064915656 -0.8678149369471312 -0.22391557454417566
Ni 4.9519912327395375 6.758227395964228 6.965213447950783 1.8404457793600886 -1.426841412665091 0.9515315985404967
Ni 6.368312996603302 8.472818233641053 6.286767002524874 -0.3811534452551436 2.1688072776251808 -0.17027362084900355
Ni 6.290827938638327 7.541052345053555 3.921663059771202 -1.0851885966077313 0.8757953840494465 0.3891128093115363
Ni 3.1318621507339746 7.67392469965786 11.001902868845194 2.72670812437913 -2.247914722581309 -0.5956847503709418
Ni 7.527509745392575 1.0181748651854408 10.06056220557567 -0.7148062738261625 0.1645223201875231 0.436047783300178
Ni 4.634777269679834 8.568621294006553 12.926857572338244 2.198983801208561 -0.7508312857705198 -1.2896501761923533
Ni 5.514686709599517 4.895488446271086 10.891815085420003 -0.581742686368553 -0.04182696333811506 -0.3086881882058813
Ni 6.950183835815114 3.279779789645101 11.524992925416855 0.9687631319274349 -1.0531431381364118 0.6436520222788399
Ni 2.9843501444879834 2.926492176161014 1.6444652469067877 1.0410355562396005 -0.31200722527678526 -0.4381002949538326
Ni 1.8706764434358956 0.3682591463972476 7.3184014970534275 -0.49898581758529553 0.15010100255587053 -1.8011343833549756
Ni 0.6482470935066155 4.180745252454969 10.947675312871182 -0.7424042380490892 -2.525656598917321 -0.5131983616402516
Ni 1.4139617192666163 4.247859020686381 5.484658829670486 0.24250799283438235 0.8489026734236607 -1.6534869845459201
Ni 3.9361026607575833 0.26623515597645303 5.035968257131511 0.33473243478844283 -0.1370346562902156 1.340656234926575
Ni 8.407428404236466 3.189268391774771 1.8976583908067328 -1.7587253222611454 -0.5578975043198392 1.0469748045421712
Ni 2.7537848500556206 3.18610630077156 12.473431238433818 0.35202541754093564 -0.4861932938063175 -0.5349254689046982
Ni 3.9397349168953824 7.1624680035437835 4.864514704718353 1.4516556434952934 0.24510866368202303 -0.3235897879080621
Ni 7.348450580508136 7.614010911232592 8.53309340389526 -0.6430722385159698 0.10247723003032028 0.8256861260978813
P 5.936083735129437 0.6720660279818211 4.172414110648551 -0.4431707674982045 -1.820757814012858 -1.0360309039361577
Ni 7.3623342803647995 6.526085665492364 6.287468562657073 -0.08175568121225274 -1.5049350716447243 -0.14034803693416473
P 6.898050819421072 8.472200565719143 0.4707643646616795 0.054793293690795955 0.8661478336573535 -0.9922100500964653
Ni 1.6842052634885385 7.821270765268113 5.076379411395576 -0.7298305151491365 -0.5668146043038109 1.0927458401296986
P 0.7281760882790276 0.5344311771318649 4.91051252705223 -0.9840776507973181 -0.8668178631411845 -0.43849058841371585
P 4.614117660530576 4.397648101211652 7.28044626419827 -0.4933059935916988 -0.17714180872374655 0.30205782737355724
P 4.608779903414369 2.8141780225396835 11.148219180621458 -1.3289096359136081 -0.47488763898551123 2.61574265437214
Ni 5.6411426929553246 2.917522162907008 9.443251977924957 1.4551662277517132 -0.45806233989805634 -2.3904728797929153
Ni 6.566953156504706 6.522951231261776 1.2657665907368412 0.44778101257670627 -0.13177932142854723 -0.7067162977291764
Ni 3.485288048081175 5.634634132464751 9.112529525223842 1.3450690192822898 1.2563096530586944 -2.854012954976091
Ni 6.306564642260719 1.2240610995140275 1.395320132626405 1.6395965997170732 -0.6052744509419059 1.409937694931217
Ni 3.0217974146193014 7.1321930564459874 0.7248913855838556 -0.6276954989495834 -2.4241363334836317 -0.27792750998425686
Ni 6.383902197438372 5.396214314607502 8.78137470497739 -1.6480776406048905 -0.002332761898234692 -0.9778527529335288
Ni 4.7540056164568725 2.568797916905689 5.742628298202393 -0.4352651394978826 0.38777223612324185 0.8010858110506978
Ni 2.87011845463147 5.685900569983278 6.581612167887228 0.5027110889556826 0.40442655685047124 -0.2560548782808816
Ni 8.064318483077583 1.4991814546417763 7.813251223099912 -0.15537150692619048 -0.09768752195116079 -0.19305282352704817
Ni 1.7558731802785101 1.4167273965288996 0.31746103022846694 -0.14241083300046442 0.4162443754210057 1.0628680787336597
Ni 7.750414113808412 4.226784559947781 5.023123530033047 1.3773978133219826 -1.1045783139882526 0.8504597334981354
Ni 8.845189020234896 7.507707496194625 10.891437109527491 0.561696052130323 -0.7527277314622843 0.7582679445542231
Ni 4.833933689336864 0.5809655408546254 10.280374546812276 0.5953183681704586 0.9430155906496854 0.5707303944184493
Ni 6.606677500915303 3.5528074489777217 7.059919456335575 -0.3247557831917052 -0.19984619229979778 0.2857531766762627
Ni 5.08316730528964 8.375586240023376 1.9524390822332018 0.5400638185725279 -0.5110491765077327 0.6089259316515643
Ni 5.9984128816970985 2.972614453971694 3.807648936525988 2.066766106691015 0.17131260363647915 1.0595305297199944
Ni 4.2805032313055325 5.098507595171106 13.297599375024602 0.2596030006434561 -0.3562654237642122 0.4167436836549274
Ni 0.36998769468617476 6.066236507092497 6.634086284476953 -0.44416141354624794 0.4997612622987393 -0.3666552516389685
Ni 2.336812908145354 1.9135997545465346 4.5495925662166625 1.052987586395154 0.18818135436735978 -0.6911120155330163
Ni 1.1076353056961024 8.738765759182229 1.3754994455800402 -0.44636844849989576 0.45496261792681 -0.9197645905415449
Ni 4.961597351763868 7.619238041258309 9.332408242714742 0.40930471087837894 -0.22745829759011152 -0.15796575001592794
Ni 0.9963813283586471 3.626577280487029 0.63254357801137 1.6609979482109845 -1.0016043468271716 0.02454709321174482
Ni 5.017408718916748 5.889850830228266 2.808329537022375 -1.363502029176497 -0.9149478858791921 -0.004718488521591875
Ni 0.11480695072706862 0.4862069846018494 11.692168896997682 -0.20674780451563748 1.3907793768352112 -0.11386721703481678
Ni 4.601155853094675 1.9628103719667647 0.20016773564260548 -1.2201892531870535 -0.950424481519247 -2.566519398569954
P 2.75432876658387 5.120319569846314 1.541852167229127 0.28892257554317985 0.3908295348923269 -0.1245295818446694
Ni 6.818860260477688 1.0838136055436343 12.620894384381511 -0.49976948982885544 0.1888148741863006 -1.173621432729843
P 3.3393616967988935 7.965150515376306 7.193944176465831 -1.43121408781149 0.7943196959714578 -0.15908700810456475
Ni 1.5786485813113873 8.045788445420284 12.277339189183401 -2.755871119096331 -1.1835595177791616 2.6615550847205647
P 6.251601416134941 0.23961735611181642 8.321876787589831 -0.7090256625886434 0.7942276504782838 0.6000052321231667
P 1.2426741074891952 6.076063880297809 10.513543265440868 0.26237722095448357 2.6194627835362048 -0.7446030454726209
P 8.787109797726945 3.461475566852915 12.685780860524362 -2.052916602402432 -0.0856655577896202 -0.020586565902100028
Ni 2.4414937925227824 2.6345841600512045 6.601797924332214 2.7576726910814444 0.3412537808467284 2.7227188007140786
Ni 8.850803345077331 8.46708406278392 7.071429283208778 0.616449493722119 0.19659400391108725 -1.6778978092901167
Ni 2.721859715524662 8.989382213766147 9.317148157473882 0.766229622603461 0.8775969560345595 -0.2802996097608592
Ni 0.3112972575032578 2.393066783660199 5.94565482224178 -2.2055485989102723 -1.2406356939668635 0.5252810038363985
Ni 7.008272277247274 1.6060195672837858 5.588593903079518 1.5793944763058798 0.895587221964393 1.3111312288842645
Ni 7.6410407970093095 5.707528166174335 3.28495068423315 -0.08203644567746517 0.10092428372090362 -0.9251636500699291
Ni 0.9313971316191939 6.7513869542021805 2.396569052966671 -0.5284925687951608 -1.1060014195880241 0.6283480449319179
Ni 4.356384196458383 1.3848760133916018 2.908675683237384 -1.0255348895008403 -0.565323107359949 -0.004717717190643489
Ni 2.9418048092698568 4.996177536466618 11.036552195479503 1.0236230171901082 -0.3767375755756351 2.2491583651804232
Ni 8.046083450994926 1.2559309204997402 3.2778935977522234 -1.2443550517999795 -0.07440643993603314 1.4124180381509095
Ni 8.115243820400428 8.399896543158848 2.319957027124157 -0.40077533325112913 -0.47933616167516807 -1.6244692571573314
Ni 2.612495617649768 5.735885577036948 3.794412405148699 -0.05277266371634137 1.4879817316198374 0.3652807398889451
Ni 5.692464444019097 5.243014232125415 5.066800027251447 -1.2212917422226126 -0.26525299984038186 0.16854506819367102
Ni 1.3043487104381157 5.589737971573682 12.889496038202058 0.5123506689279756 0.6613160152175063 -0.20096745038843453
Ni 2.8706900279323415 0.6423691074318424 12.139334659472716 1.195415131566167 1.1425185406774516 -2.1066842830421915
Ni 8.795591207997948 5.268771906361482 1.059359487190524 -0.9213301352564519 0.492102717312217 0.7293368633421697
Ni 8.434725638815204 7.974028339388236 4.495270055323312 1.621916665938807 -0.08777026283744885 1.6283665353292083
Ni 7.69962706034868 5.845194361366596 12.028639348942244 -0.5490020016024222 -1.1699429554369916 -0.3478807992449428
Ni 6.795462630838771 8.282456667678085 11.43877385865759 -1.2363620062921739 -0.9226586242598884 0.4260618757320598
Ni 5.303896007592482 3.2363309998546277 1.8401783983722755 0.06017101306294154 3.1903554145641313 -1.184267856700096
Ni 3.3792427629210207 3.2171371996543803 9.140904452042449 -1.2519475194352567 -0.37989617580927476 -0.011178642324638813
Ni 8.627152243800678 1.1696049142196667 0.5286287862355944 0.6802377918226736 -0.01425085349205933 0.659192026895968
Ni 8.538392441529794 5.764740809806771 9.30338522552434 1.8888529670188825 0.11602128726334213 0.03944355070760304
Ni 1.5481247232599857 3.9916466791084426 2.9325038366367973 -2.623201938863663 0.3731552575410154 1.5358057930816518
Ni 8.78924858814311 7.2260417048794725 0.11826312541250217 -0.20491357952037614 2.4179119498404744 -0.4171679156765396
P 8.669651484397766 4.125182796255695 7.261636893137481 0.4061111436417458 -0.3525021000670381 0.48324629536285163
Ni 1.0718566608463622 2.3596113077107774 8.559566466649837 -0.7247320175803066 -0.8909008722323172 0.9039497349964755
P 0.17714900378862042 5.675676783037036 4.490493730691348 0.6518651542172517 1.3428766396166614 -1.2318237521021882
Ni 7.894634964112286 3.5561907941619153 9.327942595828574 1.0544495156526614 -0.7525384982696137 -0.6405895813034322
P 5.002234369671019 6.618459286052631 11.831630938625587 -0.2998176251891288 1.8654996370049226 0.1838960967284446
P 3.3508669142099925 -0.12673900432898014 0.96685587979893 -1.5685791308579309 3.7225336597409955 1.246283379170944
P 1.8655322837280486 1.451427427246349 10.382784810157368 -1.014991309657039 0.10887439180591572 -0.052582402082406214
Ni 3.793384495099551 3.7854746581294196 3.9547202781948547 -0.04967397018635961 -0.15848022775850124 -0.34694363214265406
