# total energy = -340860.7669146819 ev
CRYSTAL
PRIMVEC
9.38648360782141 0.00000000000000 0.00000000000000
0.00000000000000 9.38648360782141 0.00000000000000
0.00000000000000 0.00000000000000 13.73806756035046
PRIMCOORD
 96 1
Ni 9.027290847466206 4.885326700483036 10.04612697737694 -1.3444599249433813 -0.23576116102885203 -0.348636960684677
Ni 3.0612607662816926 6.227687692667085 3.0286258407686133 0.5928452240396177 -2.5164152828247115 -2.168304884067466
Ni 5.308995015588407 5.612000086483403 13.130061732979097 -0.11169823440795602 0.40218455489382987 -0.0615169855678747
Ni 7.624743723669793 0.2773377320157052 8.055067994159808 0.21802234898819225 -0.29028808843213877 -0.4886687519300036
Ni 1.5423306347089702 6.057510748479288 1.0943757324336312 -0.5798045888055756 -0.36603021646045997 -0.05643211484579958
Ni 6.755104808881542 4.232074387700371 11.620152011961503 -0.1224009655374408 0.06482753799834642 -0.08245682104433541
Ni 0.34233068178132703 8.834811618700902 12.991155858265193 -0.5537685697531302 0.15809250540177935 -2.1486531712748094
Ni 8.099756103017153 8.724642462940716 10.095995486427183 -0.2073314449332494 -0.3551174262026981 1.3041879647972119
Ni 2.411218630824578 3.8691647796952533 4.509795088239124 -2.149384907234511 -0.7548599473139387 1.8181638280334362
Ni 8.802953894014008 3.1171854344268057 12.115120993682702 0.9857121010769475 0.04946005440334063 0.2402924732403023
Ni 4.893427235664175 4.0184943442337895 3.065952130689032 -1.919605417710391 -0.6846066103143307 1.119037426836376
Ni 5.8460426637795155 7.838323767136375 11.411305572077598 1.7493284544272776 -2.023947983084224 -1.135595331195057
Ni 0.28425557028743204 5.139202917220341 3.0503593044515926 0.4342377266746328 -0.35297184061460496 -0.6618207227680667
Ni 3.614744146920282 7.331566300903018 10.620363872830708 -0.32030983160520965 -1.133049939065384 -0.4152408738571558
Ni 4.419682031576901 7.088456380634736 5.315285836768477 2.2706972676934636 -0.1455419224302784 -0.40897535256341827
Ni 6.864551205419309 1.7461956678482289 10.788696373028825 0.24777181233648296 1.349798049326843 -2.06464854612738
Ni 5.408848426083156 8.663902528807279 1.5126299239092447 0.46231854407124895 0.638825547424474 0.5887959936709085
Ni 5.631401947687825 9.336153084007819 4.6422027004896425 0.5032988431383526 -1.170339162434146 -0.2866168102281386
Ni 5.2374606255357214 0.6465165722890541 11.835152230367724 -2.319894555353721 -0.2643621125949963 -2.372877021088023
Ni 6.944214290103359 6.399835798370571 6.59666284625048 0.48829954151604293 0.3861277585412834 0.21664372347311078
Ni 8.650123171164273 1.430725346987354 5.140166909066346 0.40935844693444984 0.5659913370715672 -0.4273623397110382
Ni 9.207455010000158 5.521063835226294 12.480388486319919 -0.29434554633096405 0.5302897699048996 0.11944599667417494
Ni 9.519865337270012 6.288972042838189 7.228985178329892 -0.7042133288016645 0.41560905582985197 0.22995766697319747
Ni 3.5484286416424666 7.196926582898067 0.8114755703503205 1.453746207475735 2.443505996259495 -0.3879691826253963
P 0.13989333276843166 3.6646333062340237 4.669486391811797 -0.01906575838219942 -0.5002022064908999 0.16483959431762582
P 1.546104001039003 4.746387973077201 10.847399440262718 0.6242401934111313 0.7653305078279593 -0.42382013088573456
P 8.853875566502635 1.2547100101197555 11.130375632861636 1.767420536042298 -1.5670570377864497 0.6413418860884245
P 1.9984198635057184 7.415312505869566 13.165038586102485 -1.9597099990407605 -0.4214457171162871 -1.6043673442011337
P 3.9955350058177195 5.258120275516822 1.1753125629161527 -0.20751630725054585 -2.9289546985903043 0.7485666581060592
P 8.016695111339393 5.390976561674244 0.6719126417978517 -0.3551333670422981 1.0424990281590045 0.1777593877030874
P 4.944433386503475 8.421609232595497 13.166508509404183 -0.12022426960109615 -0.8502846413728516 1.2413756574566814
P 6.862542497969988 6.935588111851368 4.305688822476279 -1.088221469896784 0.6157249568512686 -1.395061806260649
Ni 6.648887362636142 4.6418131614282085 4.681369679806378 -0.7378634127559421 0.7338715179877296 0.2487308338156426
Ni 4.082923166346588 0.9766917580569672 13.768840088346561 -0.42438448802963685 1.2335181090854757 0.9720456593334486
Ni 1.5226471790023068 1.4691254506096527 0.8741754022193576 0.7316043192201077 0.2740513148583022 0.7493678138511158
Ni 2.866510008531643 -0.28761968594087417 12.170183044002615 -0.35535268214195576 0.0765121734251263 -0.42885846464059046
Ni 2.6903444879295155 1.868980257308823 3.0594679479507567 1.430118540754466 -3.9642492385810697 1.4804933936625921
Ni 0.797634261916822 0.6694017574862007 3.387312469888453 -0.9117787441225911 -0.5435512629004963 -0.9275766303867962
Ni 7.562933730427839 9.51695552741352 3.1302457874407548 -0.23575550460189718 0.2860624803865654 -0.01820598148506542
Ni 5.2091885375107 4.953172202556362 6.86741220556208 0.623995681500493 1.1080801564939238 -0.10206405375230164
Ni 2.3688104987870453 1.5188644261888662 7.905089823617776 0.24327109625265197 -1.4247490489124366 0.6880696291622667
Ni 5.075609492130858 1.580223868227235 2.1945466797233872 0.5933332194196298 0.47243352101806374 0.8845623316087992
Ni 6.337903780844312 4.256582495878768 1.4342546647487777 1.7648820858911605 -2.0716319194237482 -1.8422982591877948
Ni 6.239599140111889 7.168128851802195 8.795619295878964 0.30269983183293026 -1.775572732835787 0.31245639699906186
Ni 2.444700217141063 3.6948953287415502 2.3978560330448895 -1.317062763877351 4.905647091121675 -4.136350399557115
Ni 6.494639280791792 1.5360886232426225 6.395550868694799 -1.123847960851142 -0.1760778862356064 -0.6708239547079415
Ni 4.640358256499963 2.93971519263096 9.521538008613325 -1.2876377737480147 0.7260671914519625 -0.49845642744438673
Ni 3.5065555391591925 3.3559306399103472 0.34011641034537005 -0.17208162059201976 -0.271665588234945 -0.6276134807587385
Ni 7.345730504365752 0.1762218395025756 12.789811095920992 0.9485522041971987 0.44805509217369927 -0.7584072983455648
Ni 6.948485140054018 7.5929047719497165 0.24086655073375907 0.6891752035216195 -1.5146494707190108 -1.8014030636353298
Ni 1.986395778260017 4.832330615161232 6.744951449779063 0.6162366063803645 -0.9087227309050865 1.140925485158719
Ni -0.1491446508153976 2.678733407953768 2.403502002814827 -0.15912917419640982 -0.1789184410081951 1.445240483997569
Ni 0.3309092087704219 4.13477410069261 0.7336860277545153 0.5685297872227048 -1.2013381819188214 -1.0857915202990527
Ni 5.530112405231647 -0.15038835986696314 9.284502081758388 0.38102180477328573 1.2991100360536723 0.16175735584787626
Ni 2.2514231372860753 1.7256111097343934 10.870286502756546 0.9981143313960423 2.3829164076018965 0.8570049908158208
Ni 2.068030024459756 1.4719883280491055 5.356019420166015 -0.8256992387240036 -0.8517856513984106 0.31326835137739595
P 3.5898699658889712 -0.008418736968672635 9.950921753465854 -1.7135410124150232 0.989612207462302 0.5183994462252169
P 7.409211291654339 5.151349026750347 8.539623611188123 -0.48315450697999374 3.269492941427247 -0.20927622736444604
P 5.971821541447275 8.362558865475506 6.982098137138216 0.2975864218657649 -0.11963677252874236 0.3475416707379692
P 2.3467616492615555 8.722934122960453 5.93744166866864 1.2340912079801263 -0.08112730359963446 1.2889572638903866
P 4.9288799834963495 5.223071146471193 10.90406845654209 -0.26958453733620025 1.2576790226023955 0.04416718143551748
P 4.1721229181732085 4.607468018638184 5.056625329438093 1.9981963280414166 1.134311322276311 0.7238524431888308
P 6.076415126063084 1.8913294743033704 8.549240063439662 0.5810220061524445 -0.5162273782745626 -0.9012809299150607
P 5.674514065980961 2.5207588921964255 12.558558181493751 2.457652462963206 -0.06658051613371113 2.0952636999100753
Ni 5.580930826402785 6.212697478664443 2.1966896138854435 0.8292609879333331 2.2615261427171567 1.2993823158784525
Ni 7.055472277938877 2.4524722254029214 3.7593804697547966 -1.1539103274541611 0.24351997903866443 -0.309279541932977
Ni 0.7964046325903686 7.235204662236061 10.915883223207791 -0.20588442807407767 -0.08821480657403517 0.9637836764349723
Ni 2.196268160780422 6.5085875951361425 4.899517186099313 -1.7014817672576437 -0.3679384892267663 2.9023340106789823
Ni 3.2481268779689874 6.878293017128682 7.1984725367153715 -0.6818804696324192 0.7765286905366239 0.03254605225682137
Ni 7.644145584874216 8.565325680056024 5.594566570849648 0.7313978596362565 0.1425463301370642 -0.0142595952428077
Ni 4.020287162564725 8.169722950340697 3.230904558211913 -0.06267681020393076 1.7875183352334376 0.48356228394137374
Ni 0.6536568702175514 8.201721472278711 4.834301776676921 -1.8474677192038762 0.8879063083803677 0.5584340935495995
Ni 1.791879682595168 6.298274047895559 9.01524986655037 -0.17811111461555132 -0.8109045969133325 -0.05522883856631778
Ni 8.629566772500661 6.03358460227219 4.975117800764363 1.612338535332068 -0.29722646742318487 -0.08153302367848539
Ni 0.5753970648030035 2.526738082127348 6.915248540954483 -0.7808941665941712 2.2347568450431123 -0.8105847516800685
Ni 4.302670129412253 5.532393320699802 8.866699380134701 -0.458315850669759 -0.5186784109182164 0.9002771712408947
Ni 4.220416375307583 1.5864377202433584 4.864745896962564 0.926694742002475 2.007977832908213 -0.7963320984157963
Ni 4.248266071579243 2.9690948856981305 6.901208239072734 -1.289593869033121 -1.4607673759885746 0.5433982822623997
Ni 0.029728870249949794 1.9088821982764081 9.153014344881859 1.054922341524022 -0.8717124722293245 0.8219071186714231
Ni 4.343660902455171 0.32592686337743326 6.920399843048816 -0.9737271608009296 -0.4616713974055533 -0.00698671573047829
Ni 0.3039052346538266 0.21291266449626994 6.815386682624668 1.0022779758554288 -1.1874966480500388 1.1287099169291335
Ni 8.733897535581045 0.6203179584488688 1.061317476518849 -0.6730093923950344 -0.3959609425816213 0.1675816758391372
Ni 1.3730454064449376 -0.00725481302607546 9.904569421100263 -0.9038170660733531 -2.105692351442567 -1.0770901358703129
Ni 1.252185046082992 8.534988565681234 1.3306344584623824 0.3557332054098261 -0.3900844291961863 0.5421847215702728
Ni 8.018572408021 7.3406054844249615 2.202926932110087 0.9151828847081336 -0.8516362703047398 1.4430164797630567
Ni 2.8360696428393637 5.4771820252937 12.463339816505894 -0.15475084262305608 -0.10876306303903203 0.05520749841007911
Ni 4.124890133663943 3.3666406174789225 11.698183725829237 -2.6119916719701406 0.9583576203233946 0.06833580826192101
Ni 7.85315441092108 3.223975456160096 8.29159705091071 -0.4654313786686178 -1.3984016692671595 -0.4059594485552299
P 0.9404505456185179 7.2639366879480765 2.9880846802809398 -0.16856615123959356 -1.2222327659796435 0.06506639348202987
P 3.156280137821299 0.16799928003713105 1.782623671306498 0.5171840857608769 0.3474455114797371 0.863937713379912
P 0.07707241526343071 8.04805535240566 8.516956192406044 0.7930351728320794 0.2333263263351143 0.12843868709108847
P 7.498683251499792 3.3543630971812037 6.183641619274849 0.6495264787817459 0.4205082929036822 -1.10592068694876
P 1.5398995355062877 2.5934853656419325 12.912642617798626 0.29564883852341983 0.7986077818238504 -1.3165971370948422
P 8.053687242450485 7.383811467552178 11.887178691953475 0.4937315111648916 0.3373577882264319 0.4589367720832096
P 2.447628799964372 3.4810336907727275 8.594424717269293 0.5842109454033875 1.0675454296046711 -0.15328659937270375
P 7.235279754103326 2.0320985659737723 1.5915280101955394 -0.7230554012088322 0.23398478585471963 0.7709373124917756
