# total energy = -340875.11380198924 ev
CRYSTAL
PRIMVEC
9.19056403146097 0.00000000000000 0.00000000000000
0.00000000000000 9.19056403146097 0.00000000000000
0.00000000000000 0.00000000000000 13.45131945649372
PRIMCOORD
 96 1
Ni 8.21501321514487 3.742921528439524 5.348473542169951 -0.5140697085016114 -0.10453694077282642 0.4145986122874666
Ni 4.370012092207577 3.2193442871553444 3.351692085175122 2.713619409515972 1.9231062317747978 -0.00586571475215764
Ni 0.224788328980204 0.9876731522730903 5.540477291201254 0.18934426432720938 1.00055713650958 0.30707199275869695
Ni 5.801038052491143 1.6167488778680548 10.618013925310095 -1.5140290635261926 0.48936834910018945 -0.03409128525675419
Ni 7.248735695895171 8.47879159289588 13.013438853559004 -0.09038507475247659 -1.274296062333786 -1.333740224533032
Ni 1.111240285434385 6.2774125570020685 8.362564044155752 -1.2813403707750772 0.34470574395107084 -0.8778895475743139
Ni 7.8191848136481195 4.164740844966407 2.8646739884801806 -0.2798990318883308 -0.08891286108232428 -0.23742235078135884
Ni 3.192517030799984 7.579053757103805 12.950445808754182 -0.37477171009851584 1.5687269692897048 0.3564158332991475
Ni 3.6979796704135866 8.178168244014811 2.6044312207051585 -0.3002241165989281 -0.6722254630411585 -0.8618003553219351
Ni 5.193606105147934 3.767598192815729 9.047303339754786 0.34348318439787945 0.29869533865922754 1.079379703235438
Ni 0.10487076878866386 7.4467555881297 6.0191963085920195 0.491462769735373 -0.7435465791836485 0.1806711620332437
Ni 7.106337097070247 1.506848113394811 8.662851937450327 -0.3276253914300164 -0.22423516266712348 -0.8859658968245451
Ni -0.12082742602887508 5.667600253579367 10.3716939429591 -0.6246505414756726 0.46812178101658736 -1.5723298561496146
Ni 3.7235845817551536 5.424096260042103 12.704152479038825 0.7727303998364563 -1.4753393602654785 -0.1437218385024041
Ni 3.026388395692244 0.684657499579313 7.800204460847472 0.17645995216537352 1.0496744628615213 1.2423351931564732
Ni 7.4963019187263935 1.9358728321082659 3.8268194301494174 -0.3469803989178605 -1.1707266276805515 -0.9306383000312551
Ni 3.5967639889330854 2.673240973474115 1.1268155342680366 0.03812406056523112 0.3047019498646237 -0.4976776402968332
Ni 2.9580473616879757 1.1237394524927236 5.521847098889522 0.2302841970746808 0.9052977643839377 0.4067891435453768
Ni 9.552028896134507 5.290437887594003 1.447254658218577 -1.0798368453775142 -0.44032275652644814 -0.30537120801750633
Ni 5.479129357354846 7.87750813287769 0.9253409090208379 -1.3903996248982893 -0.7546298335810036 -0.6601384499696373
Ni 1.8621645087201228 8.679605416590508 4.144848788215622 -0.6472165997016466 -0.6753120723862821 0.8712959535171962
Ni 1.26691005869478 5.804098510307633 12.363672411200483 1.1222001408350737 0.6678275910837788 0.5331287820155914
Ni 2.5713819525126698 5.80975989773994 10.217218943020457 0.9441070239416516 -0.4694042472734367 0.010564662889723742
Ni 1.1157988051850731 0.8352458099966525 2.1147359127130896 0.5655182540898905 0.11935883627700733 0.41108417137630493
P 9.028414892594274 4.145468232230131 11.789046182103405 -0.9528482604693913 -1.3992460195453256 1.1102218854272752
P 7.350705003624777 1.7912041639720118 6.056241634017572 0.6183680509010705 -0.127785883998438 0.8430693545713351
P 9.281734408497936 5.303157628188665 6.571992190987868 -0.4246017462467655 -0.996206315740052 0.46318937671197646
P 5.678932219007993 3.823302201301457 1.1977391167600941 -0.5758445757165631 1.1694804139782762 2.1175376808169273
P 1.6352127209711447 2.1053744042089546 4.1645285429376955 -0.3782028472672519 0.2620383495578261 -0.23100153485667957
P 5.9848493327608265 6.677349140612845 12.543314851633648 -0.9413911676723852 0.2315548362569883 0.8884079306071344
P 2.0906419300953396 4.484903332940142 0.545937883528987 1.159292674811997 -1.6525552167602702 -0.9015174714058991
P 3.2031780850556255 0.4667437124811951 1.013496799038178 -0.22048238049291063 -0.519431487034157 -1.4729335790374634
Ni 7.741313164761868 0.19127769447423804 10.610871938015215 -0.8853961403640042 2.169577323021986 -0.787017762993406
Ni 2.175084832251232 3.95227338610268 2.9410641184474584 -0.7814214998525509 0.005786010554157777 -0.027144164514959705
Ni 6.644143632832127 5.784798325879317 4.627280793467835 0.6797274278451584 -0.4266683989678071 0.24545344861595145
Ni 6.849938742222065 5.797040157145277 1.1161553990687965 -0.9787595810185143 -0.0763810471639007 1.3549662237913438
Ni 1.7918934562730229 3.313869238034029 6.200022493670123 -1.5063491783834315 -0.6260487073747799 -1.2039079995285267
Ni 1.7151798184524707 3.857279716459308 8.537592821454151 -0.6406592581991031 1.3594042049580395 -1.4560758840501762
Ni 3.1398459084387063 2.4067973321591953 9.519337140882142 0.28476921549643863 -0.4371297035104471 0.2936066112824105
Ni 8.438683971541034 8.564852034318145 4.189225426554731 -0.876568000549413 -0.8431734842493672 -0.6451034100133858
Ni 2.211470275180616 5.820025757743001 6.073822263918966 -2.441600037486034 2.715184954230879 1.5359952833846386
Ni 1.0666109065849059 0.4659349428480085 9.914254757485155 0.987760498965544 0.33237730429270496 0.8071559285041776
Ni 5.279344876829728 3.146260922120118 12.729212389934393 -0.6559524369127477 -1.1613133047864517 -0.9339861334575656
Ni 6.044542046028407 7.542300691613882 3.0424728017722424 1.2642790444174163 0.9211722695223491 2.6419704777204176
Ni 3.55014025769268 4.625022671889722 5.068187992394324 2.3017009151638295 -1.362414452539273 -2.2275001634806992
Ni 6.296767884814466 1.584287805772429 1.0850747496879956 0.06495583604609458 0.7337527330216783 1.3593440411440654
Ni 8.573573879566942 3.0744642360467798 7.763025872243724 0.5660880105504316 0.3740939673052009 -0.6001085904702502
Ni 0.20869932761819862 1.8944325789714658 11.612067167121346 -0.9307226322149454 0.14483923993629894 -0.6382421641171782
Ni 4.857332558458562 5.625838330702094 2.6992760032115126 -0.03677243163334312 -1.220922274698336 0.12370451484021276
Ni 5.735316329230718 4.938034901060966 11.234717313630107 0.7687292490968632 0.42482543222179736 -0.3079168572574955
Ni 3.991847954744743 3.1621789789914727 7.018050701043915 0.26412171444941607 0.3025661344685434 -0.49058679488832285
Ni 1.634863479538632 0.32337918537845417 12.731485216414928 0.4223245201768146 -0.5605729942694733 0.6017152728357379
Ni 0.9377959613719117 2.732198441620616 0.23289256832729435 0.8224485929971901 0.6225514928547988 0.07174020595777968
Ni 6.681438941598846 4.706166161564774 7.198540511479125 -0.4504459610033791 -1.110049621515469 -1.522931251111829
Ni 7.041993958411844 7.15221639262556 10.648965906794706 0.12376519287481912 -1.0778275282569696 -0.060349190512018654
Ni 5.660983047489657 8.678061401836242 9.274644807417936 0.800800161489479 0.4177551556385773 1.086052230159607
P 3.2883929945886505 5.291467230763513 8.071127583062564 0.3711963340424317 -0.40832537768424515 0.6902324411415404
P 6.238260754304626 7.652219837215153 5.661566648304515 0.016305164917926756 0.48714743018947065 0.28836747437065824
P 7.167086725199377 4.981561412228827 9.213777540069431 0.5139946322893019 -0.05348717328486272 0.9326334760844132
P 3.8668287124693177 3.7998203102470045 11.09370648997122 -0.14604148777451623 0.49370425747138197 -0.6759584477210294
P 5.622465393709145 0.7167950638216645 3.0635109218555097 0.5076342372889129 -0.882642488878267 0.25342361130562163
P 4.956388457395893 1.7657187299626198 8.35453424837717 0.18008315074025757 -1.6247952730381823 0.008918385535552383
P 2.8090315567733435 6.249684625373387 3.6333093476763043 -0.45193540106471203 0.4118295341827617 1.863327054833636
P 6.802166190479975 1.4235356506125771 12.462365282859283 1.3747336362262583 0.15162540962019694 -0.7883819903307843
Ni 1.5635722744860356 3.6861973673483 10.744860251711401 0.612420317958068 0.12323605984422646 1.1663696362634364
Ni 7.550415959637789 3.710533980856006 -0.09537783521913605 0.5353281036597555 -1.4234598977873678 0.4836095922395413
Ni 0.8656674959376864 7.423760796967963 2.3030138070933264 -0.14381336977494588 0.7189172106707424 -0.0021970076513187966
Ni 3.2543787171747462 7.589678049103393 8.584658618823605 0.10567825346612124 0.034063003121980046 0.28089199192921943
Ni 2.868990796397314 5.996916543310531 1.6048498546397971 0.029738921825329424 1.5434208864247485 -1.2718938806501967
Ni 0.505972715916351 5.362234573667341 4.40279207687447 0.1424918227500449 0.8935326534282095 -1.3866023626393862
Ni 8.1486481524035 5.9159292932237095 12.751460907298236 -0.2131915032584522 1.067465211186039 -1.183946211694619
Ni 5.094816732566992 -0.18405023493403405 7.235356991860741 0.07358600091726682 -0.12865723085979777 -2.6191339394418764
Ni 0.8545790804554177 8.857167113331021 7.747367908333952 -0.5606580977841118 -0.9097910242686008 -0.6040367218800629
Ni 2.9139786072433194 2.2526348113970114 12.231271307909427 0.3611122103335523 -0.35946824697222607 0.20154363460687869
Ni 4.604399046243463 7.510602436331375 10.909288632476645 -0.15339818524990356 -0.8539248092286004 1.4969044880307638
Ni 6.832375574392296 6.923775733506397 7.714022703980229 0.9718278868956876 0.7565692166955615 -0.7912076327050374
Ni 4.394771471659903 6.397064509893618 6.6654786081330295 1.934242708007591 0.5444058975913076 -0.2910175103989956
Ni 5.297670861472614 1.5269294957642743 5.201208539699888 0.48674093877967145 0.5145762158243848 -0.4562756803112787
Ni 7.542925649966799 9.006670018138369 7.127517670895722 0.8401043584057403 0.45205804268550526 -1.3010933850322883
Ni 4.960560973458016 0.3256226020541456 12.761737795978116 -1.331416718606178 0.44252027839839914 -0.011497459116638263
Ni 8.65605919158796 0.8919047180833811 0.2931422297740912 0.2721648964688667 0.39086090235089455 -1.0549951037434862
Ni 3.713833393336847 0.5441420473207521 10.678921631140255 -0.8725018008998393 -1.2775845032770707 -0.0646231352970242
Ni 7.531988878790752 3.1252512927852933 10.324694317650543 0.8974810965529962 1.2277236138908854 0.5612607643651173
Ni 0.04873572285070388 8.14033988253531 11.498994739007047 2.224556764581659 -1.838955310857491 0.1965685499897905
Ni 7.665031483449949 8.761952870151326 1.8828754447245095 0.4274410154677736 -0.33891381985964214 0.8560667952722675
Ni 4.171275335979995 8.226639278621926 4.95137684283934 1.0717689807677155 0.03802507309352161 -0.6381688876770816
Ni 3.4521504641809115 1.3134235031670234 3.1298667940328655 -0.9944924183727389 -2.1737427672535854 -0.06046463304396038
Ni 5.352832626681547 6.154681765166001 9.12333044244353 -2.1563297139834607 -0.06012601875761903 -0.2984667675881892
P 5.653713311354991 3.8850627914720706 5.088553363191803 -0.16335786756577672 -0.6325903651480396 0.4501173740193667
P 8.37212590695538 7.912900994893618 9.019970602378685 1.0473455576180284 0.344970053356051 -0.16943209878431464
P 2.6431326857659405 8.292204762294123 6.415646911272482 -0.8175964071112113 -1.3895637592605552 0.009643950847667263
P 8.175934936959534 6.405069491149364 2.9499146315924434 -0.650466731207828 0.6104989325656388 0.30557561071882855
P 1.1854908520993235 1.7575299374266056 8.111939201620842 -0.6427631919159833 1.4459315965273227 -0.07676568419682908
P 2.454799648001623 7.910603353890247 10.673796972646338 -1.0436125729381576 0.8217078581764236 1.0271402863147472
P 9.363254711297543 7.595835726992427 13.569825489314919 0.538838430805859 0.4676219585620334 1.3181935350476846
P 8.748543837255653 2.3818173791705446 1.7916085487886049 -1.4622586158221205 0.7377297153915552 1.8508798302092189
