# total energy = -381171.85686301836 ev
CRYSTAL
PRIMVEC
9.18772346441971 0.00000000000000 0.00000000000000
0.00000000000000 9.18772346441971 0.00000000000000
0.00000000000000 0.00000000000000 13.44716199949815
PRIMCOORD
 96 1
Ni 0.634015390444905 1.9737802404762725 0.995236248165821 1.3511663904292794 1.3286610102379117 3.1729055945188
Ni 2.7742238899564775 4.7907546073674885 11.939116706333827 -1.7454807985464134 0.1449559680198213 0.0036375967525872836
Ni 7.51795572901277 2.750537939056465 11.557956651311434 -1.357509559038488 0.3008586648591335 0.3015284372326484
Ni 8.659438483014913 4.716848560416481 9.570331430458426 -0.5545797528005159 2.521082349283078 0.5877989198649618
Ni 6.415428922185202 5.924005161211984 9.405362181897493 0.35914325953263954 0.11628302556516103 -0.4996995558228684
Ni 2.9514091355370575 7.645499705115939 11.183331823936513 0.9789737539118495 -1.0138463974193184 1.4986451248709547
Ni 1.006469158782716 6.22414970892401 10.840967849701702 1.572398504604021 -0.6665435821650327 0.1357874141466758
Ni 3.6542975380598026 7.813295097391705 1.4215934708617706 -1.0710873813196584 -2.6327641286308014 0.3427031116987453
Ni 6.000070323159696 7.353853801539877 11.293719564153104 -1.9796753864190937 0.19700512330657682 0.8129082576069225
Ni 0.30873323153721166 3.9628488526738876 11.730228302422919 0.791672745266914 0.25883655479107687 0.258437005359813
Ni 2.707346451398995 8.401079701281652 8.987680007626599 -3.0114621703669164 0.20958013175811002 -0.14408307849656476
Ni 2.3002659911480863 -0.0752033534937084 -0.14102696017833127 1.343259991098009 1.4859058229274151 1.1322197298546048
Ni 3.006259844176729 4.527958155236748 4.957013812292408 0.7795841895334961 1.166322585075585 -0.8649982934339425
Ni 6.403484881777905 2.25162618352021 9.609517070717754 -0.5316033465100005 0.05011619993010079 -0.4031430621523573
Ni 4.142027834230148 2.707704772611214 10.718490903048245 1.6663458427864593 2.150656574858083 2.041913309313393
Ni 3.1285116916071254 7.261416116510776 6.953863507429208 1.114504829073345 -0.4110931702373694 0.050330372823435894
Ni 4.083208029085897 6.254092499452768 12.890234425552103 1.647338448446021 0.6041241393875467 1.2938940390703717
Ni 7.324517400754873 5.347199886773362 12.334718943753321 -0.1334101721637509 -0.19677115291889982 0.06178566584822908
Ni 4.07692362628698 1.7196294360557378 8.67727920429406 -0.11094284429917023 -0.5424534018506271 -0.5608578724997438
Ni 0.7988890866825775 8.74738337130619 4.117319289716803 0.22086033265761962 -0.5513496758989924 0.5544625104963612
Ni 4.771056128418836 8.53502752058781 9.542119607016385 0.9396618436861044 -0.09134589600384914 0.34361199666625986
Ni 2.1636169811651995 6.9081205889862725 4.734813315961397 3.382783460022987 2.520689227609717 -2.105648385578509
Ni 7.229360149602265 4.466326906735087 5.9943684220237206 -1.6707938512554839 -1.1777025447777525 0.4264285150428592
Ni 5.0413497628360044 6.868098865898431 5.435369874287702 -0.7739843268482154 -0.5851807655158244 -0.5095347967457353
P 5.832036050075785 3.5445409944401183 12.750115212444726 1.0509687561929124 -0.19025032108124657 0.01973475942476601
Ni 3.5241442485138084 6.22976340791544 9.484888359246304 1.4557858636135832 -0.05084587900727372 -0.5601122525829708
P 5.758837457825825 3.266382668800913 4.461633817627357 -2.2606918197413197 1.8089207121686137 -0.2915728686818333
Ni 4.021200083925237 3.367686506901586 2.7241801981945737 -0.0014675856844619886 -0.3901888159845345 0.5572863530984016
P 3.8782299202498716 6.2958415145379725 3.2548456445398015 -0.2554072173945537 -0.28954915338358517 -0.008304663210953439
P 2.815890215531169 2.0392243941848793 1.3360456596030028 0.7213381614074093 0.09323822793055556 -0.4192379108316909
P 0.4299973987031587 7.714674074520978 9.23417927600775 -0.31137550523005725 1.0421812398082695 0.15968324692766692
Ni 5.169224496981222 1.1944683547935968 3.5501041609529023 -0.36733865085923834 0.2698668444633094 0.6858337978532124
Ni 0.8333173237704464 4.661216895288639 0.4860544554239674 0.10955007771670167 0.10020617460795646 0.6331038144493485
Ni 7.286103529260323 8.995663220480369 4.631216222102522 0.7137621488323642 -0.565693089104858 -0.8962796200457274
Ni 7.59675883253077 6.545306580029489 5.533789686016182 0.4989392806180762 1.9753466771367527 -1.0685872406056243
Ni 2.3646627443902064 2.2936783934772915 12.229010511059371 -2.1409725148010996 0.739054604850566 1.3649307912032236
Ni 5.423660120826853 7.909600813968093 3.2148533221668094 0.18316538921000713 0.4482949760986473 -0.03139934024688786
Ni 0.8668892650383458 8.516468319339547 11.749215651581167 -1.5731405249763681 -0.5072015206268684 -1.2493298793067518
Ni 6.063621805849915 0.7160525725962663 11.34289593482697 -0.22667102580212575 -0.5716073977067639 0.15474158665167542
Ni 2.256385424236349 4.342678525349375 9.848325295848943 -0.8386632550838394 -0.7545894672613714 -1.1430121924844185
Ni 9.221166703370168 1.533100275787294 12.494605543734776 -0.7701667528743381 -0.7707645343593371 -2.727240856954148
Ni 1.909126230979226 6.763055624377935 13.292895590852313 -0.0375015964898838 -0.44094804881527283 -0.7463953614863532
Ni 8.35098823335812 6.409034266705603 7.908101377510807 -0.595699148548645 0.37413819027957496 -0.3140664217986591
Ni 3.3594175558503796 4.6930523568357865 7.3195183604582486 0.25512388182618 -0.34203231088396574 0.3430916053864156
Ni 9.02734249072988 3.4445969394011993 4.771254583244065 -0.13121470717432884 0.5353856963705682 -0.26882117680761447
Ni 1.004190603381939 8.153231675106815 6.666995220016065 -1.4986350975686256 -0.6702310583189489 -0.2885819043743094
Ni 6.185818526939972 6.954141895447933 0.4876907889597673 0.4240001081070246 1.960214963701637 -0.9817780561298639
Ni 1.7295062387002347 2.6921315814647744 8.131041485574732 -0.10396718431228547 -0.21029232733378622 -1.5760186178551117
Ni 1.841605651784428 2.4053367958387533 3.8028575126457835 0.8758277799492789 0.20970560159238077 -0.3933674708228322
Ni 6.033963834746254 5.739975061705683 3.7018017430766466 -0.0921802189796864 -2.351751037742685 -0.29747509309888126
Ni 5.354081491592645 -0.01790595411521872 1.1539780578128542 -0.35768672959177106 0.6822008290863154 0.5541501214622649
Ni 5.341310556080225 0.05132078531314523 5.909799103306011 -1.0612863360688367 0.867090400076281 0.30995599917471134
Ni 6.849034339863704 1.5481681421472706 0.288031453194346 0.12703846430945218 -0.558705087822799 -0.44946971313303885
Ni 4.898168281522664 4.241898387481945 9.288478721244008 -0.27730787412238694 -1.2896126380861983 -3.812734129286492
Ni 8.950257491485853 1.476595776937381 3.550695850339233 -2.1632917471235906 -0.2360226422203548 -1.802741065720463
Ni 1.4064475088529769 4.772351597416859 3.080906421632989 -0.9471057015586593 -0.0063899626867438344 0.8540623632477292
P 8.980576978673612 3.522940656749688 2.415271481140609 -0.6907705730331974 -0.30441347208992736 -0.4137046397182875
Ni 3.8906241591032917 3.6584963276491376 0.0971555809899843 -0.006943778307684816 -0.42671904970008445 0.5858682785011522
P 0.17832360450862983 9.103563843975227 0.5714111620362187 0.10460404656533598 -1.1104501993879972 -0.7624992090267513
Ni 5.534188433211318 2.807970397968791 7.179493780901792 -0.9782044798459927 0.8932207786147456 -0.7564797423055488
P 9.051000878459723 6.655109062266125 3.750937687767595 -0.3076414921089218 0.19888305705558007 0.3830606895801854
P 1.6473128652512397 3.1530888516759905 5.913093820913748 0.27316068472323274 -0.008452758753043507 0.8009086620428851
P 5.957871109628372 0.575145971594347 8.012908494540175 -0.5290371284447212 1.2397373505223102 -0.3303970406378826
Ni -0.22041807799330637 2.6518158512284464 9.713221660940295 1.5077882248228034 -1.021201295122493 -0.5521644584908039
Ni -0.12970492864455116 1.1601981465480398 5.906127689039275 1.8361517799704248 -0.6800051069865772 0.8966922821031138
Ni 7.598513687698304 5.93020687450039 1.97111212560375 2.195704873346973 -0.5604138429837897 0.8777669059535206
Ni 5.712439454705165 7.438187914538796 7.511853243136979 -1.4417327279546268 -0.99798963289272 0.6417316653276754
Ni 8.157935789482613 7.000539898568593 10.848026777582417 0.26655654914315385 0.5516666929187789 -0.5052983900668846
Ni 5.697132707537042 4.939935672054649 1.156520300874931 -1.3311511236496172 -1.3149560019469935 -0.37626372126301005
Ni 9.116592035742572 4.224322272636435 7.318591319168175 0.9376494412417659 -0.9334035214812184 -0.25941505300236617
Ni 8.501547456553814 0.6144005197791036 10.318665987958601 -1.2041759084779324 -1.6444037912977294 1.9304971249222302
Ni 6.9974344480626955 8.31586356683727 9.178521885254415 1.625688217166097 -0.02245832900351616 2.3616526131271134
Ni 7.63435499664359 2.2352444727154306 7.695770333645582 1.4995501531837272 -0.20976345141350972 -0.5920391831985545
Ni 4.4632306439525795 1.5360770981657283 12.966708441190681 0.5297637221981005 -0.8246474004207217 0.31656681962300964
Ni 0.1176763611820624 0.6143426371217451 8.259246977761997 1.3389906742986941 -0.5620868598108384 -0.6464159581772222
Ni 6.435853231281683 3.1301746695407577 2.3970641696981905 1.4100947893343714 -0.6437597515012978 0.6924034806509302
Ni 5.090687837441538 5.021054081866987 11.21573968065087 0.577192090883393 0.15547512238359032 2.095850425651481
Ni 7.666796847934492 8.59015386092919 12.604294098201374 -1.0427643660052492 1.917024287246776 -0.4510812805945328
Ni 8.181281794617187 8.351052547421851 2.227764747103444 1.4092910624861537 -1.5875173625233303 0.1947906321537613
Ni 3.8345239200825487 2.368962598936834 5.379174082943701 0.048415672299226296 -0.8965554994149333 0.1239927355045929
Ni 3.4255783519834235 0.6512442093462638 10.947550034890064 -0.3290896346803687 -1.6087019670207456 -0.04357145683304754
Ni 1.2286926244222023 6.901882124804305 2.0548471990376256 0.08682666797725692 0.6995295501727501 0.5336165202852875
Ni 1.4521472449959798 6.0575946593059244 8.237529955984511 0.06865796748803014 -0.20275925218153468 -0.060661065325482634
Ni 7.613636680398623 8.474599863850269 7.061548219424396 1.729822008963234 2.0521771531332464 -2.345505571053606
Ni 7.148866504980462 2.101811165919124 5.31568967063423 -0.48421945790939835 -1.090275267102019 0.35197450969834215
Ni 3.0003061994198603 5.0604142888707315 1.5357739032938507 0.4130168696226435 2.9233437801614297 -0.08366961040551396
Ni 2.6745279034490945 0.4906464795744042 7.154239485619067 0.11983551880310975 1.3669089979755167 -1.2242310273565948
Ni 8.812239510717822 6.991425676965485 0.07531820003608627 0.3591250047001944 -1.8110521566893196 0.6250788872623428
P 6.821140411650967 0.6180599900054321 2.412716375265786 0.43766372163704625 2.2374336205443273 1.0584110714035708
Ni 2.9071518719663207 0.4034081272118339 2.723937642297072 -0.0400960966899374 -0.011849186029102175 0.9871781440995128
P 2.1658220347788544 2.1583524156625975 10.098885537968577 -1.1178706602217845 -0.24524158971546153 -0.18794764108999887
Ni 7.888753869595662 3.5288391751662154 0.4107298239815079 0.6891808599485745 1.281792113600515 0.4043604794992262
P 3.117725304346996 -0.11994756640412718 5.150639570107465 0.036765232544491516 -0.16810232422929758 -0.7091938127353916
P 5.545783340129788 5.326160000209736 7.325341539542976 -0.2492550817502288 -0.9511737009804458 -0.11350366304781098
P 4.62522858276911 8.386737665069504 12.822460265191735 -0.39633400965032384 -0.0521118902038909 -1.8136600266258118
Ni 0.8230766872796963 5.547363628552907 5.434200277100126 -2.963102033895974 -1.721924094272396 2.1242194637124774
