# total energy = -340872.3200056703 ev
CRYSTAL
PRIMVEC
9.19599624519344 0.00000000000000 0.00000000000000
0.00000000000000 9.19599624519344 0.00000000000000
0.00000000000000 0.00000000000000 13.45927005038598
PRIMCOORD
 96 1
Ni 3.635416321625244 4.853076546298151 0.46400788865401693 1.8709681163186618 0.5896223462269459 0.5519289454412301
Ni 8.29991057759195 0.11514306613546711 4.371099681425885 -0.12685103088899444 -0.025673750617020298 -0.8051661517676585
Ni 6.4148233539589015 5.55830828488635 10.731735628851501 -1.0735265868887707 -0.16284441826446794 0.2277858561328593
Ni 2.4819993251307864 3.951041296938837 2.6306011031764274 -0.5660378740387865 1.0052884805469784 -0.7857982887640079
Ni 8.070001481157734 0.6245552655264265 12.642157821512841 -1.7589994018581383 1.5347922642154728 1.0090690306353332
Ni 2.2112324183906944 7.6694238946342175 13.066191635078265 -0.6093823024626924 0.5704133773986627 -0.6602860312910951
Ni 7.693131172367405 5.588894167640648 12.690610604929594 -0.34294273851337714 -0.5773137040629218 1.013529380399532
Ni 1.8213037952554754 7.495610373906922 4.300384311250299 0.12396419625950264 -0.07571230323165025 -0.3184115861412323
Ni 1.965947616615172 8.046588475297108 10.382426639725306 -1.380441485244313 -0.4023799587340876 -0.2383551470082734
Ni 6.774497150196453 7.600490708486829 5.610240833196135 1.3996537965067057 1.7204253982396822 2.02566830820944
Ni 5.028278662424093 2.895432914086807 1.224328241385217 -1.112148927246659 0.45229201307318234 0.5091504168231231
Ni 7.242628523464729 2.537037361295691 0.6293417814535497 0.2685810357723503 0.32425878895062865 0.39223412854933737
Ni 4.352538483064106 6.9621782329181805 4.2818920828586515 -0.024298467536048474 -0.6592133670522067 -0.6167983924211056
Ni 7.681397081449039 0.13590394674463815 8.410145740652862 -0.7788604239935941 -1.5727260631467688 -0.22039984808143334
Ni 7.397645428332197 2.9741322480048105 4.490334965789152 1.6350873989928099 -0.7988972880398113 1.7106132972452668
Ni 5.356998736066647 2.255299631306688 12.263211976421355 -0.3947597231846685 -0.1724217775402579 0.30796905065166963
Ni 1.470963934975714 2.8340036606897203 10.61009007393204 0.6196021804184877 0.7008896637450702 0.8014035994014327
Ni 3.529303723578989 1.0460353509977838 0.0236134785738082 0.1429448511270635 0.27790154184232785 0.047185399436551
Ni 5.4145012991642485 8.661294829088762 7.136737548922497 -1.141241473737241 0.5954716059188712 0.05629558926793531
Ni 8.283495724700662 8.965406417388412 10.531636273107706 1.5449586632255135 -0.6770545089986856 0.31763228477304656
Ni 5.3276543127747145 5.904142107117522 2.11998330870757 0.6326078486495362 -0.6512599165330848 0.2062045304176578
Ni 8.331213748035616 2.1656202781437557 10.519549975541869 0.6891857450445807 -0.16817097268370393 -0.2634745677837204
Ni 0.3552468437547142 5.195563025978943 3.7884744793409784 -0.2925210915277156 -0.9008366432887905 -1.356785793498586
Ni 4.477833928802924 4.0417046216756445 4.103259860218172 -0.14710232493886277 1.2682753100610027 -1.2414234799754813
P 1.5871921286412494 0.21502169848143965 0.5774285447354011 -1.4262888825957307 0.46313718331780235 1.078754153836297
P 0.1834610401492838 3.9537817037520604 1.485728106581855 0.31174394431306957 -0.025700490089897676 0.18509345947065542
P 6.567945883646758 5.512466244738974 6.898912539116394 0.2653869543150849 -0.10574381659673401 -0.001437246667158815
P 5.445776881619861 5.743938660496169 12.648389028414316 -0.7141429292105508 0.4826408005683688 1.22262948719743
P 7.768657887659361 0.48338477186255 1.466522268899248 -0.1106610513926933 -0.1298427665274667 0.034640730002320985
P 0.3241643772154698 1.9154983824630138 4.858729325050126 -0.7846533765262874 -0.12080970979092095 -0.571723354459338
P 7.232972727646325 3.5738307362958595 11.98296307818759 0.16105673023642586 -0.6933437330770124 0.1442622843869064
P 3.06289200156599 3.0317543590506406 12.308421332042727 0.7740313780360669 -1.0832522988169666 -0.4558013117780214
Ni 8.615020577128561 7.675658779934102 12.955960150415759 1.398308852443037 0.47463335688286 0.7549494217039515
Ni 0.042265717296160084 2.931508806463569 12.82022357079864 -1.5303902784930354 1.0244622252619517 -1.8811720534348568
Ni 1.275953643428017 0.44766752333047155 3.4316698338608953 0.7356270672262556 1.6484566212108644 -0.5642998083017572
Ni 4.3996035906818145 7.387336716796549 0.2819510770966096 1.2246863697264587 0.3056067210670801 0.2880036632733362
Ni 0.20616963271496727 1.4264185302668086 7.326621072690423 0.12088787132702405 0.4877135871055858 -0.03373955834429028
Ni 3.0606113945536433 0.34349987844192403 7.772701367108269 -0.5088868787490912 -0.6561198157285475 0.20695760653359843
Ni 4.341227407962547 5.682399055146872 6.52516151217521 0.6032322237008966 -0.056675084094541105 0.04013697723020185
Ni 5.787739189527654 0.5377616159137945 10.436129417268464 0.8238153914377295 0.22908632011183772 -0.7597905518463367
Ni 6.235565803589228 2.9338813734360913 10.161963670400295 -1.2838304841867825 0.5821543199846748 1.1306235890120786
Ni 6.368254830126139 7.815410331412474 11.668190571704821 0.4295750310916408 -1.0380065396052898 0.7783480031335498
Ni 2.3940212312310964 4.578245009318311 9.184161690252967 0.3996805575250536 0.1802402451434122 -0.789425343993634
Ni 5.492933949197744 2.029951748897166 3.375019739594118 -0.8509487573194118 -1.3321497401174607 0.4273970496037155
Ni 8.933468723219535 4.721941643088202 10.633092018770684 0.45047578580005 -1.3106347488638201 2.99109389112321
Ni 1.668723829332652 2.566915152356639 0.7303791092977308 2.115378982602712 -0.9266561754550556 1.156287569437086
Ni 2.565204697097379 5.288139117887397 4.725737750244238 -0.02765889936784914 0.285893816019185 0.1404840482913968
Ni 1.1315213299767233 0.8477595612642624 12.004188356595646 0.9277830899706474 -0.29631681112472197 -0.3152007925134185
Ni 3.5441552571472967 1.6560885308045685 10.09665922428142 0.364548746818927 0.869708040204786 -0.11379908280104271
Ni 0.5915094538374399 6.082884681710214 9.168925764051126 0.14027527471470036 1.6592855935055681 -1.2542016055767562
Ni 2.6244361074462765 2.384981567145867 4.461344588343895 0.9793357652369586 -2.2525918163420044 -1.9458314412864555
Ni 5.249966538418638 4.374038721753086 8.655036953798835 -0.7199662207605471 1.2746084513678824 -1.1805101894298764
Ni 0.2201990442393079 7.864645694090318 2.2632026702841515 -0.9527801262356171 0.22422410692352998 -0.630112078810876
Ni 4.2992568821385495 1.333125150668988 6.0601705715469185 0.4746811794016599 0.9877486718910022 0.040627543713375194
Ni 3.591808908510126 6.424249249876866 11.540004824417695 -0.4390138079070375 -0.21373426313579963 0.08406710295424877
Ni 5.881225685041843 7.082250352919042 8.719628710226349 -0.1904575519960462 -0.39012608106739904 0.10271531418305536
P 3.9982535404928257 6.0083235460000965 9.403911050287018 0.3236846616147135 0.39583007343071186 0.2185702510718623
P 7.813865404081529 7.031010263109376 9.806141157294883 -0.1493273576146396 -0.03968394885318327 -0.5150778380511516
P 5.645789795001093 0.1190725152337568 13.013794688969595 -0.615569919330643 0.42575488601460226 -0.03209379521075118
P 1.2146163499911056 5.119052339113111 7.207223938797246 0.035912140515576854 -0.38610564705409633 1.8721886189893238
P 5.860737005914792 0.33757121980942373 4.734850062698007 0.9300808848658886 0.41579468947809683 0.94119293561865
P 8.787997262218262 8.558989373393764 6.355614933600047 0.3270790320082432 -0.33491061223751994 1.6155894381691982
P 0.7609042984783129 6.5229958551130816 11.91005354336222 0.5478550324821726 -1.242362961070615 -1.3775788189845373
P 8.324040871141943 6.962077076961988 3.9627726290583976 -0.07902002744864456 -0.2328280465424571 -0.8868238739494663
Ni 4.275972620222169 4.401709473769828 10.856974059415013 -0.2573383729789955 -2.6171426200434604 1.1113048340788085
Ni 7.502967170720945 4.952586419203821 8.943294644964265 1.0240400501228686 -0.28735086018068573 -3.509275050690034
Ni 2.6066050711682895 2.5581053881718474 7.639750254684858 -0.036038638791112125 1.1033372424922998 0.09243578663391822
Ni 5.736526687706041 3.366819669945288 6.400004006376654 0.633458883795922 0.7977495475886133 -0.6274324750961839
Ni 2.810517086860954 7.2170176745559145 7.963567023250866 0.6824047175670054 -1.8775311142481597 0.9547938142315363
Ni 3.817294730859911 8.665120363432054 11.516652512130783 1.47135980679244 1.6067440719634263 1.5861996721531715
Ni 8.756694091774596 2.0939190971950907 2.665379440515116 0.08001915813712025 0.15355502254274198 -0.5123028464091758
Ni 1.7193569834051607 0.382860580596147 5.843408990618963 0.21682395780471692 -0.6542663074595764 -0.5731680573256646
Ni 7.132524863146867 2.4436428257416773 8.220020362189675 0.3411828183994769 0.24606125740327944 -0.23297639919486327
Ni 2.8028476261823356 8.416883646934904 2.156107939863225 -0.16675712305531282 -1.0388853426658173 -1.496870292358719
Ni 1.25310159332446 6.013381343809736 0.88699151947424 -1.0140685407324537 0.28560251003101134 3.0265887415957105
Ni 0.8744858844900039 8.363050286248296 8.221285731241688 -1.5858433172550173 0.9817186636468384 -0.2808063741939486
Ni 6.405654945929426 8.058322566215473 3.281531404880725 -0.048277089838832984 -0.37161953762277933 0.004374989139244078
Ni 6.4149429019071285 5.807556560945426 4.550767373217939 0.19036936315761407 -3.5883814672048975 -1.2143770173806505
Ni 0.44782937286038005 3.4301524945180026 8.504630001734954 -0.739107055355056 0.586493570789977 0.7641228606731033
Ni 5.125167676464767 0.26548656582682767 1.7485478335635996 0.3176184008159756 0.08655773058658642 -0.3846138929999182
Ni 6.870374604675199 7.7319658635494255 1.10004067680992 -0.16094540146954217 -0.25033443085733664 -1.232607424345748
Ni 3.8790182561295588 0.07162485418171974 4.031858468739678 -1.072543654150211 0.8303477932396087 0.1157693191535361
Ni 8.276810235595919 3.87700433300172 6.6079769739106595 -0.6901663637902953 0.9943350668592682 -0.1619995537656694
Ni 7.8874057842336995 5.443468686619461 1.6741182005965338 -0.41752658456753894 0.461068987934864 0.9287428827807553
Ni 1.2830253643654959 3.569278718267183 5.6750339819364335 -1.2406308088708569 1.5414285385850681 1.8474726042998826
Ni 1.8376450801786226 4.762587945485676 12.704002733929919 -1.3706931476082975 -1.2641700296433778 -3.1841986509341162
Ni 7.2234916557522535 1.0895967841328134 6.353717799621632 -0.8727997917562323 0.19167779755639247 -1.4665436163507195
Ni 0.2521073112209263 6.348437458708366 5.825306672458459 -0.7544040907234427 1.1540584229962512 0.33766734904705076
P 6.314495037407671 3.992708354894256 3.1348258412138987 0.8635062822694483 1.9158562350806037 -3.220297453539202
P 3.3268354792610766 7.788999430850133 5.968957326248264 -0.1985999785975225 0.7590089364853057 -0.2029690541994956
P 4.0240299173299565 8.830593115771451 9.448878551213127 1.119652948933188 -1.1576919059837802 0.06447452553430186
P 3.1822836178615552 6.256026894728229 2.325182763842688 -0.3243531484366478 -0.656152725849012 0.20341642614955935
P 3.605179886719612 3.5879098061986947 5.88596714058848 -0.7382398222587544 0.5067958005480175 2.176312070642658
P 4.764151264808656 2.353310556861501 8.175106198040469 0.21789636493328923 -0.9796962339001708 0.5790180883485383
P 3.219453833764403 1.8076109571853762 2.3923448011571016 1.0100632762278023 -0.578955610541719 -0.27639358983823364
P 0.9321981162968056 1.0547807432104528 9.500844205108576 -0.1400284488112169 -0.6247287030117757 -0.03162713998697779
