# total energy = -340891.5007093298 ev
CRYSTAL
PRIMVEC
9.09007773738159 0.00000000000000 0.00000000000000
0.00000000000000 9.09007773738159 0.00000000000000
0.00000000000000 0.00000000000000 13.30424760779935
PRIMCOORD
 96 1
Ni 6.525021247331394 2.005025663312466 11.382621400508192 -0.2935747296032105 0.40917178484494054 0.36118651521491346
Ni 4.9643367521312545 0.34814996805985976 6.209651007726383 -1.165139106290445 0.14332974527030798 -0.9452236540445978
Ni 2.7079068155385917 1.4258877360262592 4.842320641915392 0.9259396090040054 0.431676907925992 0.6282133191262665
Ni 3.6457937412438692 4.4255860391554895 4.827432912994024 -0.7294649042796019 0.009273454882125965 -0.7668500297962793
Ni 4.846329366090703 4.4384212285784805 2.2820375939039277 0.3148914888031158 0.46097308578694807 0.6101214946215621
Ni 7.277125169193137 6.060245585010229 2.6462679090525048 -0.09228897664340881 -0.07825049627247169 -0.7329356364370216
Ni 5.0425568689760345 4.472290857324983 11.293655903056532 0.6561779226599925 0.4938040162740399 0.6674516958015989
Ni 5.594897247806877 7.945518567403098 12.380320127123055 -0.30085892196944963 -0.5226463944270289 0.10571373468974697
Ni 1.7915451933415574 6.530475293828416 0.19528758887234474 -0.002446404657963529 0.1666293392281969 1.0178570612406084
Ni 2.722460029608143 1.8734922419593023 0.47672456918838946 0.31297781672017067 -0.9736528559195683 0.15273638329618855
Ni 0.5106832806943431 8.86644340850264 4.913976813801008 1.2875457282548406 2.0160348988847345 0.4589164603682354
Ni 8.452363108371287 2.2569026206224048 1.4577730008555951 1.3452909054851088 1.1166105625624383 -0.47801358620900253
Ni 7.064780958909108 0.4777208416818453 4.795902161186994 -0.12835178380423704 1.1718810529999688 0.08627156680473529
Ni 0.9046063339804541 7.338546822827092 2.912007234542373 -0.3991465393984545 1.006929615694827 -1.398606586189114
Ni 7.64149183550414 3.712787612382281 3.7345556209596427 1.2787998637414106 0.662299205066382 0.7547177653091195
Ni 7.5201393009454165 3.7407668709120006 12.929187187343043 1.3886124510908795 0.17575624123012956 -1.2124412338105182
Ni 8.069307242730492 -0.15158704131496153 7.028873334788219 -0.4019642113529077 -0.7640459846885809 -0.3700897312418142
Ni 6.764590239713056 0.6092833512829932 0.3940148630688109 0.44059349368933154 0.45862926814511984 0.0893931431528525
Ni 1.8353411867126384 6.581270646870675 9.32178084336071 0.8251143127548113 0.3818964940687552 -1.6938790152097216
Ni -0.008078351869838052 5.004869407681618 1.296187783303844 0.12915088266676467 -0.5238015910773947 0.24406890956359903
Ni 6.54033802791053 1.947394571993941 7.070249549530121 -0.42260477042139477 0.7732582473154683 -0.5930902501708882
Ni 3.2822724521399045 4.315814263325441 0.3702815797370227 -0.06377492836411597 0.32555642471612967 0.23758535872178435
Ni 6.049546563798573 5.673871841083746 4.720107277017889 -0.13199657964567588 -0.37470126187189656 0.4733493479641138
Ni 5.556728012405222 3.066064958920485 9.164510685595852 0.049366980468902075 -1.056717742861548 -0.349020826386657
P 0.15978720022323306 5.687061543529042 12.405811431442382 -0.8477865575413464 -0.18549069490907408 0.3156921303275402
P 4.148675008424224 5.955773324359786 12.60078541264115 0.11832448147522202 1.7386591476388895 -0.368423656393301
P 2.324450986488014 8.516311803548863 1.5136769774500634 -0.014489966086058915 -0.5344937806839182 -0.1756485120076717
P 6.3740168799838655 7.679197476953548 5.800492075550842 -0.017238989586105796 0.3212374856258016 -0.009482228458822378
P 4.900260795868748 1.1553215793865272 12.69277063383666 -1.328271488108977 -0.4210502814500813 0.5977058945660287
P 3.9445573182732017 6.000887378967648 8.171495166906432 0.7963431541593898 0.5942673011981249 1.258308428656278
P 4.6357849911506905 1.1663114830780252 3.4705197759923445 1.5409161177250237 -1.5570814146309764 2.880218666837181
P 0.3045912257113991 5.392633933464842 3.7054719180142763 -1.0167684561621197 0.8652608030667098 -0.5562268014856356
Ni 1.4657113655320095 0.8541236796040249 2.8888838954105016 -0.8809661296171085 0.9322005023120525 -0.635204662842435
Ni 1.9744011922316915 6.29985093770187 4.862409713179421 0.41268468309420536 1.4469808637274433 -0.9596064051288312
Ni 5.976653232365883 5.70945949447681 9.317735758875418 0.12370451484021276 -0.09365628930458064 -1.1013418093288259
Ni 8.713666476043578 2.068438043917834 10.249126006194995 0.5663057829881925 1.3374822080739677 -0.2175448951311415
Ni 2.5066615898760003 5.228712565996867 6.794638399880645 -0.6577097859234867 -0.23641782077624446 2.505862961230162
Ni 0.6090124669736411 -0.07033811064883522 9.179717476237297 0.5553976207161209 0.3899869843863735 -0.14899928485125952
Ni 1.2828462765643804 0.9176524132013291 11.809954124619557 0.27649951928847866 0.9525749522033466 -1.107862384056163
Ni 3.927813395527346 6.902977579497476 1.349915595346001 0.9671456509286699 0.08738382603230756 0.12575214139786084
Ni 5.646719779606074 7.914139619890236 7.904572313326711 -0.6520345899155803 -0.26187585583803286 1.1170556205196567
Ni 5.4671816590016284 3.054802352904136 4.642370752295844 -0.03487392905904961 -1.43940407982145 0.3094150390695768
Ni 0.8929310384458305 7.447400500830143 6.968551580531163 0.14966340079781965 0.02674692907654103 -0.2544862482421811
Ni 4.92358593472101 4.368827595276488 6.964746474091741 1.676464676388016 1.0936644952892263 0.13321579676475767
Ni 8.322474991044725 7.163917344069965 9.490943549512323 -0.9050411682884414 0.07447920215549754 -0.39638903125797537
Ni 4.728367430437627 0.41882895661475883 10.652444563579975 -0.8034525115106614 -0.22513196344978 -0.7370889964837628
Ni 8.178124560423562 7.2863697780055885 4.56069640600295 -1.1154648789937691 -2.0718057259974514 0.9623518290844525
Ni 7.2984050406090155 6.2727715968441595 7.1855708176708895 0.3383466345022625 -1.0585825639844284 -0.5913753243623107
Ni 2.2797823456774093 5.432612094288008 2.5021165511284824 0.12960622503662841 -1.2542252597258399 0.0026202112316664554
Ni 2.4709012250105307 5.5465471256107834 11.31228238085161 -0.43857877725214794 -1.2082567634155257 0.6625648000229428
Ni 1.2536125873403463 3.3276137586851413 3.8053209652507443 -1.1287073458259722 0.14414864162717755 0.7489677501992198
Ni 3.3452485090255104 2.5643017712720204 2.873650743544321 -0.21037897351032153 2.154691407049089 -1.0282054943544678
Ni 1.0611847368479397 3.2937986704036093 8.342414985037836 0.13952296992970808 0.67766720288202 -0.8102060281844111
Ni 3.6084335227392734 2.564629014061842 7.07078131906358 0.15529745915514542 -0.582852374492964 0.2757729255350993
Ni 4.125286239029497 6.822530393666412 6.02953839422425 0.5265765827193705 0.9487902883499338 -0.14402188624132617
Ni 0.8480842321163233 7.5353560906721055 11.387278247208899 0.017605628896905163 0.09731754020625176 0.3583549593033893
P 0.14615481100392833 5.73782053626132 8.039982652731506 0.4215372483888289 -0.790830966091909 0.33018441040644425
P 8.719238693548034 1.570838111762095 8.033157822548233 -0.5844431160188516 0.9063534593419615 0.4037228459152272
P 1.5674202426239618 3.3708916176390056 10.440322151186825 1.679515804509514 -1.0915819017285846 1.0269148005675022
P 4.126613390343772 6.181343597399093 3.5013451377857594 -0.36235739559456304 -0.41539436871588464 1.0615624725483588
P 7.022684810029598 4.005224495475068 10.497783258056192 0.675457853935527 0.3225924569917993 -0.3996635882441891
P 6.362027067767913 7.921820735373541 10.040848696582245 -0.24491428828302983 -0.9151895695763529 1.6536762177385906
P 2.5444035916353878 8.516893568508545 5.830440244865986 -0.29826467887971214 0.03433065496106991 0.6210908491488722
P 6.8955055357965565 3.9359035644979277 1.700681687708932 -0.2413188576222876 1.0515356844399761 -0.6444593486714837
Ni 5.311714063604036 3.1194782542813138 0.23248782201302803 -0.04724170659578315 -0.6580712830279635 0.2768376193541877
Ni 1.5460949208206085 1.3013264041117876 6.909321544581261 -0.6204030790532282 -1.1503436931488253 0.6909232965609778
Ni 6.833147604180613 0.8041209813193336 9.173531678501925 0.32526743272080105 -0.5854959827633981 0.3478764283695686
Ni 2.7280413371900947 1.5038169703911985 9.203159877089243 -0.014897743047438858 0.32575439965954867 1.0383592949590181
Ni 6.484188619223696 1.8853093427028484 2.58740965727215 -1.0961430387367057 -0.48403305293020515 0.3460895116724749
Ni 4.150429393380765 7.007422569915434 10.261433062115524 0.2725559612596984 0.3858971305877161 0.12479749079407539
Ni 8.345200184782314 7.531111024481924 0.29557114181307537 -1.055710641753272 -1.55383359711764 -0.36917416140608034
Ni 7.708122103542751 3.8324039421394533 8.269787083868 0.4147428511748148 0.3739397011155237 -0.21714097482450345
Ni 2.9642015505111172 8.540745931855517 12.735064946405563 1.0950930002056367 0.0855017785182463 -0.691983362394376
Ni 0.22439038098045042 5.065118441318713 10.174542829355978 -1.0635147111787233 -1.0495613343224246 0.6535883075559453
Ni 8.674660953512381 2.518860473874338 5.929915689917409 0.04531826432082518 -0.1800057605351029 -0.6094486369242537
Ni 3.616278259617489 2.68709053807496 11.605294665849831 -1.0708942914722461 -0.8495655038186399 -0.10107032238046465
Ni 1.1984630871779658 3.610778762732993 12.72468771393723 -1.1137260419257917 -0.060096965291896495 -0.8524644226329899
Ni 3.018923817031231 8.46969788615432 8.035832123347273 0.6591269779859874 -0.6674162145779731 -0.3317504693419835
Ni 5.484707328412057 7.9035405895310245 3.7444538063439867 0.8681813191476144 0.5525323833531839 -0.7662069968956418
Ni 3.1678829169423777 8.381042360345239 3.7299524057161566 -0.004157216701483163 -0.8218436124233395 -0.5486518173518551
Ni 3.531213314418947 3.9622193388460554 9.56281333821907 -1.664399517693366 1.2585118029163356 -1.2774544054571095
Ni 7.162562922523206 6.003014457101486 11.54364303325525 1.246327602145318 0.2174597916165029 -0.9684198896554032
Ni 0.4891570681783495 9.364961438485377 0.6886288197216591 0.4326680681946678 0.15680643960050414 -0.10144107545632207
Ni 4.457083157675788 0.2548457766198174 1.5803845111473815 0.20650174994310241 -0.2917297059746718 -1.1697359816325081
Ni 6.113186196341316 5.7106502946286595 0.23072798300998915 -0.44291854227808236 0.28579842809190137 1.8126698947984008
Ni 8.01522128163503 8.98210555454947 11.383419509312258 -0.7684937360472894 -0.7489091290471425 -0.265353272863672
Ni 0.28306228617215706 4.936975618871197 5.914070775835812 -1.4957176668115144 -0.21510440401044892 0.2584722294731226
Ni 7.919857278634613 8.711066713879998 2.639815772046529 0.2380954655889835 0.5873844580353625 -0.638847401801345
P 8.600495011230386 1.6854003584320276 3.5804788074187908 -0.08431238619583545 -1.2956920115110588 1.2388091822810856
P 1.6863457264915116 3.376100232043661 1.6814307215899458 -0.35089310370870536 0.05430684097268066 -1.4047327536915097
P 4.7446932096187115 0.9712929604995336 8.414178419837892 0.10351287038368624 0.8944124849300017 -1.2830817789462161
P 8.419120694971943 1.667029311814561 12.565342291480256 0.5804144544754326 0.30695320779264557 0.10451791460943291
P 6.289024655405283 7.827438460742587 1.4185120471467874 0.1910512197159871 -1.2167326620970205 -0.1397145171152239
P 1.8567301390584567 3.374309486777139 5.990582867119275 0.29762241731002287 -1.6579853866369059 -0.28255523856425535
P 6.968962452033939 4.029440461921842 6.025945995598212 -0.16790666327872372 -0.037368670456445326 0.20540208912102045
P 2.5215056864253933 8.588287037154554 10.317643374321575 -0.221852778477876 0.27360651401139974 0.508676305400182
