# total energy = -381166.93751108245 ev
CRYSTAL
PRIMVEC
9.31188265343573 0.00000000000000 0.00000000000000

0.00000000000000 9.31188265343573 0.00000000000000

0.00000000000000 0.00000000000000 13.62888152282413

PRIMCOORD
 96 1
Ni 6.548618721912529 1.2587896086575512 3.5601776400269975 1.115954417035678 2.3208188669402032 -0.24436278665493402
Ni 7.925604057060418 -0.07155343747927216 0.5916528127556261 2.142005584051305 -1.468706428329993 0.17628306026787705
Ni 8.865470996800648 4.782098711704072 7.735385574205193 -2.136962879421074 -0.3268296350015984 0.0884912001638734
Ni 4.5906091568669725 0.7209045375176076 6.858871096893417 0.08809036518102893 0.8675218311867445 1.0659405470113965
Ni 6.735051924470084 0.7305255746727181 5.8941367745334405 0.7238982088251017 -3.0326614301523516 0.827509295349549
Ni 1.6375318117255018 9.814258720120625 11.268100609917584 -0.026345836983380434 -0.5529959532531638 0.2295249503111531
Ni 7.98596368040481 4.61705490359608 10.434707598786495 0.47154417643457497 -1.28901614215278 -0.041517402517496235
Ni 3.630405065416754 6.333393178197791 2.447597625627335 -0.5370769680300621 -1.234498470720874 1.8837596116563753
Ni 5.554640432086792 6.88259870507667 4.257008167326731 -0.4472053425788943 -0.4914195752022634 -1.0433359222380032
Ni 1.1190927451258377 4.8653190069568995 9.73098069119536 -0.6645247519627911 1.6693252371297573 -0.17782520794401635
Ni 4.390142947154219 4.565020103341767 1.3223189968563758 1.0239755154335202 0.2565125346435905 -1.3683130774118952
Ni 1.6751238819879684 7.852999308029838 2.58113281640882 0.1531927541073168 -0.012178544344062897 0.793474317252027
Ni 9.178070897397877 2.3252702168047072 6.643602718518484 -0.3198614312138814 -0.10082452491824571 1.7928289488130735
Ni 7.033386020845837 6.249008897613576 7.7405508755117545 -1.2352677447867306 0.1325750778569652 -2.467067071408887
Ni 5.139200099490879 9.233979440835045 4.345868669901328 -0.7838064551449598 -2.2818216597413996 1.0636211548496004
Ni 3.5396700808644934 5.164640162893669 10.586452176092193 -0.48839827187743623 0.6316508840529056 0.542633121961601
Ni 7.358137928302743 7.555838508868122 5.547104325457261 1.068735336147714 0.4938724076181301 1.0731838588373712
Ni 4.555102948318352 4.362048997195869 4.1531424970481625 0.3005850994827727 1.141459760395634 1.3310037994384754
Ni 6.131977156454625 4.3997714338154505 11.979214634015833 0.5615561841183491 1.45012506578338 1.5887468640550573
Ni 3.6745992604788467 4.715379072508983 8.2059224540711 0.9026312732953682 -0.7520258202992532 0.7449905107190267
Ni 2.208620262834452 2.9732282591984394 10.026168302423308 0.29101622484741496 -1.3486605932882902 -0.7590598443278992
Ni 3.8711544794781405 1.6759991989571714 4.5633178911931465 -0.17353120855435275 1.6846330711314212 0.3873899130831586
Ni 5.090880740414352 2.8196939380472 2.4512637138270708 1.2661081272063548 -1.7323221496772683 1.0398464210275058
Ni 8.768199070627318 4.681353453301885 13.004283437637042 -1.8379752063324089 -1.033494253557233 -0.333393147151729
P 2.1062268012030207 7.1608284468087104 9.420773944439462 0.7563954101218586 0.933194747904522 1.7203755188383534
Ni 3.7943873189025212 2.398182257962774 0.6093910180176952 -0.5814506090494309 -1.1191024757463566 -0.02605273122299384
P 9.037871192203005 6.125943056496717 11.513365355876486 0.12578016642231885 0.05323623361632122 -0.40194287119666905
Ni 1.5156858272359353 4.9891577343338005 12.17139513054564 1.715418431943394 -1.4745014377452155 0.11774289794013916
P 3.6937444912094963 5.013824911476549 12.970525069462031 -0.13613759839724296 0.4383219240463354 -1.1148511566691701
P 6.030598690032164 3.9485269124260816 7.512485176809423 0.2435274352378322 0.804415389644563 -0.19161609108052158
P 8.300584259537326 1.9603096000603764 13.592219878026617 -0.14167549749633665 0.9902765805191783 -1.163189952983874
Ni 8.963404066642203 8.219189093284113 11.496616072551964 0.21145009508731324 2.1194289843023695 -1.4513828494498813
Ni 7.279089356477606 7.227408407764033 12.523374982874348 -1.0272773261132437 -0.8400053709340307 0.5454477085922607
Ni 7.320052328259768 8.55681002256483 8.3148714810889 -0.2481343378822243 0.10847947036034222 -0.4970770305983569
Ni 3.792925353326299 8.142887526841047 10.634398128674412 -1.0918235854257454 -0.1405706944679321 -1.2082637053940608
Ni 8.946000157967308 5.142831733724806 1.510679759122707 -0.11995636065169019 1.1384492557040844 1.1888300221494816
Ni 3.3585260276527595 7.146413652464817 0.222596830021344 -0.4377922767951105 -0.013972403019692065 -0.2535652790898085
Ni 7.04907654311293 1.9759814985621678 8.228668589822925 0.7129692206174237 0.9250044987842456 -0.4063739103848291
Ni 3.5031116295762974 0.7374703767539039 2.5372068035670785 0.16976274265085603 0.7943248381777803 -0.49740870290616274
Ni 5.003693583152158 3.2617476312599383 10.502402192095152 -0.7597980080455043 -0.8986177812606008 -1.6983774173007073
Ni 1.8607841982854827 0.5687176457859814 4.501919061744892 0.4373585316918016 -1.0013793753005593 0.9585113722924397
Ni 6.307785500907282 5.060458819793228 2.67003429126708 0.48131154023398404 -0.0888796938515437 0.24454070699369498
Ni 6.069149884207694 0.6165444062702659 9.83017179638308 -0.9702322602737934 1.1437151320887142 0.03462530338335327
Ni 6.8689847326407705 3.604089685044762 0.7472767203737711 -0.14619986772925145 -0.11566184704139434 -0.5985967818114143
Ni 4.567171148234169 8.224515490160538 2.2056032128554968 1.00642336548237 -0.1203433116774637 -1.000899350340347
Ni 1.1413388327793015 2.9115463485175916 0.7020498375256723 -0.953551714294319 0.2276480450034144 -0.5733292654938771
Ni 2.115110337252165 1.293113208109484 6.791639304152518 0.04876765632200633 0.13492943702175472 -0.2824202556482878
Ni 3.0675483185713714 8.29635666481373 6.705191510372821 -0.03862799678484315 0.058574100889466865 0.22975480693377204
Ni 0.2887549626925722 2.6508508818175613 11.826243681764984 -1.4511275389059655 -0.4272163010514771 -0.20579341102216817
Ni 5.712393036078977 2.19907558311708 12.631929186067742 -0.7792203784361741 -0.3231395877445209 0.36472641004737183
Ni 2.162647498186 5.068420479459913 1.0354124428700457 -1.258064430966272 0.16626038592455236 0.11778943490735844
Ni 3.913272124709039 1.1755041302261655 10.843601677878688 0.09795363112835388 0.15203575768473818 -0.1305153671144591
Ni 2.8320228706772483 3.5418583732875004 2.9657266065347176 -0.41880956504502065 -0.8270063875712016 -0.893921404226196
Ni 2.47934462714971 9.478565350548683 8.74382708016461 0.8167723685480192 -0.1525810886652469 1.7118903641854777
Ni 4.170047288812959 3.1300869224561194 6.321947943231332 0.022087061707026477 0.530114677779616 1.0704788012013822
Ni 0.26141620641722507 7.453296057114274 13.580662900468344 -0.14061388900104171 -2.437580117693363 -1.2147045759233983
P 5.555795105535528 8.029021825783468 6.836519784965996 0.03930676801942263 0.32468070697939566 -0.35350277341741054
Ni 0.4996802789990349 3.612600745787862 3.0699740640019813 -0.010884251012671577 1.1743310572023582 -0.7618034685113073
P 7.494259028896437 3.476228224362589 3.645290109834528 -0.3745567658742323 0.7010423872728506 0.4486199635382338
Ni 6.803419766894416 8.489010204982215 2.6688349207816193 1.7852382809500094 -1.9391931100343311 0.3148809472801545
P 3.8832878625725162 2.2895963943683655 8.747575112931676 -0.08441291632944171 -0.7527434151915681 -0.41451428010377644
P 6.245284144553139 8.03916246599051 10.533953644081857 0.14054112678157732 -1.634981726652881 0.639293488199828
P 2.8399845303439335 0.31861630797810075 13.207095310589606 1.232069549564407 1.0940810140013544 -1.3696773047492734
Ni 1.290431385905969 -0.08185517325617757 0.774995401461283 -0.6361071200520464 1.121694404843249 0.2650557962279113
Ni 5.890333801658734 6.512172013216146 0.7243331727097405 -0.4972107279627437 0.3218355242211167 0.04335085618180921
Ni 8.965834468014139 4.407798276660694 5.182150227030786 0.24427639758871475 0.5785262363137844 0.16089603628884547
Ni 1.9278856246692666 6.425329395612043 7.496307643079678 0.4733658030243461 -0.8286367240857729 -1.073367692713403
Ni 9.063180889248677 1.9316476252603088 4.430163556412092 -0.7937414548704846 -0.544972568728055 -0.17729838890626884
Ni 1.6886633593626594 2.9886580487513017 5.220924906389942 1.429198342933042 1.164483217874001 -0.8031501497788942
Ni 5.0911507850112345 6.6183088516733175 11.816444787651237 0.08562853390409769 -1.2795580820636738 0.36527096969693224
Ni 7.038041962171383 0.3676759617253901 12.112559862391233 0.36631483758041433 -0.23447612366884132 -0.7688948281404501
Ni 8.204560125639244 2.090014813507466 2.143250846623771 0.6026449837388589 -0.728835498225719 -0.942040628330926
Ni 6.027283659808375 0.7107778651345428 1.163898730878107 -2.465615683674341 1.8067707557051467 -0.26351210588987517
Ni 5.975444409089734 5.481300044326775 9.522185933639468 -0.9683854368730419 -0.8407242513779263 1.1207760067940375
Ni 1.4219431045873712 1.4561084020342354 2.4818877023017243 -1.1583686203358308 0.5189866861872546 0.45143583572047413
Ni 1.6614074788429067 7.266676616903697 11.818297852298805 2.3559992714960782 0.4531476762052583 -1.5759090888604406
Ni 8.052338779941808 6.367744713297678 3.612607264105718 0.8816503001683268 0.21233635434700848 -0.34013509386125296
Ni 8.548401392530893 6.518951063786144 9.31696228308027 1.294918109459512 2.1578556637096837 0.8722925131025105
Ni 6.700663141839594 5.106729564686514 5.533244519319373 -0.0798191263111722 0.42795780720319193 -0.48504401069322267
Ni 7.267030468444439 2.4655164814128354 10.813290568661111 0.39165743011026094 -0.4463504507777668 -0.0949374700098494
Ni 4.679761121368547 8.744947299647537 12.662048470502706 1.3403888401978012 1.444732176902583 1.2130176751392787
Ni 6.846412729094519 2.786478452630747 5.702188143881642 -0.1290349259141907 2.148353380646203 -0.027521859569352602
Ni 2.4525636526451637 2.4836560288171667 12.295282279712328 1.4476889455380617 0.5062095890272443 0.760187273064123
Ni 1.5592933736910088 4.061694222284828 7.408809468936938 1.9334150698999735 -1.859298136179901 -0.68798041188257
Ni -0.36198733261383664 0.46100523678424576 9.835173208554982 -0.3513548738364723 1.8079619477997704 -0.7856316812791566
Ni 1.6955075931112134 5.637302014380555 3.9775753303561694 0.14755869574999103 0.061257561258900944 0.2129721881587945
Ni 4.443108935673642 7.078464844759783 8.508960913562184 -0.3226744751826443 0.549879519111369 0.6899635037508698
Ni 0.506455604815971 8.451297080245284 7.826412020684433 0.1350425655608513 -0.7404710255821183 0.1958761519084562
P 8.950283623986813 7.533750723219726 1.8222628021344367 -1.5866264752779449 -0.30834108927910764 3.4457739448125944
Ni 9.059074348999545 9.005382033633335 4.105523391546998 -0.8717060444714213 -1.3786933922049545 -0.7242039129909785
P 0.04929431319009683 6.4548387517333605 6.429383789318329 -1.490748238621381 -0.045678475873721334 -0.6693849082685698
Ni 4.658539340806705 6.022460104595108 6.408777524199723 0.221178892339303 0.21628839701622105 -0.3293799122272779
P 0.12956181045426285 2.803388831525134 8.822669859383158 -0.2869099159885252 -0.05204504152169746 0.8161563322305752
P 2.9651641688225916 5.01545449094049 5.678596489185096 -1.3035305337188712 -0.940614951627993 -0.35737511188862325
P -0.49781883365708113 0.13523460936530937 6.259527600256253 0.055561282205072046 0.6048869856955001 -0.6375235407835989
Ni 3.3636661868761637 7.758763055600765 4.5419061482252205 -0.7957772543535907 -0.5705761282287722 -1.061814440658165
