# total energy = -340893.01309151395 ev
CRYSTAL
PRIMVEC
9.05707888447030 0.00000000000000 0.00000000000000

0.00000000000000 9.05707888447030 0.00000000000000

0.00000000000000 0.00000000000000 13.25595045098874

PRIMCOORD
 96 1
Ni 6.377877333909323 2.0006453653919087 11.485008435593 0.8483223754401584 -0.08101366083990563 -0.20791020025485485
Ni 4.364017690164968 0.4827667681541529 6.0778670242055854 0.8619417659958057 -0.5044949203289828 0.046749340340396905
Ni 2.6945172494626557 1.7280182285262686 4.872608907850533 -0.4688995397228763 -0.1393000552856246 0.3680876132101209
Ni 3.427298345186663 4.39416870636462 4.911250029963538 -0.4452068240916269 -0.10333957803061558 -0.21665915009207848
Ni 4.910648639913776 4.5150807118513585 2.591472143842861 0.23094137104270546 -0.1773950623851332 -1.3918260729321708
Ni 7.232702570002903 6.17097741980153 2.652926236698937 -0.3150272430500317 -0.12602133589884748 -0.20410188225235817
Ni 4.872409652111154 4.16362981590324 11.586443192555452 0.3163888992842486 0.7163083122929857 -0.7486247650375042
Ni 5.749470017303606 7.656428956871184 12.333734634645774 -0.5962575921552763 0.736675563095428 0.6279891189306024
Ni 1.8064434761299888 6.444736691550005 0.39188260259181434 0.6153794005863917 -0.29469264525773764 -0.051792559191259184
Ni 2.6540411631315526 1.511237041161095 0.45166475865292016 0.470984190166047 -0.19272269388113905 0.15909549274499699
Ni 0.9188768992248316 9.013070715511445 4.550039225617478 -0.7427647067123014 0.4323909032738811 0.8243972320831287
Ni 8.683836834504074 2.3628922995827377 1.42245592935711 0.11204507622441348 0.5151488004984031 0.26248674994915444
Ni 6.847124600146619 0.8271458967701327 4.898339163759691 -1.1292917575745327 -0.23805664193124812 -0.7695095789063134
Ni 0.8595403514536095 7.439068116445998 2.680128267955781 -0.3689579316302162 0.04577643490416632 -0.8690696352898387
Ni 7.521034681963226 3.7158749982816777 3.974624878607484 0.18223490697593778 0.9357231707533303 -0.04654879429381661
Ni 7.722282978735908 3.8435979272235485 12.57717986277147 0.42094897998552666 0.03782555548820583 -0.17785477563037114
Ni 7.936301756986965 9.104719298546673 7.028105871100749 -0.19484308265825154 -0.2333828906046626 -0.12398425086416066
Ni 6.783770332103193 0.9068672123877218 0.5437589499780323 1.3152277675511412 -0.4620655475201784 -0.8251186836301854
Ni 1.949690238585288 6.544554759899768 9.106215528007827 0.3365273219053365 -0.14258592512574797 0.7095640515906168
Ni 0.025149697141241472 5.023825899880987 1.590833369087619 0.19490144670001272 -1.0562130353109875 -0.528718825873354
Ni 6.280667704329611 2.199837705217364 6.944686550101868 -0.3616665401751255 -0.7446776074642981 0.8322560660059151
Ni 3.2760994673143338 4.066809640723223 0.418115526388952 0.24560437237151897 0.25109984826845144 -0.18941934053951892
Ni 5.823022556371605 5.331657903063253 4.5304994832476595 0.5704275184660499 1.0357917913421582 1.6090431524102482
Ni 5.182967836091285 2.934403045516719 9.414561973280852 0.4762888902084119 0.5695183763882191 0.17986614963344505
P 0.31844508842791047 5.373501608332821 12.485303041343862 -0.37739294977144683 0.35037579775265465 -0.800248659861383
P 4.001000904253812 5.865554599649936 12.653003917268387 0.5299262159178938 0.6155364949895464 -0.937693921326456
P 2.435457617032906 8.275253883828588 1.3106372312492998 -0.4477637861855256 1.7964644886831318 0.45227838622642746
P 6.16711910412083 7.949144695097841 5.6833560572697825 1.5032638545898884 -0.24256892797930485 0.4579096163702759
P 4.88376722925575 1.0676484799083639 12.781732181986216 -0.7401339539576738 -0.8057053121005802 -0.39008957140250883
P 3.9802420790421564 6.344157828558976 8.192177826126184 0.8537396898009878 -1.166603092430481 0.09024726362303168
P 4.634244701078999 1.096386591774238 3.7389868526338166 1.6279045080911256 -0.7531272808935482 1.8150062562410612
P 0.050863650308087725 5.699891566514511 3.72809028081351 0.1641677650615818 -0.6403126734929618 -0.011070398881548678
Ni 1.4623469283807644 0.9614632849775389 2.4840723946097305 -0.3153391178634956 0.5693610248747485 0.2763056581101177
Ni 1.842273280901939 6.435398843036385 4.831900054587518 0.7041799044605679 0.09669353346900766 -0.5746775519916555
Ni 6.313735099987444 5.743202518592233 9.141409525829578 -1.4493241671486394 -0.37222168998315247 0.42681520895831654
Ni 8.76881035027011 2.548145794730733 10.295937130938766 -0.8059642221889217 0.07815459412455572 0.16160206121693457
Ni 2.391621354369549 5.278103394565644 6.942445828741762 -0.2804230227126009 -0.058927627574143666 0.8031851167818878
Ni 0.6040881536145238 -0.198958667185638 9.13475528984223 1.2059116602221167 1.7926248032220675 -0.4370607979457247
Ni 1.062485944842638 0.8877875696342865 11.174355152282711 1.5439857577892828 -0.4357410506930367 1.2646821933931058
Ni 4.191489391100034 6.897916699530111 1.2167624181804655 0.33850141491257185 0.8968799726338875 1.5399460405022705
Ni 5.6978265524882215 8.119517409345859 7.8519106114046595 -0.8178110942251787 0.12100845606528836 0.6109995263511413
Ni 5.211008552869333 2.8953942059937687 4.898988556328486 0.21979898127264083 -0.439634729320488 -0.22734902570575685
Ni 0.7948320500903138 7.631368019104756 6.965842981084376 0.08199016582056202 -0.9598766280710824 -0.5904990924049442
Ni 5.0503812556927565 4.533502810664843 7.334676223169583 0.0884390067696993 0.5062206447708378 -0.6119222952757267
Ni 8.243907333192665 7.221825018048627 8.98265613831107 -0.4992385570260499 -0.4619691311516302 0.026914565002656873
Ni 4.898186099123532 0.15751800193435944 10.554003201795338 -1.131464339745819 1.0386585713669918 -0.18662378007225278
Ni 8.251859448609695 7.376266330225397 4.893235499707873 -0.7756851115894061 -0.06577498951328026 -0.0063750502884083755
Ni 7.046824136399583 6.275695367924201 6.93023779187318 0.6472289409968208 -0.42166683198815763 -0.9811332234570136
Ni 2.281795213655528 5.085948405171889 2.649573306029934 0.4554454711004995 0.9082429630551907 -0.2364761848180056
Ni 2.3749110434989102 5.4227811755128466 11.29608501200881 0.1769237791756695 -1.4221378365418345 0.8099990543799277
Ni 0.9122924027462653 3.4396974864234684 3.792036881827635 0.40023643002852355 -0.24704470436247133 0.2606846637434091
Ni 3.50107731123123 2.56221143851507 2.8677257351651972 0.1290254128324939 1.710141499815171 -1.4854265692981514
Ni 1.2457378255177816 3.195663548158699 8.344727114486759 -0.4590743261023384 0.7473950063954613 -0.520766918016129
Ni 3.590896364295798 2.634169931668039 7.2354423364193625 -0.2302050070973132 0.3794729722289271 -1.1291457189149716
Ni 4.330841609558383 6.711331813759902 5.875448552818005 -0.40889333437257325 0.7234444091171348 0.4576720464381731
Ni 0.9298903073650467 7.246568958047862 11.318845451693317 -1.0286526091942154 0.9650437740943187 -0.06297891482538186
P 0.32902375677311724 5.693642181961264 8.002736337619607 -0.44014355063610644 -1.047258654331177 -0.9240331360099118
P 8.657725275566376 1.7815002803913764 8.178205470256191 -0.3806927035686411 -1.283241701562848 -0.21966168436382819
P 1.958475605276085 3.185293192631934 10.652985301747616 -0.9974345317201984 0.45643534581759454 -1.0607610596929862
P 3.941984977081409 6.236505386819998 3.598208144223097 -0.16242044335317188 -0.2685704942493891 0.1723317889296129
P 6.92782317459507 3.935083482835649 10.40906276555532 -0.19896301836389604 0.8485368054438095 -0.027950462466338956
P 6.457570572581818 7.8632111289511615 10.012007665110811 0.10517148903303178 -1.5878058402980268 1.2752332294360746
P 2.59096766453907 8.250618628778108 5.726875322165945 -0.9336606317973468 1.1923655461065659 0.8829052556213505
P 7.020812205331575 4.096770458262559 1.4821076634797132 -0.24658190579343986 0.06274622998928549 0.9806069186398982
Ni 5.461002049157343 3.0356068469630717 0.3543419155849245 -0.4829081952971425 0.2307040582209188 0.2860784212261654
Ni 1.3519230204486068 1.0282954713810324 6.864805829892776 0.3539540020222162 0.44859630938915 0.5590100206577275
Ni 6.983460811277095 0.78574508266673 9.383847606763505 0.3629906583031878 0.6430681247509119 -0.9455578974555652
Ni 2.8545105511048448 1.6210812960332415 9.220985022474258 -0.28385724520513045 -1.4254069942114096 0.6101605753896138
Ni 6.276148221877335 2.266008724849282 2.549834939975922 0.40931113863628216 -0.377699168157956 0.6867439683723076
Ni 4.301406102604683 6.874368293967151 10.467733618015435 -0.29789444002448695 -0.8441253066396753 -0.4875906883744764
Ni 8.226019602043877 7.045583316567996 0.26304021867779653 -0.04210052871447588 -0.40969963232395246 0.10917778197894747
Ni 7.625924714588087 3.779337951273855 8.155696817369627 1.031676997842836 0.6049636045697065 1.0871773449029856
Ni 3.1044406478394166 8.56879381624995 12.40719841433896 0.45116792677106815 -0.41930450240356815 -0.22286682156468712
Ni 0.19743254936357696 4.8811497334066365 10.099523502969738 -0.08143763575120168 0.46329350639000855 0.10758704045305988
Ni 8.473766942724342 2.309835930433576 5.843699867871697 0.9634823431444698 0.8234315257357496 0.5192245132296736
Ni 3.5402038927819945 2.0516820059100938 11.48131043021171 0.07980344258188836 0.45537193755008665 0.22123339972632222
Ni 1.1304230948917782 3.1493909312274826 12.685295121250551 -0.6235891900906938 0.208298436832209 -0.24599749404487956
Ni 3.037164664561852 8.371738947083287 8.019505519504154 0.882358639089261 0.7756565723443157 -0.5589079478622245
Ni 5.587855498509197 7.832498573849625 3.5664340994554133 -0.08563907542705895 0.1757315586397812 -0.3495283621506948
Ni 3.20375151976167 8.499344133997344 3.521894101748887 -0.31467680168914836 -0.554259907567252 -0.1527322695311305
Ni 3.217500165778813 4.292810934574202 9.238801202698449 0.6243468941923247 0.7928677940162796 -0.11760251570753294
Ni 7.423988079806641 6.218934653438405 11.215223410137229 0.3660461573000599 -0.9251783053579486 0.8971211421104163
Ni 0.37643665995832504 9.012056322656425 0.47040566664941136 0.7148396981672592 0.1929155266182355 0.12547523358739038
Ni 4.786467028885411 0.5841770710031347 1.6450100989168341 -1.4286519835112685 -1.5949509359832403 0.24603348948913759
Ni 6.1179935072848695 5.669188068492037 0.26894633993456823 -0.12802165415832792 -0.7301318484396393 0.16332958543100257
Ni 7.901495402149098 8.6851410538891 11.620763182247654 0.09447004345512763 0.05705303625925013 -0.5538937824770848
Ni 0.21035066123067314 4.821708123518287 5.8240813289140325 -1.360608766789102 0.565683061802529 0.5797058584441822
Ni 7.753086104628073 8.902800777923353 2.6423222085323546 1.184888006782598 0.5271106008459696 0.5646116831152211
P 8.50294885146429 1.7688294267826912 3.685591748727711 0.16509361930996083 -1.7296227484682343 -0.5807576967474644
P 1.7868167858011677 3.17854566873024 1.7163146709614774 -1.1292652752119712 -0.5852985220406113 -0.7395896514184295
P 4.853253929893592 1.1597046315014128 8.392341990535066 0.01798589505445935 -1.223216212938835 -1.188150993804586
P 8.473875627673095 1.4906140721353793 12.52224686684052 0.11733794919223664 1.4348316299594193 -0.46830458645135475
P 6.45114910352638 7.920116756701962 1.2832613040744525 -0.9018010640845888 -1.3567022326458442 -0.04590730405507577
P 1.7127661073847207 3.287538558170495 6.088750010407298 0.9153626048191074 -0.8789825235281765 -0.4732501033820882
P 6.992110321781952 4.197548576992966 6.147486979544571 -0.9553759119872514 -0.11856745072396355 -1.277525367904361
P 2.6044083698680827 8.422884272550224 10.193136566453662 -0.8431143488766576 0.8176578564767661 1.0337153684291036
