# total energy = -340878.77551668935 ev
CRYSTAL
PRIMVEC
9.21542139854790 0.00000000000000 0.00000000000000

0.00000000000000 9.21542139854790 0.00000000000000

0.00000000000000 0.00000000000000 13.48770072584216

PRIMCOORD
 96 1
Ni 0.5661798358839539 7.23602275086986 6.773577229584639 -0.008575400373836846 1.1150493887229054 1.067533345419813
Ni 1.2092936973170134 4.975065142424498 0.705602713649763 -0.4733642603624493 -0.4552392686269644 0.17946197221649093
Ni 8.503327527056072 1.885346240116582 8.87624246302947 1.3061684855623503 -0.9919395700438981 1.0883610807984418
Ni 7.521378280208182 3.749708965287149 10.164075512335465 0.03897381016003611 -1.233300850868347 0.3014860140304872
Ni 4.856167773151996 7.699595318214764 13.033786361297016 -0.16063146977354917 1.1336793451192668 -0.44796253245989304
Ni 6.965504050281245 4.974106738579796 5.58570201511239 -0.2047179185698023 0.7022490059864421 0.4763727081714699
Ni 1.6039072649513195 9.131681047738569 5.289593010328084 0.20697071915972098 -0.25404607538096896 -0.37363759649407263
Ni 3.911356675286293 0.001482761332812402 3.786025098664073 -0.5162368913562593 1.0104962500001629 -0.5289581955776697
Ni 2.5572241969387486 5.415377985692221 2.7602039942828087 -0.47333057891103647 1.1856675652611 0.7312621053893406
Ni 0.11693079830654718 7.183531709529279 12.536265102380032 1.473433144381701 0.2897792671165203 -0.5173249822141156
Ni 4.076303506212391 6.692377385384453 8.986787895720692 0.2965417826513344 0.8744288427192229 -1.9711169553261214
Ni 8.699321113297552 3.824842297458805 4.626389529842625 0.5785851145761778 -0.5205856552432583 -0.32422819282300935
Ni 7.141739772647338 5.383879674719239 3.255067525615062 0.8426934592891552 0.6557961138405415 -0.304486748530024
Ni 7.775382945318861 3.7497366115518997 7.414189104057732 -0.4443573316071379 -1.048878192212471 0.42578291103906024
Ni 1.131174568552248 7.1825456594198265 1.4985648592862366 -0.5835599420829499 0.6520862690891222 1.2048320540046928
Ni 6.911372663898772 8.026152997453673 11.268151212178775 -0.9090070949147248 0.17119433289106 -0.8255341739010492
Ni 1.7852206846100143 7.948522286032841 8.653911201901863 0.15704478086355536 0.3177261300384335 0.6478688885736648
Ni 6.903769941092245 1.098395313979136 10.84640467877567 0.6587629097783493 1.2161284528541185 -0.528071164987026
Ni 7.609459279704894 0.6323244458428992 1.4470681619345336 -0.06031936571534773 0.7477109949739832 -0.8926265966741724
Ni 3.0927046989010245 1.1171302660587359 11.90930311035667 -0.17424674656413863 -0.3964692496766075 0.1020879650117016
Ni 9.045074515695244 2.687004979101564 0.9689776194267169 -0.2920122702120971 -0.18032586287868302 -0.5613736357938977
Ni 0.4042298600568652 1.8063055691934498 6.116901953749052 -2.4878917214637215 1.3247125671131248 -0.2082436723348736
Ni 0.41716186116522835 4.475524784638532 10.66525160745253 0.6193021326795657 -0.6607501154117073 -0.11205201820294895
Ni 8.902742329335469 6.59824185390727 4.8574201489452165 -0.9915119955881764 -0.598706310806085 -1.8170677667557802
P 6.3463567357608355 2.5695083539097796 8.779401283775323 -1.1743246294444551 -0.9331530960333091 -0.5075452771195323
P 4.6351911789971885 4.798184340547548 2.7118239525107026 0.5666724222989917 0.4973261704946854 -0.20889287588309832
P 9.035527338934562 5.1759981946348255 6.616081067008937 1.2570599009611578 -0.21549803990444177 -2.0347797835924055
P 8.994601651681485 4.055789977767144 12.643910441898873 -0.13897352518414127 0.12539527227907438 0.7420530253572576
P 4.994039695465274 0.06319475351001272 11.089290937745652 -0.918051207394864 -0.7139297847584801 -0.47818585012080866
P 2.3552313712462998 7.758242261173235 3.778188304149321 -0.3101765998259497 -0.6521217503127479 -1.3130608418068097
P 5.86668482690926 1.2068976877052593 5.214925056946402 -0.38956275236476134 0.9009888525959385 0.44472294247667277
P 6.463042403853256 7.060026629464942 4.957120873516778 0.8034712805637388 0.113827622046133 -0.7037795836983557
Ni 4.568001540230655 1.4563038574456872 7.261306181526815 0.6199461940214678 -2.1124450967853687 0.6848701483883625
Ni 2.0577483471038684 5.557968203856337 9.445059752570671 0.6196975683457714 0.23363691559699762 -0.6432270189262793
Ni 6.814325059201149 3.120378609916784 12.364472134759426 1.2391012596002078 0.9749396930517918 0.3464906037656355
Ni 4.866083566776024 6.297634801847975 11.080577756638291 1.5695497223013162 -0.024377143292783822 0.8935879321461773
Ni 4.803031652300557 2.459955422123118 10.666829287627655 1.6233834802923204 -0.5623959064108249 -1.7605865438396
Ni 7.885866634685472 7.741212162086615 2.741645056755457 1.2065089274864833 -0.6411444253656376 -0.09097745692083688
Ni 8.511473959736035 5.817566629868303 8.522095654653373 -0.521374983913773 0.18945816419725436 1.4744870395675123
Ni 3.3651678534437934 0.7281427133012599 9.52131920925985 0.549991104988569 -0.3655041687536609 -0.25704655277018956
Ni 0.9300572079102477 3.5995252397380892 8.178820279119531 0.5470767595552514 0.23779541785006145 -0.20779450061259697
Ni 3.9014685279270163 2.2616671959073047 4.228623366484546 0.13640447890538443 0.18465174394754652 0.05450481591609968
Ni 8.076745661948017 5.807872006362282 0.8040381608378857 1.125709439539913 -1.1564837446082923 0.8510641998513536
Ni 3.1864255364069423 3.467025908208091 1.4937498015087691 0.9567805056442619 1.062602483777099 0.1960252758918108
Ni 4.002368178846612 4.664321126623167 4.8957387934322725 0.8951593903983551 -0.8193267595387567 -0.5380912682271894
Ni 6.298114003770326 0.007669995384088018 3.461807214965259 -0.11221631169495513 0.04465877635995535 0.882310559460145
Ni 7.248048876036549 1.391722182987332 6.998538572032225 -1.2915083124470144 -0.3691631056624868 -0.8542194576508836
Ni 6.053380052772819 4.23256019458509 0.9919857624946643 -0.36117597369195215 -0.13628955059407497 0.3711968482630639
Ni 1.2037460135236442 0.2469613183942804 0.09878286858182708 -0.012278303146720789 -0.1692302671861537 -0.2931201585642952
Ni 5.806664786134822 6.653064396908519 1.726479744351389 -0.4386219717852575 0.14390490104748765 -0.06674069586065925
Ni 6.004317148261363 3.4297771741668996 3.850671281073514 0.14710823847613375 -1.100752512484259 0.3755386701715274
Ni 8.677360763663668 1.5418321851637224 3.460175163802791 0.2885245687738128 0.13098922142708408 0.30792379923603097
Ni 4.3825227500161406 3.5452556220318603 12.62850778626393 -0.5327243474883213 0.5388026924719173 1.8308709911874597
Ni 5.122521103184792 6.017799310038271 6.580176862976804 -0.5601299931947837 0.5725985579754396 0.8846165818855023
Ni 5.887364232943015 4.875031741133768 8.973475297700924 -1.0443502224351304 0.38337616393807517 -0.1610677859800194
Ni 2.3154391808480153 5.547563992888374 11.97350418790362 0.36853395671892014 -0.30217044169202156 -0.18744730441481264
P 2.5283799273818635 7.340534847050254 13.28976865587955 -0.31585128161322373 0.4700434235193324 -0.7820838160268982
P 3.113347243248444 5.002020250556732 6.933083275607738 0.5452690169225511 -0.2293801972031727 1.7598031287063565
P 6.429479838445532 5.885981919705464 12.93867030896333 -1.3808263793875575 0.24376783338341246 -0.4504554740850758
P 4.023932265352398 4.434893990876134 10.744922613211985 -1.6099080715137049 0.6584651760322724 -1.8207709266389804
P 3.662577154213555 1.748488014177508 0.3896243383889076 -1.3568546990633084 -0.2960437599689934 -0.405069846861425
P 3.4868298491913965 8.684263114429836 7.45788955474965 0.103980296938408 -0.44057009665056385 0.8246754254451798
P 0.2877045402999994 5.306811104015011 3.0440389790598252 -0.6148574666446507 0.3777860714448074 -0.723209153177877
P 8.366460085695415 0.3183412093549083 12.436631650386031 -0.19685934175733194 -0.5299814946358614 0.22801288454200083
Ni 3.506246742468188 3.501537662038933 8.626382894547126 0.036051494306918556 0.22287864863922904 1.1418297421405432
Ni 3.818502087409241 5.72308091237094 0.5327158754871754 0.11206101706401346 -0.9153893442919848 0.11435572663546113
Ni 5.577882729898646 1.2038473831610648 12.975572543152975 -0.30809709158910165 -1.0968578054155433 0.5954824045521486
Ni 1.9123935024646517 1.0585846927376843 7.611406498285524 0.49518881243670854 -0.3068382794813361 1.0169116666082036
Ni 8.090356839627097 9.003006116165793 5.253594808995796 0.07010498434720185 -0.1257505987359641 -0.010872423938129662
Ni 5.971003399236397 8.981644768934848 8.595468841302548 -0.8338030987780607 0.32215999744007096 1.0697614634193835
Ni 5.0031813936762735 1.7656747754310516 2.133376547414568 0.5093028832405874 0.02398016496468128 -0.6851995067033232
Ni 2.2208244474484817 1.3494602596046246 2.1207256166645068 0.44347955698787495 -1.6221408661344712 0.07086037445598764
Ni 7.778755789618484 5.917341999354692 11.08276273309578 -1.5174704851075735 -0.9829648773491138 0.30768828618645716
Ni 2.727147355520028 6.796096955308651 5.678146516728969 1.477983482756545 2.9832430276202233 1.3902386738403927
Ni 0.8715945733834491 0.15910793981068516 10.996805888274105 1.995941727679285 -1.677894723966323 -0.05178793120556888
Ni 5.399490598881974 3.4733476874144884 6.776046041026904 0.6613399264769062 1.0507000759125582 -0.3363360318301369
Ni 1.2304523052731182 3.266516765390613 2.823231948662157 -0.5227093864544804 1.480399034176573 1.0558240274026849
Ni 1.6689312796456905 5.01854350145625 5.232607607881147 -2.559495144733321 -2.57154976190501 -0.47382577337990006
Ni 0.035058228330753394 2.1021574637155713 11.434616744581861 -0.9538486767094476 2.255783840916741 0.19551414058334715
Ni 7.322002634245495 7.894916178680636 0.11300226408542893 -0.23254188276060597 0.7177381027609768 0.4244459373951916
Ni 3.0374490310853433 2.862761499545307 6.3924688622812 -1.5004770358733706 0.9226095161895078 -0.6815827358863423
Ni 1.8291690301425336 3.0653625430622777 12.968275772343027 0.3400463908021885 -0.648838965796418 -0.4578476527840889
Ni 3.6060128965329925 7.909338313459079 1.7687766863361147 -0.5783681134693652 0.15165549152718397 -0.3258284474305937
Ni 4.7896600755826535 8.43719766177166 5.753151754540612 0.9167620562697953 0.2532675453437315 0.9751314973476238
Ni 2.945239522719148 7.848304576310436 10.91658103567747 0.0833551644888887 0.04401960011405968 1.1955598846741475
Ni 4.399903035122941 6.808546989868188 3.888072991112994 1.1700198314215142 -0.26046740552628045 -0.10677431474377741
Ni 8.669887056759313 8.517473199187004 9.452072688395843 -2.079359627085309 -0.007964249152399188 -1.0739945276641245
Ni 7.178647536089934 7.57655100922961 7.0569403847765715 0.6427199973828738 -0.22015790727395634 -0.4594525353773636
P 1.6272314969795867 2.0899378146956256 9.682982585475687 -0.3800314158355584 0.11849494561481529 0.46519920805315373
P 0.3490055246745681 9.152397315458657 2.194422264611269 0.15430809865868264 0.3064009348336013 -0.045857938874379084
P 9.07806572496478 0.12155693994154922 7.487737383716997 -0.006005582764131593 -0.6231850126737396 -1.1985073973382454
P 5.583955692722284 8.914768454502159 1.4241392714922059 -0.36260602127025937 -0.9658367023092591 -0.7056600885505202
P 7.161073727129876 2.6791718707554457 2.112646456562104 0.3967407581704393 0.27195432311995743 0.3716066821069729
P 1.789109592518323 2.2981786962218025 4.682673638707045 0.011172985897683983 -0.19412265955245922 -1.1434065997093599
P 6.585801034769316 6.95054742105095 9.05945978878735 -0.9007237718600101 -0.17306943842658581 0.7886105614018224
P 0.3073767007546584 6.754434034328882 10.217270611885038 2.9309424184442943 -0.10377435157518904 1.10094637366262
