# total energy = -340873.760597557 ev
CRYSTAL
PRIMVEC
9.19602015051118 0.00000000000000 0.00000000000000

0.00000000000000 9.19602015051118 0.00000000000000

0.00000000000000 0.00000000000000 13.45930503823312

PRIMCOORD
 96 1
Ni 1.0460473159135442 3.813497682955495 10.889264276864541 -0.12183763683480306 0.11526975380929826 0.01534537210781873
Ni 4.784514668754414 2.007849889312064 7.9211512279621665 -0.761003084097199 1.4177019122576682 -0.5891677751880305
Ni 3.740076656403814 3.6694880041229143 10.596295621041799 -1.2098942990189485 -0.9437658385521488 0.5666544245768628
Ni 7.304950732915014 1.9934029413270076 1.7933177695451727 1.2198341838404798 0.37072222261949056 -1.2866509843547131
Ni -0.11201396519514818 4.050203247013646 5.357234540336931 0.4860110025921824 0.7108732573203436 -0.01626428437766231
Ni 7.811145673613573 3.6117921723862847 7.321795083407839 1.328015920454745 -0.4224674735125821 0.8232767453254402
Ni 5.519111167126333 1.1674163926205943 5.700971665759355 -1.4033019347822542 -0.6266382613296627 -0.5925521182792312
Ni 7.044960845306155 5.110844647238001 8.972565341357619 -1.1117128681505049 0.5154187663303382 -1.0326414186386346
Ni 0.5196027383829712 1.9284698415673107 12.766002825500511 0.8111866469301254 1.0045731996475087 1.1318728880381475
Ni 2.1638695707343865 8.135241019149758 10.190713419496458 -0.28127045831456077 1.0684355455191084 0.22286527890279037
Ni 7.743306631420217 5.7631459594111485 11.120899155296364 0.918232984388367 -0.3352577111642936 0.7418738194669159
Ni 8.77672781137992 6.588047377715119 1.9285296156996485 -0.23226651761203226 0.5007596216562665 -0.4442855978289381
Ni 0.15330961422232497 2.099184763524401 9.21958424224915 0.37590222415853325 0.8512362066528437 -0.11149177482410476
Ni 6.911296689378213 5.5699559636950005 13.385480782203851 -0.8931259049080941 0.786804104320703 0.38746036130977785
Ni 1.1556914666620028 7.709879097412783 8.007304144701823 -0.09487036421733984 1.1014986466216643 0.0755400393198441
Ni 6.17136649919768 8.834625955564464 3.4733755131364608 0.5498702631399885 -0.34876782983558646 0.837278458921171
Ni 0.34987179060436663 1.3589878887534377 6.135316260183665 -1.504463017104312 -0.41568181804931637 -0.07307280872627415
Ni 5.944886909779494 2.046096137987971 3.4817880325614956 -1.2563613322322362 0.9790092351354752 0.4153419182113943
Ni 6.767939927991169 8.003563203619507 11.873193394850485 0.9249741597669424 0.8845453623279347 -0.4545211595140172
Ni 8.795901513829852 2.4969402321416188 3.5917099031248165 0.1811450163458687 -1.1811197979894175 0.4867710206866584
Ni 4.493883641307103 8.560897213538242 10.70606943567733 0.45004641157211517 1.6104181783809042 -1.2679199836041133
Ni 5.196597537092013 7.866983909237547 0.5019712085473578 0.2591936810201794 0.4255499690926478 -0.23524642617596261
Ni 5.189461425292902 2.729001805918131 13.184668205211569 0.22317715371625435 1.1345211242942719 0.8722742582700656
Ni 6.798406343442787 0.2629942274603664 9.64450751381497 0.10762123612510496 -2.0695333850235067 0.24161247760330645
P 1.9825424412822261 5.964483629165971 10.281859775291421 0.45515647910517093 -0.8232050115472402 0.16936473588148898
P 0.5448071909847808 0.20524689800972293 11.600467938645506 0.40073059605612277 -2.510834189192508 -0.18336182149152938
P 0.6046410974550356 1.9460986125968163 1.7081065252903465 -1.4697857774371008 -0.5678579579666607 -0.3765267451164096
P 4.576555864340622 3.7446378825022153 6.114078051162985 0.584675800854948 0.16752716845211793 0.7970730903468789
P 8.057231178438595 3.6302026051463634 10.198479458690208 1.4227034792373177 1.5112399308168294 1.9160012452989001
P 9.093999709809223 0.3747451864732277 8.08079230220213 -0.5459423888404921 -1.4046034272024972 -0.5343845087995636
P 2.752966634975456 2.7909921791627306 12.816259996368194 1.005603697794552 -1.0391815337499972 -1.1157235319717946
P 5.780710358298136 1.3025335197653651 11.376020669726808 0.967205557632328 -0.3925094936979111 -0.1429096270137539
Ni 2.2919057622022043 1.3413407256832126 10.891471321750863 0.3352199159478227 0.488769539173926 0.02030760120910051
Ni 6.279456522505354 6.247187687063239 2.046393169445589 0.5018397420943229 0.782445313131375 1.430442499752788
Ni 6.659399299685873 2.4049892245651834 9.239140499146044 -0.8028745275200043 2.4389242904260837 1.6507734422694988
Ni 5.703739667887619 6.6715380465606495 4.3199390769996935 0.4851036602865646 -0.2970997120373335 0.9710210747236762
Ni 5.121843087588178 4.628108754476985 3.4499698021170047 0.612286620593681 -1.2849666546737548 0.020704579537203054
Ni 7.763436719987555 3.5430059400958824 12.641733323972018 0.5550800894757021 -0.25222342034993334 -0.811737634337589
Ni 8.451860000133523 4.053191953630542 1.6374994809687273 -0.5341150571882608 -0.5081456297076926 -2.6838123534568683
Ni 0.8049901950211932 7.993300444898105 4.797380820839642 1.059493505834472 -0.3485228037043159 1.051479377280744
Ni 2.331264729341633 4.593761618433582 5.9276397735949145 -0.3672905712301223 -0.6469224654999955 1.2446730972610305
Ni 3.404578245621627 5.17258672793289 8.564680456314216 -1.4502065697535929 -1.5046321956923248 0.41023082223707413
Ni 1.9344748428621812 0.6657495723471418 4.407128385233887 2.170096685860566 0.3290096733720527 -1.0068406555254465
Ni 6.650607904222019 3.297646920879273 5.29163380949912 -0.40493923482083166 -0.3190764734187408 0.030329761331792927
Ni 6.9476669499007455 0.9613979485026942 13.272800105532628 0.1644737263377748 -0.959032277792916 -0.6385512107171648
Ni 7.649985416810189 4.7435739861131205 3.4603603855214065 -1.4781431482628609 1.1789382169570666 2.6835267038956494
Ni 5.348938810370464 8.874720604332666 7.793839682898692 -0.4725186245327024 -0.18252132786810502 0.16555410388614714
Ni 7.010163104265128 5.458684117342878 6.099811345176978 -0.24121061417919748 0.4159592400804191 0.2627508022438184
Ni 2.4189028033693782 2.820299896049029 8.904918495989781 -0.5360451843314381 -0.22638511913059076 0.15013108446285758
Ni 3.2353806670238834 7.390344977974998 12.285613757135286 -1.035001948451011 0.4660633558256619 1.0045580301388572
Ni 4.871840078089932 6.363866793386852 10.086335829607988 0.36206968915081517 -1.2616786306800916 -0.847276193563831
Ni 8.657786484047826 -0.12023704660077361 2.7443389286740048 0.20074273597213815 0.7857124139184211 1.3624237085106536
Ni 3.6617265629393447 3.3637571112450093 2.031641833186627 0.5333822927872943 1.1185291197413898 -0.8315359000104389
Ni 2.567869137175827 2.2324534905768765 6.761120159292432 0.07721434169847348 1.2627620935522574 -1.338149152234005
Ni 1.1553052338068963 4.5143263945666705 2.9089053914186134 0.5350100581987044 -0.1445582183607704 2.0359604341640676
Ni 3.6177695856200764 2.766429608782027 4.456335370576496 0.7285778736889581 -0.41329866252912045 -0.7742769183879697
P 6.105927618318201 3.941543070443673 1.5432982072102783 -0.1473640632406817 -0.022435189075064588 -0.27272616828897545
P 3.397635250250069 0.5751807266307662 8.828510602025277 -0.35816958276546057 -0.06167819373608732 1.5909608409872407
P 1.5551665910864807 2.6918590796853854 4.7762906677467525 -1.1894915669928803 1.046054606720747 0.03593065245833812
P 5.177699715252872 6.691649743087268 12.185395527255498 0.5963164704176698 -1.5297035368386558 0.3864524888705538
P 9.031650691770597 5.421706919476607 13.373085466361042 0.6867755929411914 0.011395129210819085 -0.735201806763379
P 6.127446305959851 7.5046974911476125 6.402120398879047 -1.7993919467425723 -0.7145748745416468 -1.7175246796531196
P 3.046356468530671 8.644525822689168 0.7673701953317803 -0.4145392198044409 -0.8542947909735094 0.14732961045832046
P 2.8828420305152096 5.528417539730328 2.2428854560728966 0.5221416868764684 0.3600572867064767 0.18893751580709398
Ni 7.77964930388167 7.572177888546941 7.607805110624411 1.0184931521627105 0.7162522622440696 2.0967454266619243
Ni 0.23646738713083484 5.6537960813142 8.952187879842606 0.31727181610983424 -0.9971385977463344 0.12987027733129247
Ni 0.20162366598800918 6.2622599644327535 6.498906673960602 0.7429696236342559 -1.9883739426343563 -1.070466459906208
Ni 3.519482520015822 7.39286468755355 8.40014066202865 -0.13725345716924103 1.4918692395997017 -0.424788665446591
Ni 1.326158096069382 3.7233307033288376 0.6546812422422316 0.8719937509151692 0.6574128235083582 -0.38805042948529295
Ni 3.392117638034261 5.8715394513906904 4.468072251361554 -0.5584207238131608 -0.18604091098558928 -1.9094914692048401
Ni 3.912456058046007 7.473578158250457 2.835687596916881 0.9110968875642179 0.2610111938448924 -2.1069326516075715
Ni 0.8278836877066154 7.000332558500631 11.902723655429488 -0.7412652393486395 -0.3349862026704618 0.6657406266477631
Ni 4.098353609616928 0.7893486839914143 12.63209681423711 -1.218832996269475 -0.6285591325014594 0.8312998727402329
Ni 1.6285692255974424 7.955302488771909 2.6032581823259813 0.11377902819638469 0.23865030965118902 -0.8751474660528026
Ni 3.9937120939441346 8.096295872926515 5.0486124186579415 0.03962738458363498 1.6003042298753536 1.0016316005206813
Ni 2.8240886564372176 9.239977336998777 6.877839728105627 -0.2611546614012921 -1.24313634890153 -0.7017491835318882
Ni 4.406355919523674 6.080114389168581 6.656690152087911 0.7997871468439323 -0.7311078391996635 -1.0806462286526872
Ni 8.124306950942099 1.5923920815024635 11.196055470889917 -1.465288918008012 -0.26672829883432775 -0.6059259684829758
Ni 7.102445168574512 1.3818767834286803 7.391917497456503 1.997526298557586 -1.7084232315724837 -1.853069638771686
Ni 2.676722430173353 1.3514195639974216 1.8078401248971787 -0.24033181111866997 -1.1562353760429118 0.24014592036010898
Ni 7.85456008573162 7.49732228281915 5.050052515446269 -1.2231501355875902 1.1385366732115683 -0.6871939114255327
Ni 2.8601186642064413 4.88937688891584 12.431242855153206 -0.01840241376658766 0.8512277220124115 -0.5337813279979259
Ni 1.6773081335037439 6.52059456837687 0.5543434640977686 0.5266148921564737 -0.16437962396207173 1.1519619454785388
Ni 5.267489658044782 0.7584758044398983 1.5273752979574933 -1.4896195243335764 0.3656098410935897 -0.13242466832203
Ni 0.46517517228217214 9.037701673167266 0.5492286375737148 0.3507681480950669 -0.25363752708864057 -0.39319494980070996
Ni 5.418938917348344 4.618857557995148 11.726487442848446 1.1269708227508397 0.02583238768207164 0.3537994787222229
Ni 8.82094227726926 7.869816283508328 10.112164691992218 0.2684288264652022 1.0788009479138323 -0.8090495459824647
Ni 4.459104292306796 5.6498877726613355 0.7787419941085599 -0.7781765105526921 -1.5403689869723018 -0.7745857078776403
P 9.30094695198345 6.102856147518069 4.030887006248139 -0.16862991459799345 -0.3270103835538368 0.6072012356509736
P 0.862353130820802 3.8411041360752534 7.447437550776032 -0.23483504967015686 0.24281703943436894 0.6675283146758052
P 7.105948852331549 8.22499417786023 1.58899231277549 -0.09338966590675529 0.42448938903861727 -1.077914431543821
P 2.379084035211966 6.971420270489798 6.171401444075047 -0.4311421184684446 0.4276294773294958 0.8708043585927584
P 6.820909005262924 7.24194879743085 9.649783270695318 -0.3089252439173518 0.062595306233718 0.0833533647166758
P 7.569547826724072 0.8778346310963225 4.826560713042941 0.22409400910356891 0.4342629234856134 0.093726994641516
P 4.182745488457707 0.6300294704640388 3.5451541304519036 -0.7412986636897362 0.4945928307239224 0.39481834433674584
P 5.149734617339086 4.064300746225035 9.121950094090433 0.12072100673185661 -0.21331902997525196 -0.19494618389501908
