# total energy = -381168.2539874936 ev
CRYSTAL
PRIMVEC
9.30039746375457 0.00000000000000 0.00000000000000
0.00000000000000 9.30039746375457 0.00000000000000
0.00000000000000 0.00000000000000 13.61207178678358
PRIMCOORD
 96 1
Ni 0.9460178216106394 6.550502390982063 0.7993059128792102 -0.5743024280404238 -0.11943854047500721 -0.428307734343443
Ni 1.4369578985818816 8.056980760046452 12.34819062559261 -0.3176448831785368 -1.2854505362887088 -1.2128726649209822
Ni 7.359246347131594 6.748963570865166 8.856082064183104 -1.6073513665301222 -0.17399040757895845 0.9614342023661894
Ni 2.36718364542606 2.354544405374458 13.364577113927627 0.09695038667482013 -0.6550409808420719 -0.5521102082141007
Ni 5.159358249938219 6.073987230361105 9.545546563739695 0.7521669738628077 -1.372151991542011 -0.06436036855394077
Ni 1.3881401126872095 1.9600866509163282 1.7829633727627257 0.37376538032118856 -0.23009444966137793 0.47372498613597763
Ni 4.741509996046845 1.5629131804206209 8.786075182917156 -0.486462231196988 -0.2889045778210508 -1.0464091618466882
Ni 3.0288604176639033 7.172624573124644 7.18084426433701 0.8518771826709524 -0.6695998524928533 -0.4090763969176568
Ni 7.47445966998608 5.328913794736421 13.051853111803192 -0.34378297502648536 2.927498425759752 2.3315491088735136
Ni 7.9149171899300255 2.486293834786522 5.1400813162701136 0.25833236146114863 0.26145676602274326 -1.02412232542403
Ni 6.1417406253397075 1.0981909236888683 12.738625958180013 0.18556937066580945 1.6543290208312411 -0.5115094039736029
Ni 2.764329214729601 5.0431311837683355 13.409183679884578 -0.32534687980848487 -0.5847585903767414 0.08492996517517631
Ni 0.028231356274200196 7.9627770348936355 8.978631540498005 -1.6643961752592562 1.6817086983957747 0.6023801601132465
Ni 2.94620778606818 5.5858558734013295 9.24677594781792 -0.7256095350892535 -0.39097403088999116 -1.1016613974517737
Ni 6.445017283796434 -0.024487016285403295 1.0761964139037072 1.837717581795648 -1.4948185520360127 0.5198690887922078
Ni 0.776001907141683 8.782774471883812 2.5942026255317154 1.5267760787792157 -0.9385120463523774 0.6455569526110366
Ni 5.070251142554555 8.486612617429643 3.108357424425551 -0.04919780188088946 -0.842751051999968 -0.931485478522899
Ni 2.22615241941981 4.931731023843326 3.9748614985592425 0.37275982187480966 -0.012493761591636546 -0.7572657285419538
Ni 4.485628162684278 2.9590609352597284 12.835611432191868 0.8181602500344813 -0.1360995460704559 -0.04744919462089893
Ni 4.081916512824129 4.4813964818722996 11.020714214954394 0.09591988852777673 0.492426676310539 0.4496471192511675
Ni 2.7087221387409848 6.913757312200219 2.8451003759335363 0.24582163058864762 1.4880228692704178 -0.9556451064882382
Ni 8.953594870726914 0.937321950051958 7.891530410655737 -1.1418112301977819 0.49149747962805035 0.11205304664421346
Ni 5.657301526143351 3.427949770021737 4.764252257782078 0.330417866573489 -0.8702369161250625 0.43182140392365626
Ni 6.81060660475922 2.731219800024889 1.1428644525070177 -0.012456480595797903 -1.260875418052506 -0.805263082356839
P 6.3381836189894045 5.070995174345671 11.369074549754124 -1.7404789744564475 0.09113043755893337 -2.0898512706452523
Ni 2.1351573313661865 0.2194847281808557 10.55403794473122 0.11610664788829682 0.32779148469423547 0.9911240161211382
P 3.6856265800803736 0.5624889641242812 12.629524856489553 -0.41062497235169926 0.9613904936124473 -0.374282172056607
Ni 3.634660402388851 3.4186586730301625 1.7675414538123455 -2.4381475601610596 -0.013706036732182847 0.13948774581639847
P 8.94626615758441 0.627242050905204 10.124794843958888 0.5193888067216796 0.14801146701669346 0.07724390938482825
P -0.05285229828200457 1.297907657219481 3.389582840673044 -0.6378521277676111 -0.0036296263327872977 0.19012356569539515
P 3.829587431264147 6.811080925026056 0.9178794693103288 0.4438551951597388 -0.9859080191378375 0.42706512018559356
Ni 5.135781742557195 8.236924848728126 12.971732978416483 -1.411499382991382 0.5536958075336658 1.333396210930052
Ni 6.156072537716101 7.416164779152054 11.152683133744839 -0.0566858827278185 -0.8985679018592718 -0.036298063100085876
Ni 8.206865964366996 9.237647607780652 12.267076279725021 -0.4636226075946532 -0.054620258448041414 -0.849125330957428
Ni 4.610783610347567 8.19019965224597 8.900565864894519 -0.23671735429453425 0.43816997184950346 -0.6215991562438585
Ni 0.23113068579131646 6.282269629886953 3.1710541933437737 0.008597254750707774 -0.40706630846616343 -0.5533991022288534
Ni 5.734141409370971 2.8578261096808553 10.518387661459844 -2.369863688182996 2.373941714907112 2.7375826051997882
Ni 4.53265097188288 1.1446836102362992 1.2506011859005155 -1.0064089673046666 0.6526017752729599 -0.39216830830840843
Ni 8.162772780345916 7.1533727505294875 4.893921188298231 0.16778067922382073 -0.5093512199800195 -0.27429736943083727
Ni 7.765376100312874 8.861446533397057 2.9949688395387795 0.2532976272507186 -0.022624422267735228 0.30455693964632713
Ni 4.958776579450432 0.25727317281195533 10.807072926453024 -0.5909379797145758 0.5347526907722597 0.5833995052456855
Ni 0.5851819337533534 5.7034965999743354 9.79072735986652 -0.4417674593927747 0.2199866718034147 -0.8354905137828128
Ni 0.7254607576108361 1.9099296077976453 11.782922702728506 -1.4384933950817225 -0.6191488949311531 -0.3784183057121676
Ni 8.491969646325686 3.3124388344508042 7.199030261391389 -0.8999634966552178 -0.5332933326179139 -0.0828460860629541
Ni 1.7150769821014606 1.852174140012179 8.645489445945836 0.5675028886200872 0.13953582544551454 -0.22106730646210315
Ni 4.617954216734458 1.0080142706054733 4.756833330784901 -2.400258755535085 0.49615888965946164 1.7356072481864433
Ni 8.274377549013485 4.459280136881343 1.8190489146319058 0.3679444027640373 0.548733578432384 0.5073393317563134
Ni -0.006253587204339388 4.052862071381006 13.309312292562925 3.434259773525408 0.011640926673038017 0.9381441214899972
Ni 6.65315087696406 5.193872024648664 6.283195949466894 4.100437744820906 -3.2717048614769006 -0.8205922565147417
Ni 5.960671188573967 3.812828115169234 8.17158490687196 -0.08436586514159018 1.4202316206580572 1.3987582812756296
Ni 2.634542169166608 8.635493378832178 0.6812596889800457 0.8920244443137992 0.22544666647672143 -0.38858444761189204
Ni 9.033327177542501 3.1214179724788726 9.625123553918886 0.2813679031243735 -0.14027064672901005 -0.04824803637311045
Ni 7.795128071560169 3.5374805500715656 11.745217031634168 -0.503663682676939 -2.0943221619324124 -1.8590081157433078
Ni 7.082540924015137 1.7746181261856084 9.536713046299655 2.6662979987221886 -1.2285705352722132 -2.16876948240871
Ni 2.0676736479118634 0.3120022912870528 4.7688392137743145 0.36793129013791476 0.8044035625700211 -0.8627259524599981
Ni 3.9375278433604635 8.007028325670325 5.226177885018969 0.7692954060129783 -0.7437142151097643 -0.6820877005472188
P 1.1827408363519398 5.703301291629167 11.898420617743094 -0.1362008475350106 1.7339260038292785 0.7607907109760769
Ni 6.888832247197795 8.830504111283975 9.480521905355012 0.7336696863895686 0.8109879006557581 -0.3660122187383309
P 5.5808243584139 9.23488538975613 6.988056326861175 -0.3005347058608115 0.11556568778316226 1.2181285140032827
Ni 4.289761793672697 3.221825062690128 6.572084893162893 -1.5297328474146943 -0.43545771512466297 0.7613941488880307
P 1.3736035915682587 4.474709496149634 1.7979500331153024 -0.07162527764647018 -0.09473666685295298 0.06468381333163054
P 8.268276488326324 5.192039846363038 8.103715256925996 1.205876436108807 -2.421612024399881 -0.5827708705227512
P 8.375789082142749 2.076890341724327 13.38828940711053 0.16476426099500013 -1.550812293792813 -0.21239137595465998
Ni 3.1891899682522538 2.8121332573088753 4.315312775419398 -0.20511978199391123 0.08692025613232773 0.0218165816544592
Ni 3.167120125248242 2.3828269138342977 10.540507726609755 1.7060889270123518 -2.0345396425571414 0.3901775031306248
Ni 7.030756311353387 6.650109647017867 2.1168132275561935 0.1396540961909337 0.038539550836094914 -0.2052737910732723
Ni 6.41579543520031 2.015424015380664 7.005928900523546 0.4408457189094536 -1.8898261295654293 -1.2359074352532586
Ni 1.6157115363977694 7.19168108737463 4.947457065788324 -0.5550307242950054 -0.07039526189411102 0.5942068802738347
Ni 8.863371715656575 0.3591785570425727 5.262848421883915 0.5778886027297854 -0.7337046533925623 0.16266984035981663
Ni 0.3968470265473546 6.523289428221955 7.1279882458960495 0.5075887287629581 0.48834119338725573 0.5578681937438005
Ni 1.1502545482722886 4.248040210985804 7.8933542185837124 1.3351108796283138 -0.052482386169432196 0.3202918338830807
Ni 2.5227327917564826 5.282709420508048 6.286381335572614 -1.1743207727897131 -1.6039726798658762 0.23738224157204277
Ni 5.397913442965145 4.54701078545144 0.8353942448676072 0.8233631343916594 0.5184549820535006 0.6256059634104064
Ni 7.540008870783498 4.7959824235540065 4.235273555489973 0.5376940327887707 0.3739985793779172 -1.726726914977678
Ni 8.436669483450906 7.15039662336502 11.04457624453526 0.7986052107206891 -0.2519398276712435 1.124206115521509
Ni 4.915632035963029 5.953249471457574 12.843983649921412 0.46396430720478804 -0.2171628292013744 -0.7895598126889691
Ni 4.548461647444119 5.404107507626195 5.511528027508468 -0.5372590021338812 0.27691346689744567 -1.5396094830984581
Ni 3.3991557397055048 6.7643371277491235 11.29016532810746 -0.9092801460704534 1.3961342133892212 -0.5598165757194229
Ni 1.0870211464247224 8.80541163912855 6.829544073922628 0.184230854360044 -0.2666866469631149 -0.07502633290821917
Ni 5.550002841466873 6.5686660670827095 7.156519074966174 -2.357746336094172 4.315033327515737 2.7911988478633476
Ni 1.6916771822708274 3.88692438116711 10.947753527477712 -0.9709740235358246 1.1473750974388046 0.3757068203182755
Ni 6.154937889234647 1.2860682513433297 3.266910599112609 1.189696483914835 2.112065344848446 -1.7773853605644938
Ni 1.1839591884098941 2.5422543258759185 5.786192013398048 -0.11379754013914595 -0.22291747229696446 0.46072677410409685
Ni 2.1401237435718934 8.00877680037945 8.917350292062382 1.2599899301237591 -0.05101891425002826 0.9811249959268974
Ni 4.812937047994088 5.587325336188786 3.079717780705975 0.2807518668069294 0.4846223497747718 -0.16836560519301327
Ni 7.675134344447756 8.136620062888149 6.899563975744922 -0.1593736861070481 0.6355394204740346 1.481741150026764
Ni 0.41083389418061755 9.29198052932698 0.3665853935231436 -1.211874562673771 0.9991877669658792 0.5276065666457816
Ni 3.4001415818287346 0.13709064763254591 7.068109497386683 0.038334119693508174 1.4446167343706409 0.09297031898114956
P 5.987047115569069 6.974609812316211 4.612573006805204 -0.2876714767448981 -0.6423392170046873 -0.6793651594097333
Ni 6.517839395352023 9.154557857507648 5.070033513255653 0.7808005784391004 -0.9180000424419544 0.2714789261454357
P 5.496367449724718 3.4734008120616044 2.726334301276466 0.6583214513655565 -0.4723566450335413 -0.06721686416612939
Ni 0.30098411050034724 4.964152209141254 5.527236398698428 -0.6691231699667508 -0.9092433792952471 -0.8831351122439695
P 3.3622331620713175 3.454595408541119 8.626051615402902 -0.10637065154745551 0.1952266912499154 -0.284018196263027
P 3.061988433163393 0.21552647905211267 2.5825501576430825 -0.4895321283715634 0.4091753843893663 2.105392046593329
P 8.06147285198532 7.476747567743765 0.2598596133258262 0.1532025242993297 0.535527107044439 0.2297902881573978
Ni 0.47605758106942203 3.3502170486447764 3.5621842656161324 -0.5174807910656894 0.6291795396942778 0.4052246272717344
