# total energy = -340891.2912990911 ev
CRYSTAL
PRIMVEC
9.07092703326587 0.00000000000000 0.00000000000000
0.00000000000000 9.07092703326587 0.00000000000000
0.00000000000000 0.00000000000000 13.27621861653945
PRIMCOORD
 96 1
Ni 6.352769369652436 2.243086066327067 11.568299373885695 0.09548177254909362 -0.3422405702400299 -1.6178684640113619
Ni 4.533368166360858 0.9276565018423027 6.1412598411593 -0.7365197542438541 -1.400860415220297 -1.5306970111001765
Ni 2.581422576268847 1.7116930148938014 4.448728252673741 0.4445895022226021 -0.8131908218443479 0.484690741118862
Ni 3.4150317059275426 4.115316349055116 4.779491445578861 -0.4697968547261651 0.5162258356126658 -0.5481779630392302
Ni 5.065387111764095 4.506019321151214 2.9433380541170773 -0.012618202984642784 -1.5794374137286733 -1.637845421353921
Ni 6.92573447998978 6.123528899954893 2.5020628492472476 0.9755626713477715 -0.19510250696722528 0.7236778652841795
Ni 5.133709334689146 4.685306195303317 11.414560765913677 -0.3994666417420346 -0.26471589638998927 -0.2740834536478183
Ni 5.6240927246986 7.802784279535366 12.353043419251076 0.12293164122993021 0.5348074552695951 1.2461746215072216
Ni 1.674837838082266 6.485794515589223 0.5237544237214778 1.2986788620535246 0.10519077230674143 -0.5103974018563467
Ni 2.574002557900195 1.3167085652060113 0.23837761456642345 -0.5659669115915349 1.1654103576739605 0.5245803782249482
Ni 0.37380292781414604 9.215245551219983 4.4851716093948895 1.0986537209737013 0.6393603368820214 1.2260742512129208
Ni 8.786780309602243 2.2186036340813535 1.167328537706045 -0.3908521606001462 0.7548023546031258 1.0662066561885897
Ni 6.871862243936688 0.8611430217811994 4.985406026236074 -0.25558822305710815 -0.6125900107667127 -0.2310411298453634
Ni 0.4687973047871024 7.316174395199948 2.5062318473428866 0.206406876236451 1.7698273457115778 -0.68030644027708
Ni 7.73093346596801 4.109647019616965 3.9437143643430166 -0.34974099238213313 -0.4828284910991426 -0.3793037936409145
Ni 7.663554619461467 3.859552488514125 12.825636907029963 0.5686557712776077 0.4479635609011575 -0.17090174135130565
Ni 8.130471521060523 8.59504812346751 7.107158464566888 -0.6334545129205478 0.18657107245744642 -1.1020609468830376
Ni 6.764916013415399 0.9907720126113558 0.23698885562725386 0.21229701646864083 -1.5707162318055916 1.0473617555679444
Ni 2.188497227032994 6.425282360898169 9.168994708117186 -2.001580671132617 -0.6067955155721227 0.28146946169924425
Ni 0.12054173606033221 4.982288348591446 1.629602938814788 -1.4037655046822342 -1.2335960135112627 -0.5651503292275105
Ni 6.459869805934444 1.7474324676719084 7.218572126685441 0.1627603431910939 1.2545229934719169 -0.26849130427202145
Ni 3.648281525403747 4.45612015116838 0.5845895034173288 -1.3262320890814447 0.13156720541774117 -0.5934669167840165
Ni 5.975836064895721 5.588108356888764 4.782346066337559 0.28149697250307004 2.1530569567694595 0.3535894195939459
Ni 5.426029031447339 2.9297733897301788 9.248691873626944 -0.5846570318018705 -0.29268461368877335 -0.027140564970533906
P 9.357931234519377 5.5148424786936445 12.451804952249095 -0.6663610338405814 -0.16965527053871426 0.16515943955088977
P 4.09759175749968 6.173745552386263 12.616270838610806 -0.005913537270957558 0.6372785146523282 0.35694162389563044
P 2.2544882216930775 8.441613391553378 1.4039336931169246 0.850157114656052 -0.7021849855177261 0.42737313834431556
P 6.450309048769945 7.865927003085723 5.915338423688029 -1.326530337048154 0.34378811723280794 -1.0906683887753796
P 4.5966741665990325 1.0412698637828588 12.780206075737103 0.4883072548255268 0.08039968140499057 -1.4548121868464041
P 3.977665030296798 6.138051454243661 7.925025907334435 1.0425676766134109 0.9179817876095094 0.44985332172470266
P 4.532923690932907 1.145930220674686 3.6434195084775878 0.5800861246017364 -0.29384803786925523 0.6787246976122568
P 0.26333082792868096 5.714230527301658 3.7318519767856504 -0.3754934187558888 -1.7379595504687035 0.8162532628197556
Ni 1.3070117441349969 0.9252799189418297 2.4531134053318926 -0.07398683590011129 1.2135637774507357 0.3041956996521664
Ni 1.946167409528646 6.376671262563684 4.882833796762907 0.5972554372921713 0.5400969858033084 -0.6838321940421513
Ni 5.943461926072101 5.510343298851528 8.902076328520044 -0.37054481650136184 -0.5453330373912673 0.4628232516218094
Ni 8.992672212941704 2.1666725764278856 10.298469359937872 -0.9297468985652375 1.2354106981224982 -1.7764083413632052
Ni 2.451372694421203 5.0558717092351015 6.893795745667009 -0.36054142543174683 0.34614607594202323 0.7280248293989655
Ni 0.5947389637506851 -0.4331685173196281 9.061086052230475 0.8744740941348618 0.44657876473848895 0.8630702231732943
Ni 1.2767874150343235 0.8826220700637576 11.454853824096508 1.2778904645532636 -1.2511929006574192 0.7120089135866834
Ni 4.233918720901245 6.643220455427814 1.6991034751702647 0.13631860405979748 1.125561858218455 -0.2650218576661823
Ni 5.4824501980158225 7.853409123686284 7.989535619598917 1.1374290419696864 0.1263648352811953 -0.06344814115231653
Ni 5.419661240622407 2.9836365548561683 5.0427723834084865 0.4383016123313612 -0.9487164976892049 -0.6120091985625783
Ni 1.061615953270497 7.36231820136295 6.943077185514262 0.17896137843098858 -0.16659591488710018 -0.24575118236202836
Ni 4.938475770693412 4.671101123463085 6.680433933859841 0.1410949424025183 0.1110405462192991 0.904972519834035
Ni 7.842433301894023 7.055185680648756 9.007649220678235 0.23966306718641953 0.9036196053505664 1.2729395483058914
Ni 4.539699673477386 0.5222985399217606 10.5023384465338 1.453609939008187 -1.048102490388711 1.1822099457298025
Ni 8.17735007231871 7.348113129522718 4.61579568092803 -0.8017938928613159 -0.6344981236937137 0.2770937012290518
Ni 7.433180283876293 6.256980379465428 6.940767727474337 -0.4837206638961088 -1.9923838351246976 -0.9378111636306108
Ni 2.386624416773962 5.155769829398881 2.5019567194001655 -0.3355415609532995 0.16809538225076212 1.2110975752984303
Ni 2.47797772360856 5.240746274481447 11.472631027029133 -0.14206476251495534 1.4807337918081724 0.8047347206571948
Ni 1.0123154644763315 3.4580460422406856 3.8722880701639886 -0.6571446574486359 0.04345164342573162 -0.9043366860222489
Ni 3.5681036007576328 2.4429820868527385 2.137391623745721 0.10287472257905508 0.7147283694003754 0.7479148834546732
Ni 1.3471143128487053 3.2554831691473076 8.313581790985715 -0.8822555378524936 1.1519444619770418 0.4739057346882161
Ni 3.5979106672116585 2.808576732733151 7.304376747412331 0.28425782307765884 -0.00369647501498073 0.06705796999076193
Ni 4.142501917576941 7.368141736561819 5.786519466647995 0.259898677507004 -0.21605339818727953 -0.13951345684801134
Ni 0.7985164339828925 7.403055734973732 11.468130940094303 0.3374768303027994 -0.4395593959978623 -0.5557850859625266
P 0.2201368872589373 5.694791530524124 8.260211177201313 1.1048256541123682 -0.7821997727794722 -1.337805652851657
P 8.614840886401986 1.273476526642443 8.120213209601955 0.6758340063280232 1.9948965742442226 1.2060276169746906
P 1.963275178041212 3.4445303608601323 10.457133481325755 -1.1935706221582605 -2.0922069153616225 -0.4071002470278924
P 3.941227116131911 6.096905728913334 3.8167404338753355 -0.25142740681119924 1.04566919835687 1.0047187240864375
P 6.932147625450217 4.02614913565187 10.386729480631015 0.8013331511748135 0.041257463987890236 -0.30836011544250125
P 6.48777197769725 7.955574975625324 10.35422925592069 -2.0617074612211845 -1.180803038079947 -0.29245475706615437
P 2.380238484094828 8.93746655060476 5.6806281849485565 -0.32564692754740693 -1.3986785770776298 0.7110918010890527
P 6.92740353057637 3.9364285956954594 1.6903808716699023 -0.1448569805481118 0.5976722131146158 -0.25122608943367053
Ni 5.294183106033688 2.952595842316401 0.35114828737929266 0.7418295964925418 0.07266811708868776 0.4519402861607184
Ni 1.7192400262418686 1.2054355024575243 7.389888377193858 -0.6843752110298149 -1.1552750690121716 -1.8088865164965686
Ni 6.841547205565005 0.6138985759735069 9.203261042334084 0.11345224098458526 0.28593958165545597 1.0315772390401783
Ni 2.7402091551725944 1.4249700801569523 9.548960423803779 -1.081369222861641 0.7990060457035336 -0.6997581212437884
Ni 6.262268729965336 2.0239778222013878 2.643959361888854 0.24769236524879923 0.6811127382284592 -0.01464397516541994
Ni 4.401159403863165 7.06567167237756 10.273177800994745 0.1504614712190828 -0.9026850093514388 0.306662158914788
Ni 8.2120735812615 7.0283085236483664 0.254507537137497 -1.204712754818009 -0.11234538107365168 0.33565931747808647
Ni 7.990452690328833 3.6980537024071665 8.486252330910318 -0.7889126660232736 0.02446713190342883 -1.1880018698212313
Ni 2.9594716050589915 8.272114047743301 12.564533898797299 1.3360243925815185 -0.7902509252187229 -0.7235925046592248
Ni 9.243909680859275 4.880449050028043 10.328765349362644 0.37240552385918446 -0.46422064618996833 -0.23512095634169186
Ni 8.573187189153998 2.342331079739572 6.251838070891848 0.8766819004194579 0.9422293473029644 -1.292974869690212
Ni 3.6630308528700417 2.7780984176736485 11.627272192247702 0.05934208940374296 -0.42717156385647076 0.17513326293415
Ni 1.1596636043056643 3.469248637210473 12.567573566468859 -0.2327686540594314 -0.7607531728699222 0.46045346583805213
Ni 3.1549500840864546 8.246905941329503 8.093488444176863 -0.04547998670967006 1.6348315742282618 -0.6925549186271298
Ni 5.733088984744724 8.145066642766102 3.590327372155187 -0.7866863477959161 -0.1299337835793762 0.5650086614433237
Ni 2.9922992902376637 8.327428561205457 3.604838134238724 0.49900175842489547 -0.013773142524692408 -0.46859563532921233
Ni 3.3878642792599205 4.4386404746446715 9.331296271272588 2.260112293088766 -0.5471883454324512 -0.829050928805056
Ni 7.316981707711941 5.978911109182974 11.28081629545778 -0.2422272283691699 0.7701616106680155 0.7286974299859579
Ni 0.4293451215465387 -0.14225027879854688 0.3382167737040466 -0.3735015851368406 0.867724434115854 -0.2016451931817495
Ni 4.580174150202236 0.18588960198895174 1.493017453990842 -0.27592333507003447 -0.47372087237091964 0.33385106062475406
Ni 6.074999439964317 5.545964829577322 0.3281389736947885 -0.47138193982509785 0.2722489715422408 -0.23340885874659156
Ni 7.9690180895890705 -0.28954308597256323 11.498825143218813 0.6371756705258769 1.09209689369179 0.7088294874174372
Ni 0.29096359315658643 4.956408993572172 5.935066783040086 -1.217881173879167 -0.6927264112079877 0.15393503158998006
Ni 7.786284263138571 9.206991007558033 2.5376426537083763 0.6763695671165191 -0.9015349549073957 -0.5371502444701588
P 8.320135535816219 1.9069175079624356 3.696564256177175 0.5849192843243216 -0.05596391696012942 -0.01024018967076946
P 1.6037852660998009 3.281625581052512 1.6126094639836952 1.196862405535655 -0.7341651379687485 -0.48004707169926364
P 4.64042324800736 0.9877060392512035 8.292139933504272 0.10399238112326607 0.3185977340101094 0.5755075040921186
P 8.540359503975326 1.7874533980417076 12.372639343067457 -0.6484376165929413 -0.9469848597100787 -0.011532940340264008
P 6.344932088637136 7.864883846469103 1.4251360781229014 0.2552295541661088 0.13199657964567588 -0.932542973253136
P 1.7680234721912746 3.165018813168612 5.901491653468287 -0.07789619825684649 -0.0982019996937341 1.570081169324754
P 6.974100663292537 4.111089297026031 6.081982239646698 1.029469448668556 -0.47565717016168396 1.1910314006761746
P 2.551207318095275 8.216572761103619 10.302597538861555 -0.9605122047725522 1.8623124975261929 0.4526393691102721
