# total energy = -340892.2905726726 ev
CRYSTAL
PRIMVEC
9.06951786569957 0.00000000000000 0.00000000000000

0.00000000000000 9.06951786569957 0.00000000000000

0.00000000000000 0.00000000000000 13.27415615736524

PRIMCOORD
 96 1
Ni 6.48354440173616 1.9661263688967703 11.663005498118862 -0.9538939281250861 -1.1982721413989879 -0.5293541454645077
Ni 4.686501055088923 0.2470690858346333 6.073948648143451 -0.37649666320942254 0.04940991789169555 -0.660789710400391
Ni 2.583860302729193 1.8610560040005182 4.567742973774766 0.21395974888304442 -1.885791040264107 1.7577043371957988
Ni 3.464655603313086 4.261077178853403 4.806572402595308 0.41493568391191116 -0.5428025576599297 -0.004840358811436824
Ni 4.9820675740016505 4.559935932764607 2.7737016375531347 0.8432737572726574 -0.01872894386807097 -0.4588550110026807
Ni 7.0973603038348605 5.993663461770157 2.500585803255355 -0.37933824642327574 0.4382897852568194 0.6127599606856737
Ni 5.1373377204862285 4.801901600875708 11.422597066231557 -0.7968221506783374 -0.6721017929791006 -0.3699650327384919
Ni 5.732515763296037 8.00161844723158 12.411867428732165 -1.0017475572732555 -0.2111158516763461 -0.5830104973373831
Ni 1.7743332738202886 6.356852306161215 0.3250814510216511 0.4399674300695584 0.5974446704848421 0.5729330584967229
Ni 2.8334625049138933 1.53785466403998 0.46232139591678134 -0.873954731296282 -0.2846766557826323 -0.4519508276836797
Ni 0.4741661862969717 -0.001198990266662452 5.079368989862933 0.9588492152478326 -0.3871474580550494 -0.6986047243656356
Ni 8.693894748701664 2.2784170788210383 1.4773999785597085 -0.20643644392280577 1.3077525422200187 -0.8714286224403186
Ni 6.819751430368362 0.6658404706889354 4.705130751811701 -0.10607780289738504 -0.6290777240090908 0.6991724239436474
Ni 0.6836530038487315 7.29975566533894 2.4678112864124047 0.20953256634962625 0.7932920260378918 -0.5448249874065971
Ni 7.568494550297148 3.9502920089008904 3.773218741379576 1.0141898968016665 -0.7315860643876626 0.09260419389098244
Ni 7.469174259750851 3.7163256555794733 12.731349359401039 1.4494781762280005 0.7950195502519598 0.4356022111223272
Ni 8.20006856844823 8.723543002723748 7.026488370092195 -1.5061810282366834 0.04877716940370309 -0.3094122108560994
Ni 6.682856127153514 0.6835396348749548 0.4848573340000103 0.19676961025700307 0.5707116253653719 -0.48078137876212684
Ni 1.8903596163423215 6.3253357314512915 9.209105038264756 0.17269302892377356 0.12795351992455384 -1.1447217189763577
Ni 8.925838599530904 5.1003340874455105 1.3267135664228704 0.64944651747343 -1.3410295591055936 -0.32697670210242397
Ni 6.3804330527067705 1.7083797396359515 7.159960837250778 1.0683879801106246 0.6881459909261567 -0.9023780196339813
Ni 3.444630107785169 4.502843317570657 0.6026295587182043 1.0145845611369235 -0.27260044134438854 -0.8006330397839954
Ni 6.048760783025637 5.344249701905571 4.85811537978494 -0.40719100696948585 1.2042365865125388 0.7725311393414566
Ni 5.429548517775166 2.784768263297322 9.448411523726948 -0.8501195765498972 0.8163859317428779 -0.43689419046087336
P 0.06021343630407478 5.84141346474699 12.433344954076215 0.0948222845882238 -0.4510072328234878 -0.1870644671540972
P 3.952006147784394 6.18049553055417 12.574714250472189 0.5784671009410748 1.4381830629301553 0.49054642856869074
P 2.2928920293928483 8.423695671361212 1.4218210659036254 0.7049666620279214 0.2875462640209435 0.015015242461909623
P 6.465187697502237 7.6349469079661025 5.860526566773954 -0.8037111644886867 0.9661138672300458 -0.8909949746080204
P 4.6299616804870025 1.0426771256191287 12.565488736862134 0.5228582533275188 -0.46171742015214035 1.1886677855400045
P 3.87736401544981 6.081764758671511 8.05212931328395 0.5717498368218992 0.09510279194312009 2.1656301654487797
P 4.664688864534283 1.2127215167662868 3.9403799327856452 0.22140257831433482 -0.9919030603790079 -0.5770650783872255
P 0.11530259499344239 5.5673598422981305 3.526863426603841 0.031313465401300915 -0.47888030508467205 0.616051744063068
Ni 1.423215957756974 1.0833992609997218 2.5682308025284413 0.056330042050296535 -0.4611373792789542 -0.06529625010464883
Ni 1.6940861794221844 6.638034569681154 4.809783918884454 0.6381529468374816 -0.20195989620869087 -1.0639332867733806
Ni 6.191986609736177 5.5478966568801455 9.028297850223131 -0.472645894139186 -0.022988490475373314 0.7179520185439958
Ni 8.741428092026762 2.2053893206730346 10.405544956493127 0.3484302439905096 1.3963141906105114 -0.7111933596639236
Ni 2.4470194166217567 5.158642018038347 6.731310933497468 -0.8884033026214443 0.46781607685071047 1.3348031185799076
Ni 0.5234036920358809 -0.04354547630352822 9.06012913720426 0.38818669795284116 0.7474104330144289 0.13317620177607387
Ni 1.6154988068001712 1.168834119637848 11.465765250590358 -0.028868089184601896 0.5663412642118181 0.5075205945291841
Ni 4.020027532050418 6.863865565444355 1.750343492017347 0.2589946776354959 0.49640854377642246 -0.7092097535749915
Ni 5.5593877360621535 7.97780189322057 8.016289299390078 0.4135508877492426 -0.555557800443069 -0.401294953200025
Ni 5.293269941777662 2.7379876899581017 5.242946814745868 -0.0452573291759027 0.5482728367458816 -0.9190634507094624
Ni 0.8907717702762435 7.206022197820359 6.910247079995882 0.20687404568085663 -0.19189274178067597 0.9654142700598599
Ni 5.111217508928075 4.581131396101901 7.027762637357445 0.6181651908616451 -0.3473272407343179 0.06431151759387634
Ni 8.306254484046445 7.122364964691051 9.127017738684307 -0.06368262576062582 -0.6480313822934581 0.34368861554046615
Ni 4.703080133814028 0.411155710671878 10.504185033196762 0.0989926139158295 -0.4033994011375375 -0.33502811165199076
Ni 8.06864218452837 7.301261205310695 4.340967841197954 -0.2875583482058015 0.043261124681480335 0.7873507208527923
Ni 7.559842230218509 6.227339590518706 6.970803344076657 -0.4003361888311815 -1.2558908203537211 -0.11674710968577312
Ni 2.516854704468208 5.08819000297455 2.7545069098650528 -0.9975319765300109 1.5725591985516014 -0.8603919050101827
Ni 2.3482705057032938 5.325602773098779 11.374876890837678 0.1321611302479982 0.13646284294714564 0.532192129133935
Ni 1.0888046936693951 3.5418644092139746 3.5908316433193996 -1.1899397102738927 -0.9533542535715324 0.0902565195944123
Ni 3.479574960262101 2.712348162848761 2.6349461762165576 0.5553500553076371 -0.04033495217362086 -0.03658319844067248
Ni 1.338071323691716 3.431152804182594 8.297966758587473 -0.5793358766992732 0.590478523579654 0.871653593966931
Ni 3.668864868397593 2.6515098367612295 6.973565012277857 0.226833519521919 -0.17565082600051687 0.8041117423612151
Ni 4.155934257813934 6.846180005535189 6.044904424013648 0.57027608048985 0.6299015054619668 -0.5467923955456131
Ni 0.9363460977344797 7.535925911510575 11.120822462314818 -0.6471209546640468 -0.13867193478332246 0.6618562039916923
P 0.19335395910743935 5.270704981237146 8.03951905559282 0.6446244134944382 1.7536453366350766 -0.12272852408018864
P 8.503162787219733 1.5749943398492294 7.886295899298754 0.9751191560524497 0.39602419171938896 0.8078275006499056
P 1.7874931442962887 3.3328936472308466 10.579489240338203 0.08737585561250757 -0.5724841438847623 -0.4141820935753383
P 3.8649841235133935 6.2022714430372 3.9822067354467183 0.35602194029483847 0.2341305674039645 -0.8840679084708839
P 6.927170800401268 3.8279079343294597 10.61385636452477 0.6694730971070019 1.1083472941123818 -1.5497388582229763
P 6.374519727034578 7.58628894442114 9.947931547319344 0.2571568530958087 0.7258874713409885 2.1894159550144683
P 2.5247814631146754 8.596479056914815 5.7662534629401945 -1.1505776635365024 0.4098580122786877 0.6954137282321636
P 6.880852772475056 3.9191744929786596 1.4814486113512224 -0.7691118292472625 0.6305481379070302 0.9013104976014155
Ni 5.0625051282757 2.6160480217638753 0.8721039815782758 0.3319996092383121 1.1821551812324673 -2.057061734919057
Ni 1.5753389815295105 1.4005421630016328 7.206034895145421 -0.3385682635947653 -1.8850675318345211 -0.9397839710862653
Ni 6.960827781336096 0.9922687451190537 9.38716506933382 -0.13192690275000507 -1.6229479354167984 -0.875180376173267
Ni 2.925509042102677 1.7037542855058618 9.284980625034029 -0.10156088886363798 0.05882221234453095 -0.12564158396192557
Ni 6.3791451811646676 2.152804255876447 2.6793623262386905 0.46869436569060563 -0.9018044065186985 0.9536211340796736
Ni 4.178644330640884 7.118809713673413 10.277980373295994 -0.44902774049961386 -0.8408294094972228 -0.23470006675418936
Ni 8.005717869323346 7.300000542322297 0.36595232649583925 -0.016926343441693432 0.3095081130040153 -0.1484236148534476
Ni 7.773148221758859 3.653673425911514 8.332347487050892 -0.4794107236668453 -0.14944742813227166 -0.13243161030056547
Ni 2.9150065403720027 8.234360415636209 12.518883205218426 1.1268882903393622 0.44662941547076634 -0.3029394586475621
Ni 0.05257146051973452 5.052546797619153 10.374668689747093 -0.08073341059532546 -1.3428249604431197 -0.4858641926016729
Ni 9.004779683351101 2.260504780964318 5.547495784188871 -1.3336957444483417 0.29976260358147727 0.6332827632293738
Ni 3.7847823767048 2.729525829755408 11.4704505635386 -0.21705998507492294 0.2766710118693364 0.14186164536521373
Ni 0.9886862855477098 3.674279370585168 12.683787900570442 -0.11116858715673113 -0.5225042124222098 0.12208831939302847
Ni 3.0492263358057214 8.285929694427757 7.963180016458746 0.04023056538527264 0.25120037840205767 0.009264456021061466
Ni 5.485416748052327 7.65934391112285 3.6665213049716803 0.5813940447798827 0.42556950947667355 0.6783179490921414
Ni 3.095163443980043 8.470458105664628 3.64041106988322 0.03651197888310486 -0.01467379996209086 0.12261205310698238
Ni 3.465916266301483 4.311331377549141 9.460278987901896 0.5726584646790976 0.2504547584852848 -0.9535172615119579
Ni 7.149310502378298 6.065693572948925 11.47350336326446 0.5926503344199923 0.6344032499870623 -0.7085960312503925
Ni 0.5038316724030701 8.997587555654706 13.439950793094967 0.8656045595593738 0.009502797284112666 0.327496579161636
Ni 4.537851656672904 0.5217530397776919 1.8849696018530817 0.018333508201865197 -1.4652565221081797 -0.06816328723979873
Ni 6.0794066840169565 5.8045912220643165 0.31635204004084466 -1.4284879471295784 -0.5840283970789362 0.49467536313539967
Ni 7.93764206794991 -0.16166143575021338 11.215733153257096 -0.024218506227732483 -0.847595781686779 0.5541519212344779
Ni 9.265419488822701 4.760680642010497 5.664294849636167 -0.8643105233382985 0.21649588504133685 0.3750625018660573
Ni 8.024899899686366 9.064765474755832 2.292128375985488 -0.0914633954183199 -1.7323046661757715 -0.2785546020452945
P 8.533854035800562 1.4458806829944133 3.605579586380064 0.46054396866932945 1.6508732010721567 0.46239259184229403
P 1.8528843683706933 3.36585227528721 1.4514756685882415 -1.792477479010926 -0.869642219963857 -0.22642471411927456
P 4.774520726329158 0.9279567936750034 8.300980559386353 -0.699055438749809 0.9690276984427313 -0.1458100884900005
P 8.61598758992231 1.5638660413833076 12.464964014338433 -0.671156912567328 0.5251866443503794 0.9880906286114531
P 6.260098689181223 7.884349580756956 1.580447840963784 -1.0080387895986058 -0.5436561639094767 -0.3655090538496673
P 1.8143207782508086 3.2585145309154244 5.999334631314363 0.2199995273192211 -0.16595236776583033 -0.25138909737409604
P 7.062696606412895 3.6069382001618044 6.0312983332568635 0.5148922044029068 1.1896558604848866 0.1402423645942359
P 2.4135256870091664 8.789369563657456 10.077898645808752 0.9175087046278328 -1.3582965737161574 0.4361531985297908
