# total energy = -340867.0505143819 ev
CRYSTAL
PRIMVEC
9.23707220668366 0.00000000000000 0.00000000000000
0.00000000000000 9.23707220668366 0.00000000000000
0.00000000000000 0.00000000000000 13.51938887205025
PRIMCOORD
 96 1
Ni 6.590734248221045 5.26209223698416 8.847290979905983 -0.13641090666328767 0.30330095575203897 -0.7708244410629951
Ni 6.7692960936250435 0.30459430782504304 13.06258275689048 0.6513277936565428 -0.09157009619951326 0.05748678136255906
Ni 4.771788437178449 6.975855505291496 4.860098543577517 -0.11430173346907412 -0.034675954115630604 0.12424856026914086
Ni 7.516002547443695 7.522874929264634 11.778632472756083 1.319685803322495 -0.47200748922423874 1.7696085448325523
Ni 7.39264144634337 7.457328663940193 5.791665602428794 -0.6565769578706241 -0.3360735221973696 0.6061396271556787
Ni 8.333021595914214 6.206545935456932 10.088573379487581 1.3671005451610325 0.18012017462578012 -0.3552750348264849
Ni 9.053790350602226 1.8929901829198115 7.203035757249701 1.2299584167586755 0.1803140358041411 -0.3314943874671194
Ni 5.300148975024845 6.124114301895022 6.851774836255886 0.455298403999674 -0.4267483602761231 1.5033314746030302
Ni 3.402808131032906 0.351031841599784 4.838008085076473 1.3372531227822968 -1.032348312878248 -0.432286516485533
Ni 6.200384808206171 0.8954861305841125 10.489802243304476 -0.3449823946512252 1.463681721421892 -2.040855300362524
Ni 7.199614345654975 2.531872291313971 12.009070640128597 -0.7707316242388725 -0.5925809146346375 2.2537171881956994
Ni 7.764378185593201 4.08684104902485 10.545191423883885 0.12430049655299884 -0.22920664773978588 -0.43970800576058466
Ni 8.010185917632194 0.5142758499424063 5.312389943289775 0.19468958779952278 1.1481124898254613 0.0809216153467316
Ni 1.1539320249986558 3.271817208179764 9.779426118706168 -1.185675792791216 0.31932252799127586 0.7020808558396942
Ni 2.0961688261098343 0.28952310059514474 2.4172263679664097 -0.6241370921743638 0.3103686612320977 1.695269467799345
Ni 0.962198114437858 0.7320028820678851 9.238663887536125 -1.9445201786741995 0.9842185472505566 -3.211568044086005
Ni 7.16234275876319 6.2411110601531075 1.120278599342436 -0.9969959015208829 1.5377816858611 0.8539962858964841
Ni 0.24640814174109169 8.64686960280944 6.676293554477269 0.9728624988077891 -0.3981579502329401 1.8935328889930552
Ni 2.298285205980761 5.5651051580246 10.012242832206224 0.9635049688522892 -1.0100167392605832 -1.1300489474555313
Ni 8.12067977696294 8.653196997362322 9.671338516719986 1.3030793051140657 1.0190845058898061 2.5626768848954122
Ni 3.7091648722604162 3.6349357589364013 1.7144883784860234 -0.06813654776692137 -0.9590399911024 -2.333597249651794
Ni 6.650405735537264 2.2851593261856604 6.378826571669748 0.887513186707007 -0.1959481427969722 -0.9771282160626784
Ni 3.1875381601498605 1.714299018503054 10.910322732703401 0.5958343885749287 0.6446735215648187 -0.2225318068227716
Ni 0.6249544507199501 6.765601264689054 2.592558932880353 -0.861846120958206 0.3716190234021471 -4.722828800838441
P 2.4641830252066566 9.080152955060505 10.174733095445903 1.797070497698247 -2.048815949970497 1.3956426184647837
P 4.716458373862017 1.7109459612436442 8.855632056228977 0.526663486006222 0.2560438225372881 0.6882555199208276
P 2.1318793477761657 2.3269108931623337 12.979343803206058 1.8981451909540858 -1.4183254047742797 -1.471073385900273
P 3.7299667591700327 9.121701306445699 1.1678458270643555 1.7237212953821346 0.09619602500729883 -1.564378719623338
P 7.716456254293426 7.341809837256504 3.3301363881054113 -1.9867672602688689 0.15658455339768515 -0.8062354735724373
P 6.7309068209801195 1.7480882291226714 1.0760672000016283 -1.4115639176807304 -0.6571240886233457 -0.8373774463928805
P 8.119645224860863 7.2885304039995455 8.148920278227935 0.2477155051772508 -1.0395175769331775 -1.8836750223623688
P 5.436848408584089 3.8880407781239725 11.721539976037183 0.7728463565890302 -0.4596811064484018 1.4027062101797845
Ni 6.502797319544512 5.441439233537055 4.156009170413793 0.4816372990045189 0.6301771277208567 -0.7700230282076224
Ni 3.2183622705483463 4.942203184778591 7.346274114318414 -0.9210614549760977 -0.8096128746851023 0.3215395902472527
Ni 2.944797136127737 7.03056668476115 6.426698622778887 -0.861556100521613 1.5885851416662125 -0.5597011331874813
Ni 6.349230991892479 8.600250098709603 1.838731619994816 -0.10741297676904082 0.009218947495106704 0.06042323828306368
Ni 4.5221750313353875 1.2324656140330972 2.791226189939534 0.13589617181039823 0.10057127125685905 -0.8558991593461518
Ni 8.267955658351452 5.054322768841171 13.009897267384982 0.5807756944695933 -0.5052528815409298 -1.9786538871331152
Ni 7.44215215408562 1.1131872989070395 3.097603252726191 1.9407391143652126 1.2390359535799111 -2.0854305158697373
Ni 5.758889698644871 5.945801857444203 11.09114488970899 1.2105941532994506 -0.15085330734086277 -0.9520046815221732
Ni 2.846653242515535 4.020435735972791 11.708629320027605 -0.08390846588919743 -0.35166366332614274 1.8845677093799673
Ni 6.129259351188386 3.3162013407733295 2.585434378984533 -3.5344026989955966 0.7321658481505326 -0.40334669352273117
Ni 1.9465282542022888 7.958504497890051 0.7420195633133506 -1.8575919521220718 0.6461863586649194 1.4762271621870704
Ni 3.9177749139863427 7.407356102580945 10.553654429561766 -0.24399923266792817 0.8140066328774238 0.3187476293244123
Ni 3.9836352397703423 8.91091131564754 8.293685523354444 -0.417430682419623 0.12707471686402633 -0.0673904136295162
Ni 8.70986643616805 8.826124228638937 1.7265473764258568 0.9048604197362029 -0.34449542771247765 -0.21237466378411166
Ni 0.3724609257212849 3.0952505704012 12.095283931106492 -0.6035718664285025 1.317770331467337 -0.42289556218893626
Ni 1.8606604297299096 7.356746183230238 8.899489675699163 -0.4436579915472682 1.9960209176566528 -1.8923982611679795
Ni 3.375604952991689 6.275814740934382 1.1968881062084613 1.0264779701403999 0.6441793555372197 1.8027762898337727
Ni 1.7128580352180183 4.98559895063178 0.5238316012781072 -1.692204969941408 -1.0451662905785226 -1.4451774919701175
Ni 4.788904732224418 3.543848988591938 5.619942885385312 -0.7185963369962141 1.3941950873849793 -2.2206885398755047
Ni 6.016834943738588 7.856277818303583 9.090288794539156 -0.2978031658622613 -0.9159583294215774 0.1984904496028517
Ni 0.902604218529295 0.8188461413793653 11.494373579687487 -0.000591867947728013 0.8476613448173919 1.2422272068236992
Ni 7.690795667332985 3.279363896281521 4.198419340648306 1.1039735905247183 -0.10189410383334065 1.2601480529681781
Ni 4.2874610231767 1.5419260115668374 6.582414417164432 0.5901332244250933 -1.0989470838444042 1.8076120206595194
Ni 6.133000365486075 8.983468518878018 4.164904471077186 -2.079671501898773 -2.3257985795429814 1.8689019778182523
P 8.312145812425877 1.5881575586283971 10.364882848100399 0.622943843197211 1.1215396244329394 -0.5358148134881869
P 2.3144131342863514 0.23905081362230404 6.918128421702841 -0.6407037382837933 0.48881376214830013 -0.27291514437132997
P 9.449340262344505 8.504101412722836 13.15938080906275 -0.9815150322764644 -0.36054091121111453 -1.0753122180342833
P 0.376382986636837 1.5604001562467813 2.9234465671211263 -0.15794878073506347 -0.0042122383091346815 -0.31639532704215184
P 6.74720101658783 4.594094876574409 6.101962878716535 -0.8830998881306599 -0.11535794264773035 0.21474599222976565
P 5.923244926789993 1.8885748623413048 4.363125577542346 -1.5009871427405699 0.9015838058674601 1.3104737978059238
P 2.3122516593587985 7.675859321359249 4.1726645355499965 0.8017985208470062 -0.006482779510866254 -0.11009258048373297
P 5.721682771259465 8.46646958000979 11.503080444075145 -2.510319454339619 -1.980009886940377 0.25529640284830224
Ni 7.234096336700092 2.6407404259128806 8.505358578268305 -0.07035232447131755 -1.0070530286465689 3.155125901937876
Ni 2.0608832097711414 5.258295800252432 2.846453721752992 0.6214034952932846 -2.122384210275951 0.9725912474242733
Ni 4.315403167005115 3.7164344481919738 9.999358963706431 -0.32137658230682714 0.5350082584264915 -0.7507060730465652
Ni 4.195552153393979 4.842470514723915 3.460544451693901 1.8077058659249061 0.9681188134752164 1.8887688919455083
Ni 2.622127725147837 2.4939725835030666 3.5282364889229174 -0.48556080242864114 0.49308616427140883 0.5363737713154505
Ni 8.14043787469814 3.144336372815811 1.7563175368703523 3.13058086560866 -0.27616604720845983 -0.49338415512780187
Ni 4.459954112053336 5.510523297567706 12.916951998085718 0.7145928722637758 -1.6675959131434763 0.24383082541086398
Ni 2.454197750007147 6.713753577644791 12.603545523248341 0.03000117434778059 -1.6188747937886896 -2.918645603354812
Ni 5.17973450000097 3.5779060743094147 7.8994869952955025 -0.04070236281536861 0.2804574754949622 -0.6322694914735112
Ni 9.413038568048414 4.9966095408610265 4.289661293808081 -0.1180617147321386 -0.5555629426493915 0.6245464117976405
Ni 4.417445105144785 1.611878360397445 -0.25118370814085716 0.42906903798949975 0.7055826983453655 0.6347421213837198
Ni 7.450243829455435 0.31267951724422044 7.71329809926039 -1.495983261768075 -0.5032109114102365 -0.9463503114498734
Ni 8.363162162959542 4.344961798493025 7.457132838006586 1.04752013552268 -0.24228584952124727 -0.17450591376279623
Ni 4.191155306960153 7.8356421986960845 2.9733323000003784 -0.9714046833153398 0.8552880081247142 -1.8105155674595592
Ni 5.126658282335491 7.724363188216442 0.04687352358918766 -0.4200516649822379 -0.10361391473792478 -0.5409133110570168
Ni 0.19042316999575573 7.392844661934849 4.472227410071457 0.17504918786077592 1.692668282731072 5.233585900027051
Ni 2.6549008578100577 2.416630576800481 8.369313129430731 0.6209129288101114 -0.2959681695360516 -0.5752696770496997
Ni 9.177696438970608 1.3505523468272986 0.05715715622527843 -1.2243822082224785 0.1045978759177489 0.8627894587080818
Ni 1.4549127901243017 2.701769762863075 1.3164130511659964 -0.29034773802548064 0.4905528563265939 2.2463157535253058
Ni 0.420521413106159 6.265653961360413 6.730519787649074 0.000884973708114605 0.11261663245716733 0.4692641221511466
Ni 0.7193037550148915 7.796162951515044 11.107435390487764 0.5175612665946377 -1.42486372011343 0.2286564316632707
Ni 2.222042410886632 2.6489891315124754 6.008814393825791 0.22514713295843158 -0.3805826603533381 -0.13034438875423357
Ni 1.1632337568450073 0.3821293693395335 4.748874955531914 -0.991631551885176 1.3366620261655173 -0.4518289573938348
Ni 3.1353209902119987 8.999753477413389 12.462307916048468 0.013136537381958023 0.027065231647908222 -0.6376220140346761
P 8.92371389791074 5.052733992398696 1.503937627861469 1.8507391908662965 0.5040832867128608 0.6674869199149085
P 2.665560439290385 4.479388912256637 4.901968345080142 -0.4585403079757393 0.07010112769245991 0.9330582223266576
P 5.241844574414941 8.389589426924202 6.4810329296970695 0.5004498037253317 -0.06390888283881897 -0.3388958221375131
P 4.515182567574028 5.9436588566613295 9.09024815142086 -0.1426363187477092 -0.6750045684481922 -1.1354212675110382
P 0.9707424063523321 5.186181976494271 11.517708271832726 -2.1397674387494052 0.5470232806094966 1.6271126083174494
P 0.238072607661501 3.0315240083277337 5.446151064137675 -0.6614836511436221 0.5468366185199872 -0.11616552615069026
P 1.1484544411010524 4.702861403377579 8.147824761448415 1.2051999788670729 0.09013979151088991 0.024111034115590735
P 5.2443478210190735 5.3918731033607665 1.6662376074109457 0.8146095565687455 -0.47493597572494334 -0.599912158188728
