# total energy = -381168.4462032669 ev
CRYSTAL
PRIMVEC
9.25068271350248 0.00000000000000 0.00000000000000

0.00000000000000 9.25068271350248 0.00000000000000

0.00000000000000 0.00000000000000 13.53930922454705

PRIMCOORD
 96 1
Ni 0.4591955674740426 3.9024930366303905 10.897587383107005 -1.085922132339646 0.6804218828090217 -1.5976889037396937
Ni 0.5635747215287417 8.414245291687543 8.553173895780661 0.6586780633740269 0.11445754232064806 0.09623279178250524
Ni 2.456028525449814 0.6416606599241828 3.808540327134517 -0.7782024786946211 -0.35491482327358875 1.1728606433044189
Ni 4.519985362729369 2.683401057444643 11.509482121057154 -0.3372510874452385 1.0499205174340562 -1.4602402998405108
Ni 3.3515316210691393 3.7543988560410577 -0.0506169609551285 1.3465054946185002 -0.44009701366888726 -0.44034641067553193
Ni 0.8413810509596988 5.970853198912164 8.921227111186717 -0.1487804839722341 -0.27398523750705717 1.1439676144191524
Ni 5.3538974124142955 8.583431029010194 8.910138317741003 -0.5266238910175381 0.7868910076075545 0.5896868809162942
Ni 0.4376840297426144 1.5344107523488428 2.331022198937242 -0.8499326573500718 0.07943217528539867 0.4006028122290068
Ni 6.62786444183778 2.4654087177864743 3.7568872897082777 1.64096622637109 0.6272329574908682 0.5232588312000471
Ni 6.802295316295426 7.131897143667399 2.501293041349725 -0.641998545835817 0.3001444124009282 1.320411882855242
Ni 4.126174546196888 5.694766571409594 8.721116341337979 1.2511952146502645 0.2606545818364221 0.5738637978411084
Ni 9.066344422058163 1.9925138141868308 4.788041472512556 -0.1932626255450091 -0.8013190101074263 -0.03270700331471786
Ni 4.65895837009982 8.853245693589436 5.832951420607379 -0.5977038376834997 0.569899928097354 -0.22797328955331705
Ni 0.7106661281049641 7.195782358930685 13.021160245547904 -1.661682632982835 1.0914752009473911 0.07671683323676465
Ni 1.8799792581952488 3.7733905077838212 1.7486288134336814 -0.8852845544868043 0.13801913169067198 0.48364815878696055
Ni 6.085126883265967 5.829623024943937 9.853638580952792 2.0790822050542066 -0.1982816760261553 -0.9105574701209801
Ni 7.719278497324734 7.202257836875124 11.443654262410536 0.07724725181893793 -0.8448691267842353 2.0585614593930357
Ni 5.808411209334508 5.738217028416784 12.528004496528386 -0.5654035828888971 0.5837286064503301 0.11706309826429516
Ni 2.831014202529532 4.008431855801422 10.217724178515462 0.6561205870594958 1.2177803866352446 0.4824888483715368
Ni 6.82754968027874 8.009749936546738 5.019374221804549 -0.8177470737564627 -0.4124486558239993 -1.4616574919030116
Ni 7.633802188458133 0.3297091352921958 3.5095924872832422 0.44486846691560156 -0.12494841454964285 -0.9988069865876927
Ni 7.452581312841603 6.461296647741238 0.46630471718875943 0.6404067758686649 -0.53644087710796 -0.9649239606870027
Ni 4.525730036734365 7.718982475475846 3.8102193260586823 0.6192771929789012 0.09861903262649467 -1.3121164756156694
Ni 8.655299583510695 6.113045443889279 7.109897169885305 -0.30397844143503777 0.8610408514480912 0.9043531410824812
P 7.496152028724903 1.6958629188692769 1.524567100805017 -0.007730021654406042 -0.5256820959295592 -0.06667333295783356
Ni 0.5450206270813668 8.286400855698751 3.9195355695118774 -0.600551848655256 -0.05966939083617467 -0.4140013450230999
P 1.6578703647009718 2.199405334511675 0.15261128898971824 -0.6437993464899816 0.7019630993149072 0.7173200413869517
Ni 2.4643356385842528 5.044434321449529 7.556017822321246 -3.5805136344210466 2.2387112017051707 -1.175472627005969
P 3.7604488025777196 8.649110876732367 0.7364690575770002 0.8754451997988794 0.009901061163795851 0.05294749873130881
P 7.3187331837300365 4.349319516162276 4.629726212522064 0.4295498342806602 0.09611889191246027 1.193729516333628
P 0.9012394440098204 5.899511933329996 3.5180809138001248 -0.9894831380836057 1.212056853887906 0.2423809803382148
Ni 8.851867341855547 0.16333653060226572 11.038381849916398 1.0163431956992433 0.051569644547175705 -0.4268540326160519
Ni 2.6614676885785484 6.2307973849675236 0.4048811086126391 0.28603419825179127 -0.0001635221610577829 -0.1828280604752464
Ni 3.022401578518832 1.5878611974388026 1.8575260009570438 -0.5387253022667625 -0.9737505578396973 -1.548687019919694
Ni 2.2629112717810713 1.891727625323018 11.702106313333843 -0.6438494830016266 -0.10320510933528032 -0.9539898302730022
Ni 2.4910701118120104 7.45594856137271 4.967153192455754 1.3511903016886793 -0.03590776964020268 -1.9706428439031802
Ni 5.794849708382297 8.142959768546637 13.042213874481831 -1.1303232841628406 -0.26269346664332177 0.9533102877074743
Ni 2.849691331057851 5.6359137275774165 3.04771237166709 2.2743142956207603 0.3447772206189546 -0.9572006239008161
Ni 1.710821272920932 0.3370282755059681 6.0636606738801495 -0.1466356697150894 -1.1657476864087213 -0.6126090369301063
Ni 0.4308431498284529 5.826422288702829 1.3511972796619809 -0.1416976089835237 -0.17163733396574957 1.2452683076428683
Ni 2.3506632486110055 7.981970136165091 2.1122944299982405 -0.28530426206430215 -0.5931794674505849 1.2203589459956983
Ni 5.6091330009357705 3.747923378096618 9.290809464455938 -0.4416746425686523 -0.7084075693886703 -1.3717807242455213
Ni 7.093913840181873 4.405249144236678 2.2106439890183887 -2.5075038392676943 0.741864306385219 -1.0200209016611466
Ni 6.496384487517323 2.024419419087362 12.277607940167963 0.02597842634163268 -2.4708172824799384 -0.11395129210819085
Ni 8.56178443131021 2.536574220395865 12.525648347624887 2.0555080172786924 -1.8856442302735978 -2.3378933059239864
Ni 8.933615625562707 3.747599604199396 7.702472781922359 -0.439286859062766 1.4925490392755456 1.7844633504571976
Ni 7.0022210724886085 3.0823922563326756 6.618298310777287 0.2992908061513813 -2.2894339248710183 -1.2918466696230397
Ni 5.720622229773463 5.562722325439694 3.9892894179293803 -0.11876002635074384 1.3445645688420458 -1.4358315319788433
Ni 6.941027805913655 4.119958087370226 11.305512891421808 0.9294928735729024 0.645931562341636 0.18092827234937228
Ni 6.395959075281843 -0.026934287975757466 11.125900709540332 0.5064546151585148 0.43950360305926245 -1.4282470347633658
Ni 2.8913101528750422 4.580799351310435 5.162349074544662 -0.5065304627017728 -0.04167346847938629 0.4307651947450001
Ni 4.716506867660332 6.665940252151085 1.2644443765720463 1.2199270006646024 -0.2455483223226029 0.9275817725931187
Ni 7.756012958635262 9.276399675893005 13.282306095296095 0.9872786742331191 0.588539140465096 0.7863613603563295
Ni 1.3518300263639806 4.668856600672036 12.844215035511258 0.15073709347797265 -0.7074218084366333 0.5050165971604076
Ni 5.070336233227288 3.82364946731545 5.208856882209906 0.5244441097574001 -1.3305574559296762 1.4086631990941676
Ni 8.850128213493326 8.638777864069597 6.1712174374690125 -0.8058559787458314 -0.7349156429815279 0.3433577145636087
P 3.6503471761566915 5.653878553531848 12.000160537228785 -0.5807355852602772 -0.2557810557942047 -0.3063970781788594
Ni 8.727871189902308 8.069564851387804 1.7131968482582636 0.857495300188678 0.4095980737490817 0.008177136494153659
P 7.148261601501276 0.8508491247827472 5.697138446473815 -0.13230536913534635 0.3552549802218269 0.4622568375953781
Ni 5.17357385302721 1.4190084846961522 7.31610136447976 1.5088590892894786 -0.28154942300756025 1.027916245248823
P 1.494531058893873 7.0537011221469035 6.624255750486171 -2.9525972777099083 -0.3737116442651177 2.7490371268936333
P 8.56680755205854 4.962279007700147 12.581172795793623 -1.4676121668245499 1.23942521859853 0.27611513936586635
P 1.7229859207737008 3.1259444708504205 6.903720727339183 0.5679361195027639 -1.6231582516553915 0.5803666319566327
Ni 5.017866360511772 7.204089472065123 10.94937455543352 -0.3498278956689846 1.8291866615065016 1.6074004746005026
Ni 7.615088057198702 7.536633016560428 9.273154536374562 0.46356835731795004 0.09354701742022599 -1.4862585782811435
Ni 3.6975349090061007 3.052706815298809 3.4934259940608103 -0.4465759365250115 1.9155746992844427 -0.42156938717834497
Ni 4.536368321928801 6.1563663913375795 5.93999292116552 -0.27533480955641615 0.5932211193217978 0.14933249982096217
Ni 1.1624963019513457 9.39647353834847 0.646714307925679 0.37328381269907973 -0.31698513810735085 -1.5895187092240755
Ni 3.9828907206519966 0.460679376991597 10.609957753634331 0.3616601124172223 0.9246820824478205 -0.062441554264673106
Ni 2.734178055211827 0.25160839580431027 8.08337427063846 0.2404840204258181 2.8898842149514037 1.9742794122145033
Ni 3.092512503291557 8.196012434277153 12.276375749221966 -0.5538058507489688 -0.04391058534002115 0.40118928086009614
Ni 0.03344954385614144 1.5571674319821591 7.155890639588104 0.8142675998482943 0.17734775408696554 -0.06756267754132236
Ni 3.958089640124793 3.585703404905629 7.4372917843465025 1.9222497973117736 -1.863954918225622 -0.1061078848043721
Ni 7.849620617663525 0.5484239532753087 8.510999107928527 -1.6032802817845422 -0.2510368562409999 0.3191860024134116
Ni 6.289418961730258 5.095192817851158 7.0469397981046304 -0.1970801995188864 1.4016584856415604 0.9882680347295819
Ni 8.999369478747102 3.974666863662558 3.214435577234298 1.2896961989389402 0.023509138865533706 0.6656334116459375
Ni 5.2892258891149 2.1861861088222403 1.7806491268006572 1.1408928321485705 2.362771300112589 -0.06812034981700527
Ni 3.4702271317907165 1.7200534543331474 5.841845952098206 -0.3245485522769056 1.5559917811112236 -0.4096338120830236
Ni 5.7357655974806745 3.680837426592224 -0.09385280212187368 0.028223770732383656 0.6147044860065543 1.2823104479978302
Ni 8.50833398622025 6.307772316361355 4.880514997832264 -0.7199950171159536 -0.06513427060548782 -1.577345049976019
Ni 3.180579003335935 7.5693156788142915 9.909271262110027 -1.6381698945728755 0.24526987185023566 -2.035926238492023
Ni 1.2912750569006928 2.602291070849149 9.147577442734601 0.21731452428789025 -1.153374252445033 -0.5817779104818626
Ni 4.375887477100034 1.3125978807034546 13.43264634166387 -0.22898733264012822 -0.8688649754782004 -1.4871656634764452
Ni 8.750526112025067 3.5233168002523434 0.7908269946474591 0.4369440698622023 0.9986768887677318 2.627129041832211
Ni 4.806062727631931 1.207038339526312 3.7996041675711902 0.20590988199537438 -3.185064341368521 1.4232454677837167
Ni 5.717106970317911 9.280377469487446 1.8743280160863087 0.23557707004250397 -1.9707050645996833 -0.45471270669953306
Ni 3.356277221334136 7.618760578261477 7.433866256513894 0.9121137588645065 -1.998932434876493 -0.3286821148293049
Ni 7.801840841116339 2.3023654338282635 10.189874072944704 0.5128898292608972 -0.5022189798106125 -1.161291964630213
P 8.03251586686283 5.118162263188363 9.340579987936902 0.8446133020196873 -0.24562648385870603 -0.6742291237347485
Ni 0.5304443262284333 4.319430560107298 5.551103467870814 -0.3220478973422389 0.07592364791150796 -0.5632860223252621
P 5.745136539134556 1.7190451299103702 9.657251210922107 -0.37075564696058727 -2.065266896437669 0.11490671404292468
Ni 6.16566332752924 7.652673581324784 7.094123830680928 0.7782341032635048 -1.3853270954713885 1.0739184230105503
P 1.8184344656747398 9.1943368689714 10.361281824270577 -0.8218397557685977 0.47300713413334666 -0.3428887453469901
P 4.692769615652572 4.307608187517307 1.7838581886562659 -0.4185180019465308 1.3672761515069485 0.42571374836402165
P 1.5895170696560237 2.842614558732856 3.784412696313535 0.1641407684783883 -0.3630086560253168 0.4289947331081386
Ni 1.6771765396581797 6.3566529241590946 11.12745759945183 0.10332749384575754 -0.8073055667081646 -0.08108282351494422
