# total energy = -340864.34477110783 ev
CRYSTAL
PRIMVEC
9.31516980079456 0.00000000000000 0.00000000000000
0.00000000000000 9.31516980079456 0.00000000000000
0.00000000000000 0.00000000000000 13.63369259525843
PRIMCOORD
 96 1
Ni 0.2534313068479865 8.034762536489833 4.017739902286063 -1.1993987988042634 -3.4734726962794436 0.43282361993592555
Ni 7.521347632286262 2.812547878220348 10.207627450996307 0.17892769697957572 -0.07374386665136978 0.4208623338089913
Ni 1.4693562696723805 0.8949977979156225 2.541497859023667 2.0516547049708733 -0.9185145201845277 1.154050195466135
Ni 5.366879246815125 0.6719646850020201 1.975113172701234 -0.1700494206533394 0.7514167259603446 0.5907885986209052
Ni 4.18186853833757 -0.05420776819856018 9.221093204542205 0.3074098357140899 0.16940793041459856 0.4921898777093846
Ni 2.1624887467549616 8.872438504909354 4.501763582421431 2.3212855221639765 -0.596206941422999 -0.3280254550819125
Ni 5.364857854946843 1.613201123266828 10.971141625774667 -0.21594566896482167 0.19514158773527682 1.1320672634371405
Ni 6.82090274683225 7.732047460252381 8.950069267821245 -2.930647770022011 1.1769744083624762 -1.198348503162878
Ni 2.9298724431097445 6.330608094320261 5.195418640535397 0.44922957209777475 1.898317454865892 -1.1482323032327773
Ni 4.123071185929322 3.2225923420445914 4.91550523717895 0.08090721716902839 -0.8400372526132307 -0.923217582087152
Ni 9.147012452879173 7.075495655366755 7.892272108598833 -2.808715516590872 -0.4764323577648118 -2.575417215280216
Ni 3.563145638415489 8.129348771653543 2.608711467436485 -0.2801396871442272 -0.986396785848798 1.3518623880550396
Ni 8.758579183222725 5.659515309220872 3.3421637259138466 0.4203074897467858 0.08929055613671719 1.248393226425095
Ni 6.98240916255693 4.402787107683892 12.006061659239883 -0.14521667788037573 -1.5745816282982688 0.38008823721542284
Ni 1.3479516603668225 8.179510961564572 11.347554600192268 -0.6324368702893108 1.1231159677811238 -0.5420047443489827
Ni 3.362133587145279 6.9359916709456675 10.255086378602382 -1.1377537722989566 0.9240706741160666 -1.6605276934427853
Ni 1.7770829073159866 8.737452377889724 8.496421425212501 -0.43941541422083036 -0.6070523687779351 0.5279282116512585
Ni 6.5619410236146845 1.1125107411465367 9.067414326084421 -1.5205378111789876 -0.19413242974447212 -3.172211653775569
Ni 8.426661049349047 7.954624129840887 13.158149762740177 1.3594042049580395 0.10359411724358289 -2.229162381674471
Ni 6.540050374349891 5.5053865080569215 2.3163231885500752 0.6373206807441734 -0.8780006192308814 -0.6592894717057807
Ni 1.1722396105447752 4.0299101717602985 13.296804203666394 -1.1028464188988103 -0.7864552056217166 0.10107469325583884
Ni 1.1384628044876928 4.873333600008066 4.98237884189042 -0.120183903281464 -0.31809765444523924 0.6277052691415964
Ni 6.06274106867838 3.7102414863050055 6.63262825888318 0.3538303319601584 -3.0286291690645064 2.259483658365831
Ni 9.658899669219158 1.4013834749127199 9.668251168281682 -0.13778413286173047 -0.5930501409615722 1.3160332941715724
P 8.794852454812984 5.81280574509383 12.497842081350907 0.5481640790821591 -0.15730060562810327 -0.31114256328364476
P 8.598907855968328 -0.243276840140092 2.5680013804228983 0.43551685049737254 1.2077584836228683 -0.953475609640745
P 5.742923340504688 7.332752702492636 2.840797993975812 -0.6442024954656712 1.4981812978606586 1.161492253566477
P 8.930909826371105 2.287004622807091 12.115486028537163 -0.6466057055905251 0.6675396275297149 -0.3577769753127322
P 7.563536036762965 4.444547014345199 8.648778481061488 1.9506792562970598 -2.114381908796765 -2.602690963394505
P 1.0528005020880984 2.9713622098439543 6.2893046309840495 -0.1997153231488883 0.26514732750045306 0.7090359470012885
P 5.050200730897703 3.8062995183129016 10.76007850618245 0.35925330274794254 0.0036874761539162303 -0.6634847407340508
P 1.3335131470219583 6.488537484803375 8.963049025559783 2.754185246753476 -1.712187326600606 2.800429622432996
Ni 3.0028474841056583 3.054025027535777 2.829222963858181 -0.20762635046584887 0.05040570614606158 -0.4981342682182776
Ni 8.953582949907492 3.3478627468586137 3.946381043267784 -0.24844004204810113 -0.720205847575179 -0.022502809088206406
Ni 4.780899169091235 4.739362826507526 8.41466031596699 0.11630436572139968 0.0950832515590943 1.3438785985186146
Ni 3.4836406633197363 2.520042228193199 9.276582740118993 0.3137918279810338 -0.5499828774584528 1.003679998409278
Ni 8.706125461516319 2.0988288756589606 7.784115533924931 -0.8138893905732693 0.3006666034529854 -1.4850583873254553
Ni 3.4567850284982886 3.6148914072095018 12.307652394470416 -0.25021513167065296 0.049708680079036976 -0.5434923846381027
Ni 7.517230327190501 2.0285366035942216 2.3931491207826125 -0.9194483448527067 -0.03512949671328144 1.1898944588582538
Ni 6.811485110063438 1.7407816902160278 -0.07136910570516877 1.5165405170941366 2.036617351021776 -1.0528924555781867
Ni 1.7579495483415666 5.870308288885989 12.048162501119528 -0.5549175957559088 0.12743595685818698 -1.450324840499012
Ni 6.425501730090668 6.081240996099606 7.264371903291358 0.38199573865078085 -0.02219813336359403 -0.6270794626321394
Ni 6.772417287503205 9.311667396030023 3.7476018382225837 0.16751739826010503 -1.4443549960688222 -0.7571459151346379
Ni 5.392123357243887 3.368756672944117 2.785527364891672 0.6973993912036247 -0.9933027689400119 -0.9306580975255972
Ni 1.8062580194425122 1.7124263130406947 4.733427200247302 0.20688818674824372 2.286988291544003 0.6455093872025529
Ni 5.287402217229072 8.555983553069531 7.043452402428047 -1.3925200136754017 0.19653512564869377 0.3237152577423328
Ni 0.9132676406403207 3.8465037916009237 8.42856693311057 1.0457856693300762 0.5797683362510015 0.19508193814193497
Ni 4.735208260732166 5.362277552884568 3.75861795814622 -1.2684133783007638 1.1712169370534087 0.5178847113723274
Ni 8.609946332299725 4.402656695305294 6.6089323296917835 -0.553512487878266 0.6329598326723164 0.20674754740532136
Ni 9.159886017680853 4.407835929769645 10.667764240957329 -0.1491916033677237 1.4424228120431157 0.2549706440777673
Ni 7.240588411502903 9.136327953003974 0.9732061013613069 -0.07744394121077629 -1.2957398340298587 0.7492549424223355
Ni 8.29675168992487 4.059029392867425 1.1266819091152735 -0.3168401278890543 -2.1022478445373927 0.16809795335392339
Ni 4.721263451391996 5.708997491729208 11.961111306887856 0.6671007402200834 0.33830806795484314 0.44958335589276766
Ni 8.54213189542836 6.2514105198312055 1.1391074142447666 2.2508331817796847 2.200985662129938 0.7812091267314287
Ni 5.258748754616942 1.0110126499170915 5.093969919706422 -3.718362044861809 0.39542949555818346 -0.33383152024072826
Ni 7.638327535889362 9.389318652315692 10.741086737790509 0.29035647977622897 -0.28246370729171355 2.318138749004879
P 6.945604926282377 2.2558360643219837 5.070656843997911 1.6680286298055207 2.079522377915419 -2.1701198257890173
P 5.910139955378016 4.096271442127275 0.5497319570923598 0.6790777100763014 -0.30409799773203755 0.10434153693256869
P 5.209657809244404 0.28964961893583585 -0.3187772236958719 0.6190141691255017 -0.07723671029597665 -0.33477871464534603
P 2.502585599800763 8.317151912005677 6.434189057539327 0.31959403648510765 -0.9813175715536778 0.9314939631633313
P 4.671716062694363 7.11109823472422 8.538482211861576 0.4944827875086194 -0.8582152090738381 -0.26928963180360077
P 3.167781882353507 6.244172632818974 -0.09938541069614529 -0.08392234984626837 0.428887518106313 1.1403451871752166
P 3.796993663582889 1.0985938773160677 3.3986201761262462 -0.8137307535082179 -0.2851885624220443 0.34527935706635376
P 8.308023045503763 6.472552653255126 5.512197760287738 2.3932399010150913 -4.033137576912352 -0.5454034856178865
Ni 3.20468858549696 0.8812746896190715 12.060078466455495 0.3124795369275134 0.3440097463253108 -0.6043979618742237
Ni 2.8723419538078856 5.722560379103479 7.351014161564423 -0.7273404017374312 0.5984556282478597 1.8673210064843777
Ni 1.359595622741713 5.134065205506614 1.7078246191101378 0.14637264586168985 0.38773444090677095 -0.6368164874142452
Ni 3.0780674810474506 4.702577220572772 10.205923706421613 -0.9330926751090189 -0.3976123621421152 -0.827181479696485
Ni 3.614332497015507 4.492697127557846 0.8998137407538773 0.7193080183512579 -0.3821096385208258 0.9016030891411698
Ni 5.052883499828878 7.318025418880874 0.8018209479577688 -0.46553679389823055 0.4807186438449914 -0.6655925311056731
Ni 6.840278300224067 4.634557849963612 4.833539194195641 1.0648465426162692 0.9311229529771576 -2.201044283282016
Ni -0.04036728876127034 9.00693092792429 6.7134485359688005 0.7265418170955358 1.1877275331139223 -0.6948668545897582
Ni 6.832779588454638 6.0491874964740076 13.53014455207425 -1.9905172142296041 0.3517989033524264 -0.7125390750585406
Ni 1.3161962461780212 7.892277697700773 1.4896987376998094 -0.20655034379285073 -0.5090450015935104 0.7000939073166524
Ni 4.577493119156749 2.3987307705866403 0.19011609703828194 0.222122744309811 -0.8103083580902303 0.668321757111378
Ni 8.858279446661488 0.8240786149166195 4.562815205945457 -0.29773348896659046 1.6669914467902578 0.33061147064153384
Ni 7.207128321222417 8.005019198999413 5.789888564106065 -1.3097544031413961 1.160792656396291 -0.36464079231210106
Ni 6.634636609513601 5.558538867505822 9.959780588503317 -1.6498550442202873 0.7263572118885555 1.5344986442344541
Ni 4.798719089109769 7.905328250730551 4.759044848989051 0.22000775484933724 -0.3026445531149627 -0.05374376938035905
Ni 3.4525932020433285 0.1589680319269549 0.8160759524556048 -1.769384344636888 -0.6740812853029745 -0.8057981289247026
Ni 2.197159809122436 1.9235360084824094 0.12816928568687455 -1.5526259499627841 1.221413869622774 0.9281746689821112
Ni 6.92715157471065 0.748641574516159 6.4493634693062845 2.2050503191176154 1.3070382897618134 3.2964288465861418
Ni 9.317778147484367 1.5079303882279178 1.1062518784907858 -2.250183464010828 -0.4195644409331742 -3.645236528520728
Ni 1.5505659208598168 2.861461835364788 11.154133480873496 0.3905503130890112 -0.7411621381118719 -0.25641508983377775
Ni 8.472650043144915 7.034322604409143 10.062510145193531 2.980511487621673 -0.8398251366024246 3.167996844363273
Ni 3.579931574575131 7.9213689732982 12.257998812835924 0.7558986729910983 -0.09234014159631838 0.9073165945861794
Ni 3.2742263287998057 3.3323250434655596 7.109043308244299 -0.3086110551110427 1.3453711239037411 -0.47364451060702945
Ni 2.649821175238779 1.190543919398103 7.0015415900143605 -0.5107285599435204 -1.5223108439190105 -0.09078668106626946
P 4.749395264489732 1.5305476207449054 7.595671509883683 0.9007399698099262 -0.09356938601772918 -0.0307125985925084
P 8.360644440268368 9.19398885468443 8.743996284744412 1.2456071790395258 0.39884674876984855 -1.4487405267310276
P 2.3432216731530624 0.8230166855480295 10.145866943042897 -0.12213177103645417 -0.06829544194228884 -0.1889668263831326
P 5.650936037743053 8.364575441966132 11.462363137691696 0.4626574154679064 0.03273220012569847 -0.6492775959957334
P 4.571410313212106 5.002721309917849 5.963935993066999 -0.5514437782746955 1.5192404325238027 0.16208645705252084
P 1.0610071667699212 -0.24271699842910724 13.373248213933035 0.8281114477099222 0.8048301085844786 -0.37906570948817947
P 1.0098761991893022 3.1032929611364133 2.0899086689628046 -1.130078772252202 -0.2901695605764035 -0.11991856543521928
P 1.8014141310945577 6.342149589826253 3.2918683290732496 0.2588041588912446 1.5047638361741829 1.3552379893954918
