# total energy = -340871.43891194527 ev
CRYSTAL
PRIMVEC
9.16567970775912 0.00000000000000 0.00000000000000

0.00000000000000 9.16567970775912 0.00000000000000

0.00000000000000 0.00000000000000 13.41489873340905

PRIMCOORD
 96 1
Ni 8.401087640782901 1.0637045978214452 2.8535097392489663 -0.2543350673762974 -0.5080034477028734 1.7025109798531066
Ni 2.06829972883591 8.286635801425053 10.147860833735916 -0.08413343741580993 0.4924058503749326 0.5622467824274704
Ni 3.641817749317902 6.957933079193092 0.19164702486595056 1.8178632660738823 0.1588700069977522 -0.22166148840267633
Ni 0.4532446821985647 6.989682992826117 6.347003880782101 -0.3496612881841333 0.9499835373270865 1.300502802636141
Ni 3.682375880907433 1.4588187077788513 6.70661748107339 -0.48206075969518264 0.6826374024031018 0.36221829891353746
Ni 3.5947336539562245 8.288358949162642 6.1165768661409405 0.9525353572146628 -1.0468655326578162 0.1314587048643349
Ni 1.3599851862127683 2.288743485414401 2.4101612411582476 1.0504069701521717 0.48593232683544707 1.2103344718801607
Ni 9.029944908208384 7.6266243895311385 8.74387122045844 0.5803877150025553 -1.0487126131688842 0.05408726876270684
Ni 3.960902548193915 0.11460765590858789 8.86824032498688 1.514747943970088 0.5501122039474654 0.9673233141571147
Ni 1.6535802305236995 0.39047260988126187 5.965993918370452 -0.6845898981437822 -0.3130351523206673 0.6024830042396978
Ni 0.10793870753693972 5.0242313531576945 5.130205855587372 0.17234413022478703 -2.6742612194333235 -0.03777233365276721
Ni 1.3189962676888396 6.1188609534611915 10.556183604356299 -1.5371093423844238 1.1427856782959094 -2.5193298853683452
Ni 4.774173286259254 3.2923762200860627 5.432845592384756 1.479993571208038 -0.8595555251518164 1.5095332325383681
Ni 8.678780231238955 4.972234453607997 9.312542053740945 0.4356595467228239 -0.286535563368242 -1.9262126386142635
Ni 3.4373406063504763 1.2435260630542175 4.314687692919602 0.7044748099931674 0.47919089434655543 -0.39986002052571135
Ni 0.4892658024577418 0.3414188100046486 1.1468244785294281 1.8295234760206296 -0.8022921726539731 3.2804784939044733
Ni 7.780928603160463 2.9417523182044953 12.086823659778634 1.0891105573699567 -1.0143945566133048 -1.6889823492390525
Ni 6.300433063469918 1.0619539530454902 11.117556723656527 0.2705687556263405 -0.0034792167978520724 0.042859775478003605
Ni 9.110410408146121 0.40975536631924064 10.241094125154834 -0.6978719599646691 1.6924520529552078 -0.9053710408240343
Ni 4.697621531448911 4.582418106375732 0.23809318893754192 -0.44110000101210484 -0.2070195701197854 0.6287581358861428
Ni 0.3868961617578189 4.363294207638798 11.23293796291114 -0.33872330111539084 -2.8505345095091874 1.837131627385191
Ni 4.659932257528877 2.4774739910776873 9.627108172645515 -0.6673431952481926 -1.675385070170592 -1.041345888391168
Ni 2.1198016816950234 -0.23552588212212322 12.817479546073974 1.1839878635658319 3.243925377370788 -3.18351833703764
Ni 4.525957520931322 3.8786772378007655 11.26182085201056 1.3232084717637729 1.9818639094299801 2.101455173432768
P 2.946234335458118 1.014420739390505 10.865370385988577 1.4803337281562765 -0.434903899503722 -1.4406942593877834
P 2.8315166913960668 4.36700630781818 10.188145828077682 -2.269847260988342 0.1018064292155408 -0.8972982911182289
P 1.5073693118533706 2.394203793226638 6.924314283519139 -0.2085357496539957 0.8983946095062012 0.1855097210724676
P 8.321529543111232 2.6917034169855105 9.85419521369318 -0.6772745954292916 -0.6117700859685786 1.3543699849682418
P 7.537057369894324 8.23790188376143 7.02607990594296 0.19848762138937429 -0.5888335317770632 -0.05216331226711662
P 5.769254441999158 2.5703681523567607 12.500940972950634 -0.323941514820526 0.13911596429927653 0.9899037705607919
P 8.262016786408221 6.654246621801917 4.475250232480979 -1.3261125327844452 0.7039405347562522 -1.2411661125490365
P 8.105705288978193 5.175620880720246 7.034705726878307 0.13226140327128835 -0.31569881519575954 0.7891510072863248
Ni 5.910955846377498 1.2929199096386208 2.898717620026152 -1.4104555151079001 -0.771474415942168 -0.36063089982175955
Ni 7.260647974562008 8.066631997460414 3.082341009096967 -1.3430833563108289 0.9923987690685038 0.10463618535485204
Ni 8.473918129734408 2.515814028239045 1.0052229800571502 0.046809504154371 0.6906780133193912 -1.2362221382802001
Ni 8.85263483914635 0.5434560491010835 7.7541730682626095 0.288635126209748 0.7215104253192155 -0.9547552476841169
Ni 3.6884618920657264 3.5782812593340303 3.3915140422100607 -0.28211043771735284 -0.5478426911869985 -2.1892048674449263
Ni 3.2067596082944667 0.5677377671139618 1.8162829562378806 -1.3375580556172255 0.5494362609263634 0.15091424248578525
Ni 5.780702375638779 6.94366211628125 5.574372848853446 1.4593324433142607 3.089129797552725 1.439070093520799
Ni 3.192571136497722 6.049650907894513 2.3646976379242606 -0.0798324960476109 0.20224220333580006 0.8956941798559026
Ni 0.5458803713170001 7.573674259318094 2.9506741905862466 0.4544178011669335 1.2593633522833538 0.4559208680750213
Ni 2.436072616978272 3.918777085417534 5.417083373425543 -0.6390764870930155 -4.527829652218299 0.8058526363117217
Ni 7.086454236514767 4.527506520759261 0.14450701885959594 -0.1515225654937455 0.4124437707279929 0.9344221925537197
Ni 3.410072709971074 6.384977290765249 11.17760200633589 2.2165680899492277 -0.950740470097769 0.1833800763239745
Ni 5.136510926484646 0.5860040497003521 0.53477431752106 1.7871486105988448 0.48797506829708864 -2.0830041658164324
Ni 8.799519726703112 0.5377879929259498 12.682136373533748 -2.605586796885061 1.4833977117935808 -2.5655323520663367
Ni 1.5953690003033347 6.662239094286905 12.693002286527962 -1.0025476845770476 -1.9101131619492393 -0.7846613469460874
Ni 3.553332279856809 2.1348058989632865 12.861238332929283 -0.09322177287032332 -0.3134326448694021 -0.867754516022841
Ni 1.154389830351801 3.0282396695443414 9.217886248870572 1.3023496260368925 1.4132122519174306 0.9828023836293203
Ni 7.540091209794016 5.842002439835567 11.465431838269463 1.234172969060655 -0.7808748833204616 0.5312523909284851
Ni 4.890366604713603 7.377437062180948 8.232454720461167 1.4767429254812243 -0.890716524135653 -1.5018399776591682
Ni 6.67433779116785 1.0734293837234774 8.731006272775033 1.157762868431032 0.8098368177704505 0.36828430260195927
Ni 3.2730366364354615 3.612295095792505 7.871285704366321 -0.8234304972944851 -1.0372439504076525 0.9892712791831156
Ni 1.2982085066843065 2.0787119406970866 11.676421196489851 -0.7641213180112066 0.5722008083163888 -1.0001097645595165
Ni 5.75056562158988 0.3589289240359799 6.719294532327962 -0.5976099924181127 -1.927103525859649 -0.9917619068154533
Ni 1.1117052611286489 4.956322834073664 7.4421027638737085 0.4704422016196479 -0.7073421042386335 0.14754172646912653
P 1.8801099982604839 7.818581214362677 0.991716434811877 0.031832828239880664 -1.529236110283934 5.221568820961517
P 5.266076971264221 8.907518927724457 4.411502931869637 -0.8815934787884623 -0.4295899434899763 0.14527812724593042
P 0.14722097654629882 7.975690125905311 11.576815924713635 -0.027267834577017553 -1.4011512069878385 -1.203400720874805
P 7.244718023668764 2.6060501424760933 3.821005866100316 0.44366133398137786 1.2644317679451964 1.7976878195672719
P 2.0916722114468262 8.086530687557786 7.755850387602923 -1.3758312401658113 2.3053786211257328 -1.2696037990644393
P 1.7282713524046245 4.635450727703874 3.3724650105981913 -0.027329541052888418 -0.5035518396894231 -0.7467691998860042
P 1.3237257582877544 0.6034710850382438 3.8468558318679893 -0.5875253544886011 -0.5114574676897449 -0.6388018932753902
P 9.100273166668602 5.0554771544206805 13.225386194847088 0.024990608507066636 -0.4622439820795716 -0.5101780867566891
Ni 8.800628773917198 7.48938667104751 0.2400555609089134 -2.1451564709754605 -1.1544651715163665 0.3908231071344237
Ni 2.2070497844296564 5.952503871348197 5.070683933204905 0.9928543685486836 4.4816228146449335 -0.8417408655678987
Ni 2.7516011322256433 6.500529011657729 8.689245604040972 0.21023756283645084 -2.6286598766544405 -0.01157279243926394
Ni 5.93958026331628 5.070536365765674 7.3759265582067215 0.773317382688178 -0.5464656083338137 -1.8842684329719934
Ni 2.4341844870104876 4.342323133045161 12.597220019652534 -0.5948571122633238 -0.03571930777848042 -0.11217028894836811
Ni 4.6609404822689555 5.443121235622049 4.5706035455579 -2.0143821937726596 -0.250249327342698 -1.5714019450187067
Ni 7.003257364099359 6.3631904707000935 9.27333036046339 -1.9021383712738789 2.005939205211629 -0.8849708799011275
Ni 6.517137222830663 4.044585201620451 9.67444890703194 0.6859394701931412 -1.3758842048909337 0.5390988835560974
Ni 0.1659684573040904 2.238543059037934 5.153481181996062 0.5397030927989995 0.3091124202274934 -0.8214612893832562
Ni 6.618335489696204 7.922675835936079 11.806585760137853 1.2959699477627937 0.5185169456396876 0.5600937406402097
Ni 0.9263385598254434 5.836732174148792 1.49510379960634 1.4467108978955086 -1.7512215576849324 0.14612144908283223
Ni 4.3968314287656005 8.412893035921279 11.62152794223229 -0.8825116197273575 1.4571886574983808 -0.49571460303319137
Ni 7.2180183994155875 2.009877687988074 6.0636010720254205 -1.387174175982456 0.6098767256006078 -0.7356126690485524
Ni 6.046589570956456 6.756077320549871 0.5833789991043653 1.258360364940136 0.39853024597069425 -0.5786946435708484
Ni 6.065168403212271 3.70733402606411 2.2009289436894326 0.6925914282920201 0.6873620615722806 1.015672909105096
Ni 7.926268782282542 5.999184676813844 2.2607725814207793 -1.4548949763681973 -1.1494029265021108 0.10796165018365923
Ni 8.537197980693533 2.9035314348760553 7.691780455074755 0.11907550070863362 1.2700982222023545 -0.5253288263551985
Ni 4.99969482925596 8.194621545373684 2.141460182247806 -0.5237735660529366 -1.338487252299714 1.6704634644992584
Ni 1.9501907833754122 1.003449421082557 8.556665883856507 -0.568442369715221 -0.23860968622124065 -0.14433864615079656
Ni 2.816594965242902 8.149333923185237 3.8250030189107553 0.39899587275320314 -0.42180027224222844 -0.4937466806735432
Ni 8.854587128870323 3.8477797323570795 2.9728890478819636 -0.713483698359997 0.6633006497477029 0.30973102764809884
Ni 8.680283402669618 8.697689027955159 4.987632795092836 -0.3012003644692684 1.2718892526645063 0.33272183211631734
Ni 6.858833752922806 4.927689251455426 4.968811072331457 1.0759786479736888 -1.0974766699464646 -0.40731107748711787
Ni 4.624296095806821 5.242493678025832 9.104490295785968 -0.8918802054264512 -0.5592013107329272 1.9639749449647013
P 5.3825910884995025 5.907601207696873 2.4344686230736006 0.14651945585219928 -0.5187221196719584 0.4108100917793119
P 3.673466840476919 5.210679604636621 6.6385366472155996 1.186749742581685 2.1493190869935823 -0.1162442019074256
P 1.5645356546158358 1.935589856003181 0.3130382001393774 -0.13892184601059945 1.049590130677831 0.5627376060209598
P 7.291142190109663 8.914026560137692 0.9954138699041294 -0.9504859308848017 0.43851681366596085 0.08453298684707378
P 5.449949666816218 5.952082250093255 12.002766130062378 -0.35580082542296787 0.396482105192414 0.32354736470590084
P 4.401460096890507 2.5581777986812635 1.393780879500208 -0.024107691681481063 -0.24229202016883436 1.4979046471605042
P 6.0093585810091845 8.439106879163326 9.750618453008999 -0.4898954252482531 -0.5655424224596067 0.5915355040892587
P 5.413708570250115 2.477519819474963 7.59339605180198 0.27768479784583144 0.6530280641771011 -1.1894404020399707
