# total energy = -340871.10882153217 ev
CRYSTAL
PRIMVEC
9.29169054669788 0.00000000000000 0.00000000000000

0.00000000000000 9.29169054669788 0.00000000000000

0.00000000000000 0.00000000000000 13.59932833356466

PRIMCOORD
 96 1
Ni 1.67521742886169 5.257461376368539 5.07854709199674 1.9667105987283096 -2.038130188121877 -0.2153075211601905
Ni 8.622967355770161 3.100832181001664 9.050149100966536 -0.9349047886170931 -0.2883379066843034 -0.26110401066901484
Ni 1.1549571051821934 5.841286153439439 12.545761044725383 0.6389425326183126 0.018284657241800766 -0.12156021480370033
Ni 7.348946530991792 5.61865725367946 2.8120278628739652 -0.34184564879445645 0.29209737372673567 0.8756609153541113
Ni 7.803412395606163 6.028123462136169 7.399204354694286 0.4176484548573839 -0.8601162827512929 0.18707680844927135
Ni 8.28811342048009 1.9645142065756689 5.277423643824481 -0.5804188253508069 0.06156197987319721 0.28884287134518
Ni 5.183276520956032 6.911084916956349 10.0492102261749 -0.30623021358369196 0.3240924385760935 -1.0189235548319098
Ni 6.056537451095519 6.199889649154657 0.7673133605809224 0.7726854055311337 -0.013251979913899758 -0.5209396961485674
Ni 6.601950380436545 2.3415059574087915 2.9303017887940306 1.314167701717743 0.4925030380744292 1.466364410460378
Ni 2.62036816690781 4.463978899206482 2.916077140102772 1.1970053588714225 0.2515847583246699 1.5617325402497426
Ni 3.641357681241115 1.9297261180655954 10.904239930762673 0.09950503477587379 -0.7049098406480571 0.10990257596011396
Ni 0.5331107313743231 5.586944714661063 2.992423242680729 -0.42982854186334357 -0.003375087119819994 0.04509252146326428
Ni 7.286878039739846 1.3202934425081143 7.456470900395484 -0.018999938141270503 0.29559407402608445 -0.5493966659376796
Ni 4.463300605814058 1.5306666027529254 1.5422858614820514 1.5685274516843888 -0.0011081454625142205 -0.28199242408224984
Ni 0.5446389315384385 6.5818059958505835 6.406670641926714 -1.0753505274713866 1.322361293272129 1.775020974097375
Ni 7.889602114895544 0.26425474316710434 13.091774217260252 -0.7233467071970059 -0.825889757468255 -0.16500028826520613
Ni 8.035732528356528 4.284807235013173 12.182998588428672 0.835139043980665 -0.5826027203760031 -0.6371173064841157
Ni 0.7249255985686082 6.707020814430111 9.159609858630242 -0.40624715499897773 -1.2810274675203486 -1.4138252029110812
Ni 5.626648107343633 3.159769372620092 7.032728938950828 -2.4207969846977537 0.07294245379599697 0.5206213935772003
Ni 5.19533713497475 4.229224343595637 2.3521672428672473 0.13493972143439986 0.4773936932368166 0.04549772732148293
Ni 8.60947582144414 7.771365355736706 1.7359404833571577 -0.3827112766605667 -0.052616083533819066 0.24769802167575405
Ni 5.359298302135207 3.5730172990318225 11.245882374991169 0.0066085064554531345 0.40001582937728525 2.0976183161851814
Ni 4.20735170461254 5.755988436419548 6.419005360809491 0.4834075035310642 -0.3920731774914409 -0.428277652436456
Ni 2.274243411275132 0.9643752452916708 5.039462525888627 -1.5743684838461982 -0.23480753886633107 -0.66921752945277
P 7.345945315022574 0.3625840558428128 9.368046630615039 -1.5782976436972753 0.7106950798712663 2.2640427384914235
P 1.2964045067283605 8.626572531609346 6.798902623201669 0.3367885459865232 0.7517584255704796 -0.38057803236764776
P 6.095386008269829 4.251394316668562 13.253034290048415 -1.3569405739088953 0.6741797585540518 0.529990493496926
P 8.474969312557434 3.7665910832012566 2.451510278955469 -1.170745396733629 0.4017562091071597 -0.40724808545966645
P 3.7213777181665293 6.073578411118882 4.28306783058767 -0.47861573856937567 -0.1461319906057935 0.3315771769889128
P 1.926882860831599 5.531055197463389 1.0970512911878618 -0.9774079520866263 -2.2818103468874895 -2.314490353619014
P 6.4548815062545355 0.2192290702765824 5.3672334056575375 1.3930275494394397 2.8783173360494105 -3.423517961627872
P 8.953742239015382 2.1684203503666843 12.394482105665192 0.22202967037537247 -0.5536837233488078 0.24707427204882612
Ni 2.627959477888774 0.18748772701823252 0.7218723491336696 0.11172857342525919 -0.027607477304623422 2.0404698919986473
Ni 2.2390929468430785 7.171019953299646 2.210856429168596 0.3775983809140336 1.7573870630656963 1.5158110951272799
Ni 0.8029590721063484 4.366527651264802 7.5140914594973856 -1.0670162965740784 -0.11288556984783785 -0.018027804035988308
Ni 2.980523374904326 0.8871315654300408 7.09951575054076 1.3768031171607773 0.2881687280962908 2.5652834692803244
Ni 1.6377347501625348 0.9375408436845416 12.357151810687075 -0.579859353302911 0.13426737795772362 -0.9141729553863803
Ni 7.206439876750608 1.7994008698171202 11.2488204074663 0.23166693635482039 -0.10751350690264708 -0.6271599381610876
Ni 6.335548327639452 4.423736588486095 4.842299361753531 0.053249346242443776 0.23235856310520625 -0.012519472623249405
Ni 0.13489954738669863 1.3201726505341211 0.865556260536774 0.4502510713837536 -0.6568538656810945 0.6783464883372318
Ni 1.659393680268566 1.9615966158192149 9.622000605907607 0.06224229376967345 -0.6246281728781694 -0.6972278986227669
Ni 2.4203924081167303 1.7129881499603672 2.876679444031308 2.131177383087549 2.9000907231707607 -2.0459183167077284
Ni 1.7557763838249207 7.694300076328975 4.774057471461495 0.3967754680631167 0.7548748597122742 -1.5013021028778273
Ni 0.4989340360864619 2.521616082323125 3.552579297032154 -0.45541076120782215 1.1414402200116083 0.8443057980815977
Ni 4.23286668619605 3.652340459184199 5.076996308884473 -1.8134034305303157 2.271580184519049 0.07381740020178254
Ni 4.646792906000204 1.4405836652248374 5.48731549451138 0.6790669114430241 -1.4410624413604793 0.06995688880511178
Ni 2.0591779474251957 8.768010641465207 8.846090573454482 -0.22340932433171848 0.2759001951415829 1.3433947169036606
Ni 9.257338928112109 0.31436947483886746 10.678246509942465 -0.19650298685917772 0.08181481658496233 -0.3116642401150697
Ni 3.831038247171841 4.6160838695349815 9.676969316595839 0.9883747355107753 -0.9614005209147765 -3.2837047141512543
Ni 5.6672063355344635 8.719377934397437 0.7984804773782886 1.3391233432218164 0.37833268797689684 -2.0518418812810144
Ni 0.7177208219044227 1.495246679301964 7.416420927664456 -0.927596427881138 0.2878848783072849 -0.6205208355780152
Ni 8.725547616761403 5.491100929142524 0.7716479341092208 0.01698393615250623 0.07766634163422753 -0.8836171940867105
Ni 1.2942302511964807 4.01949230998202 10.435539196597706 -1.387550071264636 1.6363796354416722 -3.1514024303397017
Ni 0.9207591218207478 8.014398807411249 0.0028915740235937134 -0.5200220694303044 -0.12317743869214914 -0.32073174963397666
Ni 3.901413509558405 7.542213689381089 7.885693100783314 -0.001930898474125707 -0.20597621645693556 1.627053987165372
Ni 3.309077544166131 8.071691369845306 12.60513587495728 -0.25090624420040664 -0.022378881915832427 -1.7904074838557744
P 1.105999188953674 7.760298952580858 11.411753913678783 -0.24949033768948642 0.8548308659826375 -0.8148370991985192
P 3.2820666004431653 2.0127473709602284 13.266022214759788 0.4435047537988555 -1.5020724053849486 -1.613179286065809
P 1.5699239943007515 9.204320543219351 2.824390456827665 -1.9259899810804957 -1.550862173194142 0.36857329459728777
P 3.9879563130794593 7.6394326450650905 1.014391485046178 -0.8109642465066742 -1.0556209102529432 0.46269238247089994
P 4.550326577231084 2.3788306773727244 3.5460379470559014 -0.9653206819047891 -0.8036070348106547 -1.3790654308323929
P 8.575765569009699 5.069890024137543 10.110487994581707 0.043750148502756915 0.29104604964408587 -0.46825419282939357
P 3.021852813390653 4.544194061628347 11.489786458047492 0.5466990645008585 0.9101954587958712 2.787165301223922
P 3.867470964866285 2.372372952609236 8.711824719346733 -0.4062759513543841 -0.7022497773173906 -0.4718974460089357
Ni 5.049689889409739 0.24440304682581906 8.707636025356257 -0.17024482449359712 0.08227992914683895 0.6439276445377298
Ni 6.029786674701153 5.807092733109025 11.851106844008529 1.4824955116942855 1.4306718421547746 -0.5638439517112612
Ni 8.313888569392201 7.267653532494294 10.540226812950616 -1.4026067084874423 -0.10696071972297062 1.1741983882792357
Ni 6.198217144899364 8.231480568057842 6.769554819366448 -0.10551498841537957 -1.092534752560157 4.779744025968245
Ni 6.407131509765949 4.732778208102827 9.312751781597024 0.9272562709328998 1.1743511118070162 0.013369222218054392
Ni 5.32389696206486 1.1335211756435346 12.500475204506259 -1.0797759102325921 0.9760306121231254 1.114708717554035
Ni 3.937455976259948 8.29104030292685 5.791777239975703 0.26575745028062614 0.12785170423936693 -1.7427276612813085
Ni 0.9913397305631007 3.4251121727221667 1.2830207560099016 -0.3186594404859802 0.9515881628100451 0.40287978118864165
Ni 4.045908585525327 5.864245920188475 13.211529238615283 -1.534320723895693 -1.49977975269603 -0.2772312552481806
Ni 5.900409178864011 2.4679565707991733 9.404628944523427 0.5823921470270937 -1.3766861319669388 -1.191587787400277
Ni 3.7852487973380695 -0.28464721588426734 3.2605749207626635 0.41700259374326887 -0.3190420206363796 0.11394229324712635
Ni 2.7073476798733007 6.565062369917049 10.315198798753324 0.5103359524907921 1.1223299815447187 1.115790380653988
Ni 1.2705457326034846 3.5385822947534216 12.511925354471796 0.9070031771108186 -1.6682775125915335 2.279666561071609
Ni 5.121635447458215 6.836370435196333 2.7934240405409336 -1.3392115320602485 -0.7597162469649754 0.34025902103362693
Ni 6.361815936137844 7.2617718925298504 4.798740846762512 0.7382099974620835 -1.5556665365613207 -1.1295372979264353
Ni 8.690536527683959 8.60239555343007 8.23786117179178 1.0128138423897461 -0.8241097827496969 -0.9979191846661007
Ni 3.0287193725276578 3.668266416370701 7.184239241099667 0.07390250371642111 -0.5812243519712377 -0.07066317084351702
Ni 7.260210888558245 2.8460075743273143 0.6141268375006673 1.4098351079150817 -0.13369659305591813 -0.19275149023654545
Ni 8.678559538878005 8.801962477847633 5.534722627627631 -0.20191284502083937 -0.8664244843575079 0.024925302486769975
Ni 6.440618761633018 8.753645688250309 2.9200205334691387 0.5800077059553171 0.4971281955512664 2.2223291608027207
Ni 8.662484914646589 0.4460243639702996 3.1090646186138233 0.3975989924056765 -0.010050956478098819 0.5372680009949456
Ni 8.604383975155805 4.551079204145966 5.3089196864587205 1.2751008176232685 0.32008074631353906 -0.7452838735897294
Ni 3.3208686991659397 3.5634096912542006 0.9333558663701886 0.30554989968721574 1.8648928566588592 -0.04722268043238965
Ni 6.273600628361498 8.655376771561597 11.36999055325511 0.34796410298736846 -0.29874264695739516 -0.7259862017023819
P 8.61122265922189 6.726691322810406 4.354205940748454 -0.5497504497326725 0.6401337247129363 1.0260190282261104
P 7.568081755196272 3.610546436182513 6.90630991730749 1.6856219174072518 -0.032993167096568986 0.5375122557952678
P 7.096036012520721 0.9092374258398473 1.5015696745559985 0.9329695192675932 -1.0561415586431036 -0.7081075216497482
P 5.8542759364888735 6.429431566503175 7.93671748893615 -1.5408865500386688 -0.566538724934605 0.932291262253646
P 3.9762301999118006 8.739717444479849 10.595359057388256 0.5766758133686068 0.1107590104231383 -0.7120896462259477
P 7.631051540408016 7.356426341689071 13.249349205672587 -0.12478309261637217 -0.4368265704477316 -0.2140386817500959
P 1.2392048611973743 2.912545368617014 5.673095408851153 -0.2800823515437305 0.28599511748373974 0.39117560537783597
P 2.472630291023684 5.770557806821201 7.955837929250261 0.12183378018006115 0.05973109731204551 0.48424722582354024
