# total energy = -381166.0331952985 ev
CRYSTAL
PRIMVEC
9.29536262412988 0.00000000000000 0.00000000000000

0.00000000000000 9.29536262412988 0.00000000000000

0.00000000000000 0.00000000000000 13.60470279006403

PRIMCOORD
 96 1
Ni 0.30453467595543576 9.143783315872978 12.356416860612454 -1.094257648788535 -0.2517804192752438 -2.1275431287690716
Ni 2.4441877613837364 6.86944971887889 9.970207065602468 -0.1538159895136125 -1.3616611193130161 -0.5496738308584663
Ni 8.015428521307493 0.8249848275685131 10.364443851621548 0.06148433255772637 1.2846123566581296 0.24054881222548252
Ni 6.00651471361905 2.0900065527295038 9.116552550559156 -0.6028028494729618 1.065135791721914 0.9517773960027157
Ni 6.906910030950814 0.7399508487015231 12.938657936418611 -0.06488795892263663 0.5074452612065583 -0.9178907705575998
Ni 2.5846964654232445 7.051480808532614 2.621789610664688 -0.781981229010763 0.0971452762944456 -1.6496670965791975
Ni 5.804563661491347 4.345386904980501 2.7219201882502917 1.5032548557288241 0.06940744405954498 1.0624600446619636
Ni 3.2953362466169756 3.329031936756114 12.442058756206366 0.21523655871293898 0.4882766586979075 0.43222506711997816
Ni 7.030259495267054 8.026527184487115 3.7888010304940716 0.25215348634394635 1.3839911502687843 -0.6517648811939614
Ni 0.7881686841384203 6.45262706033565 8.259646517609452 2.391203844421669 1.7083674386338839 -1.516865247423407
Ni 1.17254494930244 0.7519158396938262 5.498000737373606 3.347686359209538 3.7365245747034486 1.6817279816694843
Ni 3.457131331461622 2.127940928304076 9.525754870681412 -0.476814937915211 -0.4845740130353397 1.0727197747167592
Ni 8.029548177396142 7.80804897730634 13.588730992699626 -0.22192708335923714 -0.7303655617170002 -0.6474158601966463
Ni 3.0931714011449416 5.380676527222384 4.121245033247511 1.150041331417058 -0.10376201028001485 -0.9484588731524439
Ni 5.450949469967732 2.4142752839029784 6.509510032971914 -1.2712356782409076 0.43906677263215993 2.3191684758209736
Ni 6.165623438615363 5.071438397691663 9.283794718002847 2.2167233845801695 0.5116958089527961 1.4021068860328887
Ni 2.7768502051629054 4.972712349424687 1.278243449203449 1.0738181499872603 1.1266062403225694 0.545216566418061
Ni 1.2458388849568143 3.33847602535787 0.535825611215601 1.5253825408657988 0.24320913266646502 -0.23999448238390925
Ni 2.683998826183635 2.4172497999980194 7.292787497206551 -1.0679269813138061 -0.6803192957928864 -0.11241942884469672
Ni 6.24424361715242 0.826833675228837 5.338090752104191 1.5479174887435212 -1.9895162837689155 -0.4519523703455765
Ni -0.017417650809025565 8.333664562025712 9.84067618502622 2.000036723684265 -0.6920126729704146 1.35211538460611
Ni 8.81620543554377 3.9840668576981693 4.346988495990424 0.7027596270742736 -0.14813616552001582 -1.6245440762593248
Ni 7.198533447981213 3.8752739315220377 5.972885950092049 -0.2771016716488518 0.686282969575489 0.6865943301683207
Ni 1.2299531099367347 3.893883247841639 8.870729245102154 1.609142396992274 0.3556594147490972 -0.5956258721085484
P 1.2898524278006267 1.2844425266527706 1.7812778090800598 0.42968738829978903 0.1342249547555624 0.39689939523549067
Ni 8.289781154261059 3.3443785807339674 9.500776371773304 -0.2645176643362541 -0.8576534230330971 -0.7330649629260343
P 7.532060360500503 2.320810410979106 7.480532446371593 0.49595602962003615 -0.09889953998139098 0.7421766954193153
Ni 5.21490302710062 6.843850289735942 4.9998919902431265 0.3083454601544819 -0.7589271754047768 2.2948702653952413
P 5.281922592867016 7.078874242695384 8.81322162408593 -0.009380412773635457 -0.04131222848522562 0.7522659613345174
P 4.2692857697614315 9.545129195359207 12.743294507905144 -0.949080823007159 -2.2178289589395224 0.8296533382757453
P 4.962273657003652 8.806166443723006 4.211635000158134 -1.1646182007899686 0.46132789802320545 -0.6011838258123001
Ni 5.883221021479593 5.624512484113385 7.128333938601961 -0.6587899063615428 0.41621557906559936 -1.258959946197348
Ni 4.4315456227459284 8.090349145451343 7.0663775569510925 0.6204563008886669 0.5182721766187333 0.03253885316796977
Ni 1.357522668962814 8.897233113045251 3.4689410898952153 0.5049209521228079 0.9111153995069794 -1.8488913390242803
Ni 1.1767836347378735 3.103238279054097 2.9026043798347296 0.7398099949593516 0.6036461713098635 0.08333202456043712
Ni 6.93462880281148 6.6787367603727645 11.017673613108425 0.24339476631470985 -0.8350595968929811 -1.2935212291119853
Ni 8.443535750286296 1.902649220193097 5.449105269988807 -0.02023843853406192 -1.1735700106666176 0.22259736995338436
Ni 4.220717499147087 4.303976063719849 8.828322870485945 -1.2531690505471837 -1.124426459062431 -1.136792693937268
Ni 0.9550148691269589 7.997191019499772 0.527598285603973 1.6713443244423152 -0.8957463732500767 2.1146662728064034
Ni 2.2769827753912337 7.825273284569189 12.019374441883334 0.4931848946328022 0.8150132197650674 0.858289256844883
Ni 2.1641835478495937 1.3769778632969425 13.266640165029488 -0.2781429684291726 -1.4615505340115023 -0.5502438444293234
Ni 6.73874762259022 0.2940662383734502 7.874497807797001 0.01887523963794814 -0.3776325765860787 -0.923867556966325
Ni 8.891153945776011 0.9124058556017736 0.6127902856385122 -0.2787579763053522 0.062114509942557544 0.9552185604737806
Ni 7.516555695355101 7.5557542402700655 8.756258711329613 -0.834965237406962 -0.5690404083105361 -0.3410540061310965
Ni 0.6835335737413887 6.6889058872726865 3.8409749723373734 -0.37333163521787965 -1.2865188296522232 0.283178473970551
Ni 2.9846201544015325 0.05211909920279984 1.93865666705985 1.6373260585153415 -0.13815822837169753 -0.7890705317573765
Ni 2.2291767245262433 8.92279536073701 8.811017693566761 -2.262385919614291 0.774077400782654 -2.123829170252594
Ni 8.902001634160115 2.7786163240943362 12.608689288778015 -0.9707014866007283 -2.4739609703152423 0.21960897674902177
Ni 7.276419292857306 7.543540133554802 6.373436146522856 -0.36036993285088903 0.7438119170298931 -0.29986004839129005
Ni 5.9192498476807796 7.98959670809462 12.409026754970933 -2.3891554465330724 0.9668409752040574 1.5130718418192457
Ni 0.6172306804466409 1.5385963362484463 8.601682405233118 -0.38465708753302785 0.030276025275722054 -0.20740343582176538
Ni 3.220285487393968 6.045713258534015 7.607232888976152 -0.23503945237147908 0.3643083486733468 -0.29299828827445024
Ni 3.868637042484977 8.708751041610405 10.08116674084658 1.2896211227266305 0.022547289172896653 1.912739029607861
Ni 8.907662510103489 5.060823093377485 13.296175250780687 0.08273115775164461 1.4863187420951178 1.143883025125146
Ni 4.782092344546532 6.8761702661811235 2.854647744092428 0.8802097110670584 0.22497692592915447 -1.952260741851567
Ni 5.176113478148723 4.063914024124431 11.207813047729976 0.6761211985511387 -0.16225666408179798 -0.22960079785441104
P 8.94234350869911 6.801212460586086 11.713023452037364 0.27473625674046875 2.0202638493644174 1.936881431182019
Ni 7.838816628164423 4.503984385022978 11.538081006052636 -1.443484677648727 1.69654293519513 -2.1143425709183976
P 1.7292256364893985 2.9074500524608076 5.013999562360139 0.07208241978854682 -1.1557373533605708 0.5172069685790125
Ni 1.1097175921574918 1.427581818363831 10.950140013779354 0.378779031485696 -1.90899138963997 -0.940283022209871
P 8.63753926722256 7.899041283726209 2.2249677842517603 0.16514606981445107 -0.1617874377548633 -0.04258595299132665
P 7.031663095049402 2.624006554691773 11.272761606665199 -0.4619722164754237 -1.6451419550153346 -0.8238074210179297
P 4.963258965460135 4.374620820977078 0.7129664105018212 -1.4468114280291147 0.25609730148304277 -0.16811903639984596
Ni 1.852575100805638 5.362327481061098 12.869409342653492 0.3932695117923872 0.9920673538710141 -1.283969580867808
Ni 1.1820169239925866 3.5062201423925994 11.240980761262243 0.6799223174647838 1.856102512060739 0.4589995070003449
Ni 4.074612986703782 6.124482162875824 11.683242968708322 -0.13014332848702104 0.10126649755167076 0.1204906358886054
Ni 0.3332238836921081 5.524912671743491 1.8973387794271688 1.8918012510139288 -0.6466926088773766 -0.020452868537713165
Ni 0.14053566059161948 3.5606166054806647 6.890223925193914 -0.38099120864566643 -0.985830886042999 0.1582010059551856
Ni 6.700850428466836 1.5689828772318515 1.535045507659991 -0.2757788390723702 0.4667516401419381 0.8116365899833506
Ni 7.504982968672832 5.989931786389195 1.6646990870251581 -1.218955123669636 0.3680091945637017 1.0544137773187197
Ni 5.07647648432764 1.6451026031765148 11.47133565348875 -0.33809543772340483 0.444601329297144 -0.9491237604299525
Ni 4.015559546854417 7.233893008061014 0.39798281722627354 -0.3209335812321376 0.2897239883985526 -0.13199272299093395
Ni 8.281629121088086 5.415552728436742 8.11297405849925 -2.211680165729307 -1.8352413523410134 0.25242293795524917
Ni 3.5605329472154916 1.0198500246360598 5.3065822608311874 0.4067050684720027 0.12143500207974571 0.3754116576753599
Ni 3.8368097202680365 3.233178155593412 2.320091879434898 -1.310978248246168 -0.12180421249370635 0.6313618920575772
Ni 0.057349599848673834 8.737055421327284 7.456547621746484 -0.17687235711244378 -0.11615112797298707 -0.20431065582905455
Ni 8.494520815227862 0.847572559165232 3.1855682368834386 1.0860221482526198 -0.8703567295323784 -0.7315760370853337
Ni 6.324081488215884 5.874613515529567 13.324105956913124 -0.9747489171972245 -0.8329561773967333 -0.4896830521271308
Ni 3.0067245271328074 7.8533731663045305 5.057806748149859 -0.6532926306923974 -0.2045392269000929 -0.1848990840716622
Ni 5.070824903747061 1.5915427227401795 3.448628863111203 0.2132508957414779 0.08750492499120414 -0.9617535333788209
Ni 6.054376536660823 8.853767996606463 10.28986250821979 1.2365149869302705 0.025651639129833242 -0.8147134291364615
Ni 3.7357877173902 3.8178285894365547 5.876088689605452 1.4029404376777774 -0.3591214051557686 -0.4596805922277696
Ni 4.289865702993998 1.7269947494181177 0.6977350290226508 1.4465118945108248 0.05594566212768429 -0.5290903502801597
Ni 6.5298157530019685 3.343235251109936 13.295495759760229 -0.15435463562590188 -0.3523252081695416 0.5567618480534992
Ni 8.752801765905406 5.77098881106857 5.875667609670748 2.213041821963524 0.16140125806003816 2.2196901805179774
Ni 1.828425748259022 4.824376949910103 5.9256376209948805 -2.056987430037696 1.622008968542297 1.1132339327807215
Ni 9.30159069007771 8.507673753585621 5.063330052723838 -5.334213735553459 -2.9504673758510993 0.8742905173691459
Ni 7.336169884916447 5.907277420398238 4.395815177690525 -2.190255677306944 -1.1925002719122173 -2.3105187705657753
P 4.049143692639992 0.7621249366537753 7.947364156762713 0.1980893575096911 0.6981203285300492 -0.39182403759511225
Ni 0.35766139248543083 5.522616717132631 10.319398523507267 0.06214690584238974 -0.18359296366572897 -0.3343295429230694
P 1.210813957937704 6.971271122957269 6.037917237756168 0.9339244269816949 0.7723928139913794 1.1696161682251922
Ni 6.189438158101286 8.327120626616622 1.2904473310196352 -0.4776202074253258 0.289346807564792 0.524933904909625
P 5.467039742969345 4.6342124178090005 4.990137436523951 -0.4300008057751497 0.554532187392032 -0.7930876233365696
P 2.773355148751232 4.624647489490884 10.325996372020581 0.7316266878176109 0.6623269729805238 1.1610731637511875
P 7.186384408805528 2.409004813197077 3.6872826552428752 -0.9701450998766258 0.6564720568616436 -0.4371821540149374
Ni 8.4875771792185 3.368741726624914 1.3017820964143012 -1.816967236622174 0.0008284094385663152 1.6954666714118154
