# total energy = -381171.0917711506 ev
CRYSTAL
PRIMVEC
9.22303985269923 0.00000000000000 0.00000000000000

0.00000000000000 9.22303985269923 0.00000000000000

0.00000000000000 0.00000000000000 13.49885110357775

PRIMCOORD
 96 1
Ni 7.112051864739614 6.745924860993665 2.9258220913476127 -0.3587246839379822 0.7392952601064623 0.780657625103333
Ni 4.888570696488372 0.6333000154222125 0.09131270374554161 -1.6839316741890225 -1.5599543653033974 0.44276838985346323
Ni 0.031309452593807394 7.873413785268321 3.906918319273487 -1.5988137613727562 -0.5184488114059136 0.10004779465322124
Ni 6.947761860010628 3.9624760653289783 1.6863304185506498 0.15197610809139633 1.0379780003601995 -0.2162984243185501
Ni 5.800037586812411 8.367058534783256 1.5816599865252567 1.2682809664879577 0.027807252020255337 -0.6580519997542538
Ni 1.4474915068871812 8.02153580154562 1.9912560982983871 -1.5204120842344007 -0.14431010690570634 1.3023871641430473
Ni 4.603606441387519 5.68475881461752 11.472497478098314 1.3237116366524362 -0.468918822996586 -0.43166173841734046
Ni 4.806107499257031 9.23770425175466 6.219770741430522 0.2153810547106033 -0.07829137681273614 -0.8732677325315864
Ni 0.8002397994336692 0.32815943885135784 12.120388342197405 -0.5884352678973801 1.0590091099988859 0.11192809103057498
Ni 5.088461634145776 4.772720095837117 6.395269506208188 -1.4779431164369126 -1.05125183465097 -2.424788365245334
Ni 7.134592973567866 5.940615156681563 0.3463666413627536 -1.3172694805715186 0.939317058752176 -0.4071982060583374
Ni 7.398510252258707 0.5339420542172257 6.517015473783755 -1.3051937803539069 0.18828214161128218 -0.6544457704602341
Ni 6.113906848078461 3.023340056148657 7.682587250948235 1.300942975497353 -0.4262840190451949 0.6239388601206287
Ni 6.090923033348509 7.673089364748836 11.69792885706799 -0.6582247778866922 0.9883711359663494 -0.7576205407782113
Ni 2.8871157609795595 1.3009835225431652 5.151971484960563 1.2769070175940718 -0.37125778340798643 -0.9428921776979439
Ni 4.698695979856943 3.2163967214485587 11.496768829159045 0.8300603439061769 1.2055591619787043 0.45852128181234586
Ni 0.6128414689398772 3.658383226058815 8.775845785981822 1.5471842101219224 1.3713202396693351 -1.783117892172897
Ni 0.6829052117077556 5.480330141467685 4.402353260778424 0.752673224075265 0.4340654627628266 0.3148302965478771
Ni 0.6137259584393163 2.9395210720933584 12.645737290401831 0.7157820074758705 -0.5051271545963429 0.4822715901544081
Ni 5.453159066750816 5.158501397010645 3.9748441614577366 0.24049790438288904 -0.010153286383917997 -0.9930585141396896
Ni 2.2029414590202623 0.15491755186840192 10.237663440308824 -0.29025697808388723 -1.14709047631885 -0.3453256369232569
Ni 4.292743891037185 3.715068027555719 2.134249182243693 1.409339913446218 -0.1969912393495059 0.906462217005684
Ni 3.4680104652879726 3.723645454401167 4.35499940846382 0.7934979714011108 -0.9019779559820853 0.6420720793862297
Ni 3.983163343193859 7.214160136358916 9.826002289965054 -0.28169520455680513 0.042994501283654986 0.03915712981543579
P 2.540836738493184 4.7867852312557275 5.825631521754472 -1.5219130942599597 0.43374921707398845 0.2972778894864106
Ni 2.193155813984757 8.466722700903587 4.498681453468648 0.36128190314219716 -1.1198038726887554 0.052672647803367355
P 0.340506321988993 1.3253323471366938 2.8734868753349163 -0.41219000284597396 0.13372718918353743 0.9974885248865853
Ni 8.929156684348635 6.2325704758134375 9.142879414522296 -0.6783575440808253 -0.16733947792134407 -0.09007165727711584
P 8.10393443749963 2.6511996305712757 8.811455941949857 -1.5654079322188008 -0.586013545829765 0.5219624809861269
P 5.44404670360748 1.0783946843839913 8.008044339191295 0.6542660503492603 0.5813588206665731 -1.176440390235877
P 5.268661382217125 6.2008524425645195 1.9548361594518244 0.3190253084658312 -1.4308063108501101 -0.15440374369628246
Ni 4.4464274002045965 3.9378597725865054 9.11237236637532 -0.6298207728227024 0.8747178347145516 0.2849836455000898
Ni 1.4038849755696798 7.241820032175579 11.50162844873417 0.11227210463355504 -0.9174675669772522 -0.48013860297180533
Ni 0.20247523335858025 3.3119105197404455 1.7471563648363773 0.0178910213478079 -0.003953842441425448 -0.33196618489721536
Ni 6.686629939284652 7.8613039342488875 7.638473452451703 -0.3676191582141346 -0.6303146817399854 -0.33121156611937796
Ni 7.963153960758864 1.6616597098744263 -0.031619346724997756 0.02396036747033938 -0.77193387207709 0.19744298217494383
Ni 3.4562603128136713 7.257489976487854 1.589705243984702 -0.2921030301536905 -0.9397148084112267 2.606562787645085
Ni 2.673058234467739 5.245031954713859 7.85008133964078 0.8528673144983635 -1.0641705995951674 0.9400400529611295
Ni 5.3361463631075985 2.164416822532698 5.551591034778079 1.2375781380874622 -0.12294269697352374 -2.8132704829514066
Ni 8.065502031408252 4.295224888694632 3.7745760014799257 -0.6306142152582752 0.17253233497619316 -0.6608722428118683
Ni 7.613757550881347 2.6400489756721943 11.211767681899715 -0.7155482941985096 0.48375331690625717 0.48524018586442874
Ni 4.536333590408277 7.274654053218368 13.309434599799555 1.30334001497462 0.4746958346896793 -2.1872911953619814
Ni 6.830850609803215 4.439141198905776 9.791809715186423 0.07795276252639477 0.7151988812788909 0.3180534314708652
Ni 9.29756177888042 5.232654635545482 13.272164296700144 0.9015508957469957 -0.11881324818618248 -0.5245639231647159
Ni 4.000991478776924 1.7582987189998025 9.729309787209889 2.436431348800901 -0.9818916988895928 0.6751014990373728
Ni 3.0599094082370435 0.6013384939273586 1.9475333566816897 1.9342383371322174 -0.9686065517449125 -0.7937178007214007
Ni 0.3068560619399441 0.6110355977825238 5.290645419452403 0.3657777341300217 -0.511317599677771 0.3911254688661909
Ni 7.673264602501592 1.9474355924617308 4.619280074915641 -1.3547993591961764 -0.43254156991913245 -1.2511795309209806
Ni 7.190595270132982 5.026049325045621 7.450326211140867 1.47744586508552 1.503665203793365 -0.1311108346066129
Ni 2.7967299727157027 3.296655612211015 0.5224003424383085 -1.147999618396681 -1.4641342355782785 -0.4293976249735121
Ni 0.49472845667014037 5.363096084873617 6.878069805739385 -0.05712014205175969 -0.7787750633686394 -0.18588073125864116
Ni 8.470734723137747 3.0461025179277583 6.604637117073869 -0.20219463792731632 -0.019497703713295452 0.36222986887776326
Ni 2.4952380306180304 8.703773265184976 13.27053089638366 1.394063961123754 -0.7865133125531616 0.40059407047825846
Ni 3.8605614775416712 2.66873262888654 6.9962658253656915 -1.844689642238107 0.505931138554877 2.088904590461267
Ni 5.05173549038387 6.096705879189472 8.02790154349049 -0.4578625651824244 1.461061767300542 1.1181367693989777
Ni 6.514730926870189 1.8127515449089662 2.22079080759445 -0.8578804514422387 -1.1792590906315947 0.8671132828944164
P 1.873771175026688 6.629843684351942 0.25238017843173327 -0.6329279509931165 -1.3819777193831813 -0.3838034812834809
Ni 8.929608613289956 7.540314486397154 6.8118714388757295 0.6896464867310833 1.1318597754120248 0.012736730840378066
P 6.453406936445047 6.7833242866477415 9.499694837469143 0.6480120990197485 -0.2063531401803801 1.3799444910032364
Ni 6.1718183138446605 0.02338593925732996 9.628190225437718 -0.667460180442031 -1.5051011649089434 -0.12344097676618096
P 7.010598428933245 8.402742475068242 4.691417156989816 0.4689607319781149 -0.45045058898906937 0.5500055031662721
P 7.288719188636978 8.654356218907656 13.354898651296276 -1.7068651430567445 0.7697191238139584 -0.7860425435643301
P 6.655262381541247 4.255095443313404 12.482063384719378 -0.4929712359600994 0.12248221239733746 -0.47099447457869215
Ni 2.139431608205475 1.8239944302042357 8.630558009779369 -0.7285038259179131 -0.1404889333874032 -1.602692527601872
Ni 3.1119734668849484 6.1681014288783 4.249451865370683 0.24760031975562521 0.36904586335833217 -0.8235605951144462
Ni 7.559950337745497 6.2756697399519075 5.352173239053118 0.29613991922722543 -0.4066467044302416 -0.18288128231068504
Ni 5.255389428205728 7.1046273178465125 5.356128078441643 2.1382296619486403 -0.19122554051032228 -1.25622094999963
Ni 8.921344769791546 5.812064430475275 2.0141901086143976 0.6008922627138102 0.06751202680904503 0.3424416305072425
Ni 3.399381827484773 7.2730307982454665 6.357040929292387 -2.2840094114213376 0.02174947586194964 1.9313592158122093
Ni 5.711634752066589 2.581095306429075 0.19334719104789266 -0.09947495286888675 2.5393472090305362 -0.5844276893998838
Ni 3.2167840891125463 1.545716878826984 11.953286232688658 -1.5787370452275393 1.0398032264943962 1.5319517094428843
Ni 2.2983906960348177 3.3205525078632245 10.499851399071149 0.27912384428520315 -0.040218995421046864 0.3345046350483529
Ni 1.8304690040166058 7.292011813780876 8.337862080566108 -0.494908047971496 1.3006994920279793 0.5035587816679586
Ni 4.090445740039285 8.813324529776619 11.524981185048873 -0.00633776929256973 -0.9177588729654258 -0.7990646668556108
Ni 2.3286053738258783 2.462348671337529 2.875120275651399 -0.8336508894709127 0.565902891122819 -0.4341999314581619
Ni -0.06318796673209233 7.852809514760009 0.1460680453542009 0.7819148945492017 -1.3752982504804765 -0.6468476463980021
Ni 3.9049796363456233 9.002267719406554 8.362038434318766 -2.304207997856399 -1.0511145377421574 -0.10875972060492237
Ni 1.110029710276341 0.9036503642471393 0.9280545270783805 -1.5297901830151912 2.133032691128733 -0.7731399765700491
Ni 7.900547967826715 6.494504800986246 11.528666711680529 1.8086738862651301 -1.2300175521313848 -0.8606675272690726
Ni 5.88958407847096 1.0947286875488167 11.566463650342172 0.14880259545942115 0.5345958534794213 0.8337380498680802
Ni 4.375271649545857 8.515420350090643 3.3147235468241676 0.3447232274525676 -0.573349062988219 2.5827379173113454
Ni 0.08099396702007199 4.355691136435228 10.836579964032296 -0.24631219707182095 1.097650733630484 1.0774385203486672
Ni 2.4660009950265582 4.928884602661976 12.345482157917035 -1.3821222153808455 0.4839497491877794 -0.5229839802721057
Ni 1.9143248802303792 5.292678177384378 2.281359431074814 0.9744229013163734 -0.6634078647495284 -0.7204020227463852
Ni 0.5318198328009489 2.809605336023493 4.482577103990329 1.1579559582784444 1.3313125889281459 -1.294722448508938
Ni 7.993304077272593 -0.07920008581422301 11.044584409642324 0.18875651014453942 0.09388768858909637 0.5958225615003868
Ni 0.3898117694869265 1.8480296714507265 10.454198275262245 0.07315945490280948 -0.36242655826960163 -1.2059206590831812
Ni 1.5850808119198554 2.466010218066177 6.423373952534477 -0.6928477672772004 1.6175637882867497 1.9640950154823333
P 1.8773681604780048 -0.2586832037071944 6.84303977896337 0.250855079247497 0.2778290367331796 -0.6975773115423857
Ni 0.05435598399316696 0.718070817166167 7.85384710671712 0.5252408946270826 0.0012449281506946301 1.062974522404537
P 2.869831784734002 5.335703657205897 10.125636711883507 -0.061258332589849335 0.5279775768319552 0.07437712935999448
Ni 4.3281326940543705 5.016365133445922 0.19201261721505797 1.6541554713678543 -0.4105514388012864 0.8078336712974925
P 0.3051534888263208 8.25919508644185 9.774180797259122 0.13318134398239645 0.3348751310138942 0.03489321233275926
P 4.4798332497037485 1.4317754473768125 3.4837837076439775 0.5483286296844815 1.3062281351556921 -0.11924570773791075
P 6.708700673092347 3.8447808567539714 5.31344477338998 0.540869602303275 0.28761696935787884 0.9015436966581442
Ni 8.18058711977115 9.183491224875585 1.8477898724206387 -0.23641730655561222 -0.04802203640523342 1.0949091663296047
