# total energy = -381175.0199110135 ev
CRYSTAL
PRIMVEC
9.18878131800914 0.00000000000000 0.00000000000000

0.00000000000000 9.18878131800914 0.00000000000000

0.00000000000000 0.00000000000000 13.44871027515631

PRIMCOORD
 96 1
Ni 0.22003914937623392 7.834851058494701 11.8651782236584 -0.28409661490944615 -1.5937124355904488 -0.8087273867563556
Ni 9.0759613597057 4.935799773795375 8.508097437224066 -0.022876647487857376 -0.18959546110606704 -0.2800489272026338
Ni 8.70548807866041 3.5407130657567585 4.712952532879694 -1.1790390042009888 -0.6283076786122856 -0.3077677332741409
Ni 0.8527602463110142 3.034310144191034 2.6188136729461893 -0.2451837398943326 0.8026343864847403 0.9853094663218902
Ni 3.9099642389003892 0.5757331947145617 1.780138909360368 1.4530828628601231 0.6523711473193926 -1.9835970900710032
Ni 0.770233964458642 7.365800532569859 2.290759481503993 -0.39730717219687056 1.0103152443376082 1.0262655970192778
Ni 4.356097944473852 8.356185749535564 12.726891099507647 0.9850796096992711 -1.4439042816846488 0.46037710407416194
Ni 5.274066376680444 2.649024547826409 7.321921345631628 -1.11195892272304 -0.16183603160461163 -0.778640080452672
Ni 5.4017812467942505 7.237681356082571 10.045890511929526 -1.228583905008652 0.9339280265261205 0.0071306975075103
Ni 2.5492068174827667 1.5083108701756276 3.4239208998737802 -0.7252061290032478 0.024583602876635084 -0.03020917659352862
Ni 0.2900723642880542 0.3305259735891575 13.238049215352378 0.00983935468792499 -0.40246866179315205 0.6011190340126357
Ni 2.7391848691125933 3.5380115640794108 7.90351146949293 -0.808292356101466 -0.14241597520678698 -0.38211580916841287
Ni 5.086743882821888 4.783890842741236 1.3313266740625964 0.9560199733291536 0.40516960566408283 -0.7149939643569363
Ni 0.9998404728364225 6.293138968600843 10.249840105397473 -1.498823816540664 -0.9981184451611004 -0.7448555278030591
Ni 7.871881846793042 5.762303077783186 6.021605889293119 0.4081178896591294 -1.197598769481047 0.23453268793838963
Ni 4.798197775093723 1.11944164913697 11.629274643513659 0.18479701127615913 1.3233277709504565 -1.1767810614047476
Ni 8.80042656617864 0.8118922229770933 8.676085816527152 0.028697110824376384 -0.041507118104851096 0.26253354402668977
Ni 0.8465440358187493 6.905332328300266 6.496991160987906 0.6368077456634968 0.4564389453620203 0.5075596752972356
Ni 7.511681623146648 1.3355893496684528 6.915959153775955 -0.8185577425832161 0.998155469046623 -0.928310166118711
Ni 8.935804879826147 7.844967906612934 4.561184190178152 -0.46718229992145344 -1.2824505731201203 0.04567667610150843
Ni 5.422088453280437 9.621664698529987 6.411416960406363 -0.1793377879338008 -0.7983301026824317 1.3415309242220446
Ni 4.396675602321364 0.7377994045242787 8.976045309403052 0.9396574728107301 0.18834307675620468 -1.04464975595342
Ni 7.319406376212955 4.837985197756705 0.5440888699647287 -0.936006506321704 -1.644403277077097 0.2535454815954666
Ni 2.5678784209126 0.44635607407887645 12.365900640676722 -1.3623656015792085 1.0904105071283026 -1.4041048902995237
P 6.227898621971011 8.656199456220634 8.438944507552687 0.12888374504830705 -0.016089192252378745 -0.06783701424863156
Ni 6.615343581921272 4.811861492761126 4.129332607247894 -0.4920988606574751 -2.137301493707416 -1.307671038249806
P 6.044315962067151 0.7089006876016278 2.65212576148663 0.08547143950094313 1.083240985963057 0.7871206071198573
Ni 3.3302532207976516 1.193898343325917 6.083658647719305 -0.2294673576003403 -0.27623366722160164 0.8906753864850725
P 7.48283803891129 3.613910896919186 6.659437786339944 -0.47441635577604746 0.15034551446650882 -0.5352304017396267
P 3.5351446643401845 3.2780333771501393 5.829813972251359 0.4695189184744301 1.047148354005558 0.07694257609432555
P 0.48810989592196863 2.7244460640429806 9.55721826259717 0.18695519526974252 -0.08033848914975196 1.1701645845294943
Ni 0.5432150168711376 4.052610878489334 0.5856258365711359 -1.838109675027744 -0.9513567635255292 1.2148261891029273
Ni 5.463474723874911 7.24831277594887 1.0274601114138797 0.2642950068024868 -0.5620423797261481 1.8095647735105156
Ni 6.492452821945586 6.257918370201949 8.048232935880328 0.3541242090514934 -0.8956404437998317 -0.04633153607668795
Ni 2.114687731365658 5.566251241769934 1.6679356208163947 0.02914473988475626 0.14297467592373442 0.11227724683987761
Ni 2.9270219347192152 5.58122895515115 5.895201339380638 1.2461419684970731 0.3101724860608916 0.5698487631444443
Ni 4.429553061510313 0.47850670067368173 4.158408667648003 1.2964872537188443 -1.185989724487209 0.39132087270644866
Ni 5.181213742498127 5.9784048344085905 12.192654440762144 0.7794684898912382 -0.65765245032299 0.014779729412335834
Ni 6.679435330899169 3.758597445937965 8.71696946078914 0.5168441859229551 1.5332652860479852 0.2949538693389243
Ni 0.3019516206434128 2.7857260459689446 7.475344587830076 -1.1912689706082773 -0.19524340342046376 -0.9697738325801364
Ni 1.8170263526717476 8.726686596924498 5.069087639716363 3.427321908754994 -0.880804921448896 -1.8857594156952235
Ni 2.8425127138805446 4.826398144643997 10.218007410632724 0.2087614925115566 -0.884547933431096 -0.4270054705922517
Ni 6.433470035323489 2.369363991533603 4.6695667834927335 -0.28783757000911714 0.17511372255012422 0.9282672286959174
Ni 5.932901989829587 3.3254474882219607 11.794397960833763 -0.4770689629075461 1.0276578493811142 -0.22141697649203804
Ni 8.079612623731155 3.8777299943965238 10.747133269266183 0.878975324439325 -0.8102553933651078 -0.5877924921070586
Ni 8.58670470388804 5.185927587261662 2.981431464930373 3.8210750450520186 -1.6161342549290747 -0.5276947554842137
Ni 5.362480829535689 4.782135785529083 5.9558289178403045 -0.2261506345222815 -0.5051106995361107 0.8316312879377227
Ni 2.6361234989998903 3.851744121119177 3.901080525221274 0.9374350112381146 0.3016667625827256 0.3345596566560044
Ni 6.885199708657172 7.53804423645383 12.638869007610303 1.1203664300604448 -0.8799587713985167 -0.8626755588380368
Ni 4.207496974657284 5.298747443025194 8.091819919575906 0.960036036467082 0.6070420843652901 0.9740907147879353
Ni 6.512245456683707 6.932218702136728 4.544399962409976 -0.9505687204065953 1.7607737201497415 -0.5109607305589845
Ni 1.9671710377325147 7.713099707389734 0.14300132654386144 0.4031731440593444 -0.6133903951808211 0.9385045901532095
Ni 6.800231048757728 0.2942762316941314 0.6488731365553322 -0.03891338923574588 -0.48728755531176077 0.33071765720209495
Ni 7.850067680187519 2.5221091016783483 12.71636075623472 1.0948495167362629 -0.8880124949409288 0.19626850225086845
Ni 8.697916522938865 1.6617818940363949 1.330272720857182 -0.9992088500118017 0.6871134358965844 1.2081919716158611
Ni 1.3217786115016024 5.743364999698103 4.2150143165696585 -0.2538049059044403 1.547323306802948 -1.056178068307994
P 3.9868192049865745 1.9292948815623507 13.530478502022198 -0.2644880966498993 0.16644807645532622 -1.3864876914383928
Ni 8.814485401438306 6.5183284298483475 0.5003833509914709 0.9089582439546603 0.8056315214398512 -0.13123476177898688
P 3.071616595925839 8.974342628243825 10.260047922449738 0.5032247953673075 -0.5999450683091926 0.8929461847971203
Ni 9.150463997800724 1.1209945531623842 11.111700920624287 -0.22324940171508648 0.42405435838372774 -0.6417941431344947
P 6.818654555094744 0.3428269950023061 12.010142273869885 0.40044520360522 1.7509050548857783 -1.6868727590952175
P 3.765213368413103 7.342479405844998 4.729346237446212 0.2981842033507639 0.13435788078900088 0.6052261142024737
P 8.066748330029498 5.517881497451704 12.08425806427574 0.7936756346295557 1.145878201178304 0.5619421067028579
Ni 1.182302101431995 2.9276927157479444 12.133950993088998 -0.6155465222918755 0.653593449762268 -0.3100079354585693
Ni 1.9705065653137301 1.3003779400507747 8.074968613704856 0.2656504923891167 -0.9193884381490489 0.46530385195181795
Ni 1.4930299270143024 5.401174787234029 12.65586825285892 0.5114320137684483 0.782655115149336 -1.3555053841242655
Ni 4.775437164023006 2.8115557099656288 2.9072210300780004 1.0203883123028943 -0.4736540236887263 0.8897922125491708
Ni 7.523865947038361 6.201067380821841 10.054740227118144 0.5942359337395573 -1.0200131883516625 1.7569201507316066
Ni 7.692314684280343 8.575944641084725 10.242564428431066 -0.8925497206896499 -0.1170129617526501 -0.053362989002172616
Ni 1.9025647170065505 1.9256561242010248 0.6948354201951091 -0.49806921930829706 -0.05082839550577698 -0.8504491919751741
Ni 3.219914335962297 3.508157213910351 1.4527031228939726 -0.558307081053432 0.6481121149327225 0.13126227258281264
Ni 2.5164212461059723 2.2483936868319505 10.406087060063435 -0.1849949862195782 -0.9082010540736617 -0.6457793530344879
Ni 6.899929324945569 0.04035804597646241 4.69806486955439 0.3622897755814212 0.8115746263971635 -1.0673528539778907
Ni 8.82178129372339 7.366370237005218 8.487534782620088 -0.5542707062005293 -0.10178534616961826 -1.1169147240664183
Ni 7.880335525511274 8.54508871376318 2.598936501420886 -0.6806648520577633 -0.4306546373090648 -0.7464832932144693
Ni 2.8562775081413174 6.795351805932314 11.350737875163507 1.8193089973814731 2.419286461590498 0.7172621915658228
Ni 7.360553738495826 3.055600550267276 2.5893608725162456 -0.0529410709734056 0.059201192950504494 -0.04023647892254361
Ni 2.948679892044076 8.076929499616238 2.8637682025881683 -0.6322016143500532 -1.1246028367392955 0.19476466401183232
Ni 1.3633946016264626 2.2328278914529456 5.400047323778891 0.16489050216021925 0.22809207451936847 0.3042926302413469
Ni 6.870516036274852 1.7539269920651201 9.927568413974171 -0.4635752992964855 -0.7787575798671427 0.66317929367849
Ni 2.7239774362009914 8.244826909985292 7.921801738502322 0.14195086264491036 -1.069366284863494 -0.42526020576637086
Ni 0.19189115587888705 0.9417489979922259 3.759264551454208 -0.9783731442133731 -0.12580793433646073 0.21075049791712736
Ni 0.31483061639501453 0.13163388530220446 6.365408732860509 -1.5636711520333522 1.0108631464212785 2.1584357045828697
Ni 7.299558608787541 7.9675278704648616 6.6487870700330935 1.2754905968625192 1.2250859191577224 0.19618468428781052
Ni 3.544728563147919 3.7584688030009485 12.24635551594159 -0.008998089733552246 -0.015848794106798514 0.6703832676260971
Ni 5.072492083156695 7.18420264940854 6.553098777967683 -1.8476489819767472 0.3463383944584874 -1.0618756329134036
Ni 1.0835318921469161 8.56145393310793 9.692404530717276 0.7710316719777947 0.6786131117350571 0.9473306730852716
Ni 5.937909875592018 2.4937433340661945 0.6697528041112428 -0.2441846092058569 0.7914459739680886 0.6217156272170647
P 7.1186039403113055 6.29582209271576 2.461799455048737 -3.4725969785427093 2.666874697161265 -1.8470941379145414
Ni 0.8407615357998545 4.605279313474946 6.1456305448707935 0.6824787653380505 -0.4762284692841218 1.0819286949095368
P 5.3041228800362425 5.017837212487084 10.326282495207083 -0.05742533199700432 -0.3202674084030484 -1.5927546996628699
Ni 4.554759394352296 3.0992748273844013 9.761692535472521 0.7103994030077185 -0.06755085046678044 -0.5134174196295932
P 1.2376093755679043 0.4085019709836294 1.9043510160748378 -0.23168776229042679 -2.1878972043770966 1.3467929439519322
P 2.0707377908120685 5.804975777747825 8.288763067367059 -0.48563150776557656 0.4966491990323188 -0.5678091070065964
P 3.6900858931954263 6.127557131098087 0.139369920207508 -1.7755380229431097 0.08514156696535014 1.0986442078920047
Ni 4.0602926995854665 5.806887044240642 3.100936159028158 -0.025115564120705133 0.24553109593142228 1.3164765523565778
