# total energy = -340870.7459024892 ev
CRYSTAL
PRIMVEC
9.18161719661654 0.00000000000000 0.00000000000000

0.00000000000000 9.18161719661654 0.00000000000000

0.00000000000000 0.00000000000000 13.43822485933715

PRIMCOORD
 96 1
Ni 0.08420552963519057 5.508226617659156 12.777426818370943 -0.4771031585795912 0.9383166425121194 -0.5003179061331577
Ni 0.5929414944136362 7.333073039025636 2.6364049761406814 -0.4407354185838345 0.21471899564657213 -0.6682271405150427
Ni 3.6722428946115815 5.890741972429215 1.6851536244193697 -2.3581656830197772 0.7772503991939969 0.21600146190342154
Ni 7.734612704663977 2.816415172438042 10.546265372252899 -0.9305094877628748 -0.9673994188106888 1.7723295433081412
Ni 2.5939537689497985 1.0420309192820285 9.377583225115126 -0.67527170606665 2.2574226620717446 -1.570271173848373
Ni 6.219544866494899 4.697801992610937 10.653220194860264 -1.0767913736829713 0.05707437641548879 -1.1229853557405305
Ni 8.300898127980703 0.6980700933570528 12.506391905333238 -0.10583586208990806 -0.7170238503027716 0.3959835682894406
Ni 8.16252197494214 5.586352998536678 2.2422748755943793 1.0488331979071486 -1.886858305186357 -1.291323707240034
Ni 8.936229312749884 7.507652308740667 6.506331762025667 -0.12684280335887832 -2.1286533311141143 -0.025336164771943462
Ni 0.20841811995878448 7.15287461957538 9.436603578731155 -1.975142531545747 1.2393421719664204 1.073651799612725
Ni 5.9561059053786884 7.86956411448156 12.596790435779557 -0.1390185194894638 2.5568962736578933 -0.15171025602451935
Ni 2.3066242398416597 2.604604444918529 13.242160800810987 0.013135766051009636 -0.27637739188831756 -1.3338327842468385
Ni 2.0378323958894398 5.972779722240079 10.59219733052977 1.2728698714102207 -0.5773353013294766 -0.8603104010399699
Ni 7.786341936050034 1.698296191300094 8.443572196037335 1.4044938982078263 -0.32182112604341345 -0.5205563446672197
Ni 6.077991873900147 8.922530339865967 1.6751153623188415 0.764730155239799 -0.1493813507810266 -0.9220626425471022
Ni 1.0074162223836556 0.7752884122920679 3.0751760995835054 -0.21096544214141089 -1.7381773229064645 -2.657175210485314
Ni 9.167606066553333 3.2194789865339777 12.3575900259477 0.7753850638504839 -0.09968578332811219 0.2967081330258696
Ni 7.347974803764644 1.0923278183826353 6.131593237036225 -0.08708172141085649 -1.1259282404189384 0.21504166909331351
Ni 7.22576747864068 1.8926251196433475 0.8201699935596081 1.3921891126985444 0.5145301930777977 0.9400824761632908
Ni 7.734484162022976 5.842061037958346 7.832550261005059 0.12338852626169072 -0.37493883180399945 1.3264267215907546
Ni 8.538454110169456 2.976946567815006 2.842856393692136 -0.6228191446938887 -0.8303992153028344 -0.8717291843998728
Ni 3.6699107638391184 1.3583009058500275 11.579503056728676 -0.3173949719512599 -0.17515280331817576 0.5574421619499754
Ni 2.36091514243054 5.081042695140933 12.760360946454494 0.5805736057611162 -0.1072772225221249 1.3259024736561682
Ni 7.411474868419591 9.074724826812234 10.301635872162153 0.08708300696243712 -0.40042823432435554 0.44310340459537884
P 1.6902622762374746 1.9636357471796912 7.079418009213114 0.914937858576863 1.0261054172923296 1.19204647220425
P 0.7351335275665124 5.549635711296202 8.208941477093097 1.3547728768336151 -1.0568586393147863 -1.4107784456649572
P 8.022575765359912 2.677616665007617 4.865524430590235 -1.377900206879698 -0.24364750575546423 0.515224648041661
P 0.2885424207421642 6.636013841723892 4.61603050969929 0.311231009232393 0.6285370210142723 -0.07629131566357185
P 5.20518734149714 0.6175216018583668 7.836917038152238 0.9943170691371391 0.04087771205096831 0.10088623139411658
P 0.14633936964863078 0.15893287581993273 9.137818145824582 0.6790573983613273 0.003052413673078614 -0.24245168567515019
P 8.220366163393003 0.24899076826759625 1.9847048042016266 0.8768847604588833 -0.5167176876474198 0.28686620723478334
P 1.3473105100443639 0.7571905266007196 12.482484810430323 0.23012761689215852 -0.062442325595621496 0.2863180480407972
Ni 5.239232778128219 1.57156232888942 5.262637638569505 -0.09011690869275447 2.556910157614964 1.987873348848854
Ni 3.7472567072534138 3.506432069336325 9.433042947575403 -0.8583579052992895 0.878585545200074 -0.016391296873829838
Ni 8.561316337033368 9.076836598771552 4.492949094616512 0.23936816165382 -1.3622013080872022 0.2407961523495982
Ni 4.701649090223779 9.021847893274375 10.227886368210747 2.1478401884552105 -0.5085629197507694 -0.8971180567866227
Ni 5.713904024879436 2.2058284460617292 9.30832261381985 -0.7732947569803585 -0.2017968882682654 0.6538428467689127
Ni 7.276211283616718 7.306290261611166 3.5616135887950047 -0.8922643282387472 0.28059322974187806 -0.18782705635173458
Ni 4.9253683752703985 6.097934346489873 6.1618833922266045 0.13683693845711273 0.7853455174973055 -1.2204597332396208
Ni 6.252901681834897 6.915759355012918 9.531114555527813 0.2301553848063004 0.3934566881025289 0.9361916257493167
Ni 2.718337137353581 8.244605632839079 2.813319131113339 1.9426910958852606 -0.6796009295696231 0.49660189073415123
Ni 0.6694987369092128 3.2727415479948427 8.650185210051765 1.1237309756573033 -1.218050609577496 -1.0506388836573195
Ni 0.8050221614792538 1.7149424633098422 5.088787389261299 -0.8823732943772803 0.8287997320261984 0.6993346605531247
Ni 5.8373233234757045 3.6566800534331354 2.0808152187170377 0.736967383304234 -0.14605305773874203 -0.573834744375386
Ni 0.48285849482131715 1.6534531728248545 10.79170101833507 1.176760235469141 -1.0182077597118078 -2.328076576943881
Ni 5.40027834406919 4.824994935882332 8.1656033256793 0.4631852629469184 -0.344026201385543 0.012074414666030818
Ni 3.8386413433885616 9.01905668164119 0.891793034964154 0.5065880554125857 -0.38579531490252916 -0.8732587336705218
Ni 6.219581592963757 3.3835544861557083 12.582586473948846 1.0816988382869177 -0.3540241931385193 0.16914182123740548
Ni 2.312886102781896 5.170838911497986 3.442658392488389 -0.8026562408616112 -0.08155873471009825 0.06915316195689382
Ni 6.687899160602593 5.783059965738466 12.612942736783168 0.986734628804191 -1.3668611754567168 0.1327594259536294
Ni 7.117846749902358 8.555550281422711 7.933565495436414 -0.2192729335658417 -0.34929773419712745 -0.7074140951271494
Ni 2.2680063578377987 3.4191607977132388 5.562000595198866 2.2750542591105787 -0.015286236735109157 -0.4520102201667054
Ni 0.9812853397914091 4.153221912389107 1.484682194159668 0.44874569048282065 0.4701614371544354 -0.2129035397043882
Ni 1.561875722728204 8.805786076984583 0.7938600694316803 -1.2607203805318805 -0.4559072412282664 0.2595549210143401
Ni 9.126031703806428 3.8585287262750008 6.2862667606303875 0.09224192545555727 -1.0041060302031029 4.236575600328465
Ni 0.07948066941664872 4.697159279405927 10.21943377140315 -0.9388012954580219 1.372434041558804 1.5233462271620604
P 2.155421367554549 3.116470423005371 10.779714417061642 -0.9822454826845857 0.14900211306473693 0.20029690668397118
P 4.234231321071957 6.1505817395973725 9.427707509812102 -0.4669704410209635 0.26822879463925414 1.7210707451331648
P 6.888792945254158 7.921816698048839 5.722963526584906 0.08778208991199075 -0.3639095705730313 0.7243029004626881
P 6.190751314910471 0.949168042775359 11.927956447956669 -0.7291915960135571 0.638133920674088 0.0962325346721891
P 7.975226165385135 6.849559894896931 11.112727082620141 -0.7372921136335043 -0.20465852608677657 0.9390905445636665
P 8.087774429199527 4.109655138706672 0.4648818064771992 -1.230753916076777 -0.34105246346919976 1.5901745976405193
P 6.682546277766585 5.162658090559935 3.607047903418853 -1.7549511999306937 -1.3313614398882103 0.44119590316002083
P 7.288872733755406 3.9450103788176465 8.909314320047526 0.1783815946681186 0.13696292251201572 -1.3719984966832823
Ni 3.9674227064380525 2.236513410792329 7.565155859192874 -0.6829053113525078 1.7156148642249163 -1.6633955019088837
Ni 0.3731418417558535 1.813369399848452 0.9161307477144238 0.353157731373166 -0.4142453427131059 0.02411926164570685
Ni 0.34168378485579903 0.33368200545342974 6.96180700166669 0.1417253768976656 1.0466891549809523 1.1461332546119036
Ni 5.856164001999699 6.171267923181466 1.4068340162837436 2.5034746635036433 0.2120504476754735 -0.18534568469077756
Ni 3.337297498629448 3.4109524319235454 1.6344242711479637 0.7706722317558469 0.023340217387837224 1.1987714496329096
Ni 0.6944736538941635 7.676327798586823 11.948583869190589 0.015932354959540304 0.7546851122989713 0.46664031137505435
Ni 0.16771601084724935 4.565485706933893 4.343099592706808 0.2814239531732895 0.7459233069459412 -2.9567087287751206
Ni 7.437385392198691 5.476724488996473 5.652977567529692 -0.6510891952831754 0.9089726421323636 -1.6156213198483982
Ni 3.0166570622673836 5.39963563086418 7.88529497925503 -0.2948615667354342 -0.612024882291862 -0.2715684005354484
Ni 5.231731396864036 8.684386734175488 4.457472243861705 -1.1721186229320717 -1.608168720225095 0.8291113497293462
Ni 6.7515553127501855 1.0287175743211159 3.620486118373882 0.5794081246981053 1.8039453704412094 -1.3072483488900906
Ni 4.228547900016229 6.333984543455462 11.820692204849177 0.8833359154008658 -1.925201937961562 -1.0632195485358076
Ni 4.03152875782915 3.7069769525337426 11.69676516282095 0.690093858681147 0.7053065618658435 1.0982292318417732
Ni 6.660629757475759 3.2040722328481763 6.849342290568949 -0.11578320311060705 0.8180918586903911 -0.5299850941802872
Ni 1.8980514554170709 5.590714266713529 5.847522263877484 -0.6128517490685316 2.238736398516151 0.04283329311544236
Ni 2.4842518064718777 8.283324512632298 10.30691713838389 -0.8402858782889272 -1.2356428687379624 1.0182560964512397
Ni 5.125224637176734 1.7697750813143738 0.4241117533982774 -2.78996343279435 -0.15972335613698296 -0.4336507438229112
Ni 1.7384106769099064 8.66466462039891 4.903581315782295 -1.9545389963627824 -1.8293887502149786 -0.20693986592178557
Ni 3.2019145528027875 1.3648014908378385 4.489361836770837 -0.668217884543662 0.5349894893734142 -3.276930885762531
Ni 8.104025891669053 7.20326333484813 0.5682714071202042 0.05778168689515855 2.2093335198740016 0.1359859033107271
Ni 4.3580729740600885 4.11619245016334 3.8539755622983685 0.4445820460234343 -0.009491741540519136 1.3562993407804704
Ni 3.136284352954095 0.2961548995746419 6.42203349805661 1.393123965807988 0.06918787184957118 2.989555600101813
Ni 2.0355186283514053 7.583722007362158 8.090510551129423 0.234185589011616 0.5013913417029946 -1.5578607159991622
Ni 4.603414967646672 7.80549478955932 7.83560039424369 -0.8099211499541407 -0.7908921583471475 0.32962133881412264
P 4.667713832999274 4.698031533041297 0.19473751030929487 0.26141048616584006 -0.6218228422188904 -0.8295216977938875
P 4.977079243422027 7.4759940925853385 2.78653727186059 -1.95301561773972 -0.3126733981058744 -0.7015121278204176
P 3.667661267621585 8.274601976278596 12.093892143226041 0.47880188643825283 1.7041731980468777 1.3273857430699139
P 4.718240272530241 1.576300043372062 2.7140777851278104 0.12007128896299968 0.3858037995429614 -0.13164716672605714
P 3.208020328250378 7.469879135520532 5.775533794107804 0.9953498812770277 -1.5493861028692477 0.9737834679601617
P 1.7527523629988344 2.656131680725868 3.218992360821613 0.5919389101752645 3.0762290303306568 -0.59414543090828
P 1.752981903429195 6.694500743379763 0.6910755373631057 -0.9374267837079986 -0.9012271938589899 0.44290131588690174
P 4.629600939942206 3.9834629917116486 6.10111577685467 -0.4514242657562484 -1.0084905324240439 -0.010660565037639704
