# total energy = -340865.01437292335 ev
CRYSTAL
PRIMVEC
9.31427496568762 0.00000000000000 0.00000000000000

0.00000000000000 9.31427496568762 0.00000000000000

0.00000000000000 0.00000000000000 13.63238291362439

PRIMCOORD
 96 1
Ni 1.6485242288161186 0.5264633178671579 13.038406316131406 1.4667755298558676 -1.8183682307347588 -1.7829073188239875
Ni 6.8506306790015055 8.60973398134482 8.774741952619955 0.6490598235579725 0.9015871483015698 0.3922426131897696
Ni 4.346515771608803 4.952772621070704 8.999404129952392 0.2722561706310924 0.26607189619725147 -0.6449522291475022
Ni 2.085130872312356 1.5032960520610608 8.139595947628072 -0.44516645777199465 1.3237656298188232 -2.188567490971244
Ni 8.559967809692546 1.2349238447211763 0.5480854759943508 -0.4314424233176828 -0.7129789908094366 1.2040077583311846
Ni 1.020229804559293 0.11312093919141233 9.810790190515773 -0.22889451581600578 0.7021523325075779 1.7723524261262766
Ni 5.663572893820109 4.755906103376058 10.96208581659949 -0.17242563419499982 -0.2340333797044679 0.24805823322865025
Ni 8.722138652784022 7.704088388589062 10.492776753363191 0.08712337328206932 -0.024813202388937913 1.7195756486448772
Ni 2.5139228390322015 6.919472485979227 8.822837143326241 1.7695434959225718 0.7545210759172811 -0.2613487796899693
Ni 7.330502130157264 2.4673235209007527 11.118026341102496 -1.6966889738546906 -0.3841721774768093 0.1164257217906124
Ni 9.059026667474484 2.653860507552468 8.951417916264322 -0.4124088037249994 -0.3905045474527404 -0.838360636241756
Ni 1.1022140536484424 7.668936314507894 3.228311901962708 -0.8404853958942428 0.2588082726563027 0.23843845075069905
Ni 6.2499623945763565 9.348644736229087 1.4271881791080558 0.8265680144822023 0.07085214692587154 0.7712975240446717
Ni 4.587494695993542 2.346750230232832 11.181471457109726 0.10403274744289824 -0.32858441290917606 0.12961753789053806
Ni 4.02307757010679 5.904598389580155 4.153814597721551 -1.564139092808706 -0.7008860642006445 -0.11376848667342343
Ni 3.018207005123504 5.38802869468306 10.661954725583252 -1.9697403866935688 0.68833239590535 -0.23492735227364703
Ni 3.2189668897937525 8.71171597899048 3.0428572340731104 -1.5521325552661334 -0.4438713931096549 -1.5981583871769445
Ni 1.7129324408646835 1.6088547313302415 1.36820087514514 0.8087775232680008 0.46018478555769776 2.173246030122825
Ni 0.335995707139594 7.013416264247025 8.527873612113986 -1.3152578494581284 0.337937829099618 -0.5816650390530822
Ni 5.136580525129472 7.525794535366556 12.993392287615382 -0.6334000055335285 -0.1565074203028466 -0.41220285836178044
Ni 6.439731434674327 2.3332631599441376 1.0752976615764334 -0.04734069406749266 0.27990828785971145 1.3553719438701948
Ni 2.026246025375114 6.2286699617863315 13.335660227581226 1.6589786037881107 0.55370814882884 0.17822398604433176
Ni 5.580871445551243 3.4632803246504205 12.944261349522284 -0.7346495338043347 1.2885937099033806 0.75782982857554
Ni -0.021660346654944 8.956085299497515 5.2321086615851895 0.09023235122469621 0.8038086092984996 0.2464466657671562
P 3.719711631361778 6.092141317938485 6.750906461630693 1.0464873233827914 -0.12373125431309012 -0.1597027873116927
P 2.8496838264402524 0.8767443286681956 11.157273901928097 -0.22160852367755385 -0.457292037390935 -0.1392524898771408
P 1.3789691085434546 8.89583125412627 7.847467681744462 0.3491725214731728 -1.6349305616999712 -1.543604206080148
P 0.29816857326083307 6.626426764002083 12.247250861001064 -1.236855915209457 0.2786942129469523 -1.0017534708105262
P 0.7870189855756389 2.4557179341744315 -0.3197665142728667 -0.651336278296975 2.1833802903433495 0.09504854166641695
P 5.2421764614988975 7.61680431699006 10.367386119633592 -0.8852485590425464 -0.3449183741825092 -0.4110589745653243
P 5.926486935974099 3.408316787513966 9.314134415699638 0.743553521162184 2.8825426869846678 0.36155006920191923
P 2.0986738282514175 8.265562203556458 5.107985700691425 0.6295006704791223 0.6370293747559996 -1.1727200039614967
Ni 3.765677578789062 9.208641867783392 9.114515529724393 -0.9740436636000838 0.9677133505066817 1.7045956302962775
Ni 5.431964130146991 2.457469017885947 5.547629729285137 0.04059206248974944 -0.7103158421549767 -0.39717887414912245
Ni 7.178232361455898 4.109011071821912 5.614878795227384 -0.5263984052702935 0.00988306344166685 -0.3846894834328601
Ni 1.0750443132947674 3.016297578735947 4.7103425326314206 0.8272858664848333 -0.7827772425494971 -1.4152279967958787
Ni 4.496736399796693 8.108775011450385 4.801543256893681 0.19311684399576418 1.6260767108537675 0.7069752078175179
Ni 5.446857655969934 4.560008270287785 7.066304580899833 0.07911798647908955 -0.1687073048031482 -0.3634046059121548
Ni 3.039015095610343 2.5002122261420374 12.920758639260224 -0.3034282253585226 1.0287346273850606 -0.11308200212936008
Ni 3.6591595291885723 3.549931025545258 4.3678426672165545 -0.038205821645760016 1.508145608162222 -1.5986929195241757
Ni 8.730530814614212 4.754695247618096 3.964773933933371 0.7499475976139859 0.17143755925011767 -0.45931112470349283
Ni 6.973495281334495 6.428572933150946 9.764903414426511 -0.9204886131917631 -1.1028186509846682 -2.0930345534692405
Ni 4.839520350600927 7.708223926716259 7.921981882234486 0.25331948162758955 -1.260743520460332 -1.146312203391929
Ni 6.855278502257071 2.382610189218656 7.645176530254143 1.5702902000117667 0.3728816921646546 -1.500259520545926
Ni 2.76998157474111 1.185194930169146 4.48442665387574 0.17678622515654072 0.3339693313701732 -0.13628055173301046
Ni 4.012673524863371 0.7462681007551505 0.8088991491220283 0.06738912807793555 -0.48922153910968 -0.21484575103242354
Ni 5.734817783763633 1.4371740134012252 9.493086788168975 0.36036530486519874 -2.839674941086864 -1.372573652460462
Ni -0.05400416680514526 3.784660071363896 6.466766118039613 0.825551657402546 -0.9941933990750813 0.7290933798727959
Ni 2.2529647946410747 7.854020274250053 11.352571895702425 -0.31386484731081427 0.3524378224880059 -0.342220772745688
Ni 7.317294488120406 8.274783335867099 13.385500913433988 0.6157370410361267 -0.24258384037764028 -0.5505176669160002
Ni 8.312645863991094 6.7614278667398855 2.6054896143043687 0.40312429309927994 -0.7628108267298991 -0.16095517166155504
Ni 4.416195863342037 4.807134616212951 1.8212323112843911 2.4675676651943887 0.3526432536305927 0.33818774032689497
Ni 2.4553919345472877 4.012263696760676 1.2513393230891285 -1.4011306381625481 -2.508374929018738 -1.762012220542533
Ni 7.023652652539343 4.839650750451786 1.9325127497237 -0.5893654930211333 0.5238352725288075 -0.45684055167581317
Ni 7.0825095566514005 8.654693987065489 6.337790419838936 -0.17652988617136048 0.18202767606113812 -0.894589376827498
Ni 2.3782697370401125 6.064291635505338 1.991132139821696 0.49152164799776643 2.409239618877457 1.4337967609370017
P 2.527121166793997 8.265292089579683 0.9055273014624798 0.8419406402835307 -0.43376284392074327 0.3722983088573588
P 3.616164835505828 4.756120331702468 12.465300834467518 0.4056061789808692 -1.5612126631905305 2.2923243590449363
P 5.884060413070091 6.473048596568429 3.6228878792450403 1.9153039621215597 -0.10770042610247257 -0.35748824042771976
P 3.513176896153553 2.318080891594295 2.644150375801112 -1.6532776967485914 0.8813965322863078 -2.1466903911214836
P 3.1499574258649283 2.620049689080119 6.087172152193307 -1.1784131976915317 -0.8162326939944653 2.3794299917151926
P 5.81559117709482 1.0658790666344942 12.941548101196942 -0.33790491897915353 0.4364712439908418 1.2223587500345465
P 8.524014707956109 8.90578821416675 2.1705073803788135 -0.8976713581869313 0.9547603898904394 1.1262611982783246
P 6.042580060337557 5.6368595529444345 0.16106896435173085 0.18059402893840512 -0.0881340739347708 -0.25979017695359774
Ni 2.3447197182694786 4.701743593894873 7.7324652589906755 -1.0041425398679933 -1.4308271367857164 0.8083466063781691
Ni 5.834527098294348 6.578849446989203 5.895991999423556 0.6662851862973235 -1.0694205351401969 -0.239074284562485
Ni 0.3404889134291425 8.211120265823434 0.5269430030328124 0.47125338466703354 -1.1281337327106895 -0.3223415173232578
Ni 8.723396079917292 0.5550804965653517 7.58681607700285 0.6608884407617844 0.532136079085019 0.14279572714370892
Ni 0.2864558723713073 2.508473988121369 11.228026066720881 1.198150271109143 -1.7151309826099623 -0.44191889736897444
Ni 8.056270442930103 4.786382411376479 8.071039157467224 -1.3275027282637526 0.5442804277570369 0.9588692698524907
Ni 4.887488867166381 0.9689733488972174 3.1804346652928546 2.1330121223034424 -0.6765539152131832 0.900101822005295
Ni 8.858937410608647 0.2972110657845362 12.1311717080502 0.030944769207972515 -0.47997225259727017 -0.2410532626657268
Ni 4.431610988568411 2.5610344422920197 7.968509480447964 -1.9959337572594853 -0.4063093756954809 -1.3442745484054526
Ni 8.51198997885203 5.977817905836665 0.40962412007129334 -0.0010258701613530719 -0.2690379208041108 -0.6637323379684827
Ni 1.0586232463617782 4.41636352029314 12.115194000610124 0.7094090140699911 0.97116094273565 0.5127504754695557
Ni 8.415661746168551 4.561563754223013 10.596560131805699 -0.07923857121735385 0.643706272555543 -0.29680737760789533
Ni 2.022175687173346 5.215109178170897 5.444774052638731 -0.3210713923615825 0.33057881763138547 -1.0680269972267802
Ni 0.7588134978351524 0.863300104044783 3.341651726618059 -1.4017842125861473 0.030236430287038246 -0.18773346819666378
Ni 7.1070899285380476 8.218264314795414 3.827564416578546 -1.1335618457047962 -0.7202328441583725 0.9355185109416921
Ni 7.245770169925044 1.0806142497813966 3.7468878917079964 1.1560410006439188 2.45398555563458 -0.022986176482528157
Ni 2.664478781122296 2.6686515763497374 9.834142009521843 0.502405899010438 1.0345831157460375 1.5684361775221634
Ni 8.512772377957177 2.8665240357509973 2.3242124788671177 1.4191139621138462 -0.11620203581558051 -0.20871906930939535
Ni 3.2669354063592055 0.16757219119949773 6.567605254135257 0.5404253156770047 -0.5695091204168385 0.7381081817768965
Ni 8.061877636516977 3.5711023727594857 13.290169308182064 0.6250212945515301 0.228846950407522 -0.042171234051411245
Ni 7.1929489160526785 6.217790888514789 11.955531491792643 0.7427755053455789 0.4987366776889669 1.9512168739680849
Ni 6.2913457186735045 9.35982186630259 11.103767117411222 -0.29262444987479924 -1.35869355204426 2.470740920716048
Ni 8.61300329189132 6.740005034099003 5.360034640986464 -2.009529750776365 0.35273735600629574 -1.5756008135914026
Ni 4.954719304558506 7.456142386458506 1.9955359290706562 -0.5632981065101202 -0.5003374465171835 -0.6601369073077404
P 0.40656531214117786 5.868449688067431 6.751465318134369 1.5883280313500838 -1.5249539379688124 1.6340520157497598
P 7.350742049865366 6.816763974878789 7.525784289663989 -0.4688979970609795 -0.15928781126146116 -0.11828514359685435
P 6.852484219738695 3.472510771236122 3.4731627704904096 -0.7363426052360414 -1.5574472826108274 1.8280777447130387
P 1.3767802539040603 4.488251095215891 3.0491685868546154 -0.31159996253603756 0.00858157102142393 0.886229949119209
P 8.116561745401594 0.5234650527249406 10.224437145986023 1.0761539972092886 1.475812443247155 -2.522502369559056
P 8.575075563841898 1.8260822543087856 5.475568908846246 0.062479606591460145 -0.6402828486962909 0.509048086917304
P 1.1450038332798391 4.120644601373416 9.713141193628609 -0.2835114318299375 1.129176829263223 0.4526918196147623
P 5.465551406017869 0.6325557050973487 6.939292331882068 -0.26989744059092874 -0.07090331187878111 0.8042742360810085
