# total energy = -340892.22872868023 ev
CRYSTAL
PRIMVEC
9.06642323045267 0.00000000000000 0.00000000000000
0.00000000000000 9.06642323045267 0.00000000000000
0.00000000000000 0.00000000000000 13.26962684587703
PRIMCOORD
 96 1
Ni 6.435845893038986 2.2248730721261216 11.437861424665847 -0.8299503006908738 -1.3252980073029497 0.3010134452694429
Ni 4.67748563046738 0.5867635013622008 5.971490892223639 0.05476064068064763 -1.1265766726362145 0.4665870895396158
Ni 2.643723694530155 1.310016565257829 4.758779714752107 -0.25948910077341114 1.5763220080281433 0.8255915095015458
Ni 3.466012019772724 4.284011926806776 4.747686945876586 -0.28711791823427324 0.6323746495928078 -0.12937662552432558
Ni 5.15586638808733 4.302906352909421 2.7685347972445724 -0.6272501838820488 0.8017699816019159 0.4114911770067365
Ni 7.553019635262619 5.937138214439128 2.2102289852542443 -0.43333861189913114 0.13401206741380792 1.2935685374101527
Ni 5.135811459805636 4.555070783424235 11.632062397906461 -1.0423154513932888 -0.20378795055636517 -0.10593896332667561
Ni 5.6006107153614 7.988851668458522 12.70723321438713 -0.7351825234896693 -1.1495985874526846 -1.065049916876327
Ni 1.970242574480828 6.469001802951354 0.38365839382436545 0.4141903211054544 0.2786546179582685 -1.047444545089738
Ni 2.6307496428253154 1.4913631635808187 0.41142250181579093 0.46879052494883783 0.13595762117595295 -0.020127109767178242
Ni 0.36318097021811085 9.223091067993746 4.836925030233834 -0.02520401006945337 -0.6753868914882756 0.10525864943019936
Ni 8.71131867345631 2.2931251065314546 1.234650108509528 0.04002770534584719 0.7695653718449134 0.5288705209598699
Ni 6.823544285074167 0.8947843523823781 4.808926101879617 -0.010474931389394863 -0.5422487420389888 0.003926845858231947
Ni 1.0721770835156539 7.224932976252819 2.3833042856245257 -1.6302390697615732 0.35736354192439745 1.0603617673720382
Ni 7.892711316062911 3.735366388814705 3.7343255634228703 -1.5480833248974242 0.6389906122474286 -0.5526444834510159
Ni 7.583129226954982 3.788332433580374 12.772838759838836 0.25405276024918827 0.9316004068342085 -0.11508000639599535
Ni 7.9064650801692995 8.791647183662374 6.793292350536405 0.4088727655472829 0.8138461960401597 1.0860987671268263
Ni 6.947990010930649 0.6255560066239034 0.5274808795016602 0.1452516448833692 0.3522735289959998 -1.5151806606321325
Ni 1.696064868257174 6.521278799548212 9.20754215207914 1.0186361054984778 0.06519983373610061 -0.4027250007783322
Ni 0.4893465965696371 4.8863125577333255 1.3298820052931006 -0.7603243128626196 -1.1238122225172 -0.11113259171247312
Ni 6.590646004016225 2.0337347366674043 7.287970910633376 -0.6872677020862616 -0.4006118110900713 -1.6411814277056893
Ni 3.359010092295076 4.38476708864876 0.5759617646737691 0.9353033096070925 0.6028465582267036 -1.6945086783739205
Ni 6.133652938899222 5.574435951369875 4.80210543165072 -0.17716006355619165 0.6627828295710197 -1.3738278365825372
Ni 5.160599061036265 2.6441770156938462 9.401503771745327 0.16253382900258462 0.5242065398252972 -0.4498427802017414
P 0.06464450458467895 5.5618880215589055 12.515553613458966 0.6066165667920972 0.6483134323102512 -0.17736138093372036
P 4.03986221446602 6.207408292231765 12.571923193521629 -1.3244017207409255 0.6112082999278378 -0.4525257263505432
P 2.4994134352807285 8.532619470729276 1.524972394656877 -0.15249161427523414 0.7735994327049709 -0.3707628460494389
P 6.301345503771835 7.789916208984317 5.8963184569333995 -0.5957040336446515 -0.26402838340466145 -0.017380914480608776
P 4.857263737564 0.9021607943579597 12.61223613796635 -0.3947319552705267 2.0763177549351917 0.5696075936679158
P 3.8700753058171538 6.040295978448676 8.356706379874288 0.5526316279352096 1.3578857114309841 -1.3469634080915251
P 4.8201911327973415 1.1665404169495943 3.7777038655764716 -0.36674832557340703 -1.1033688670611836 -0.10726308145473785
P 0.22956727714713984 5.537716937110895 3.6282475044768243 0.2208906716749228 -0.006353195911537445 -0.4763500824636505
Ni 1.3236071337452884 0.9154367579578174 2.6559552061688683 0.17746551061175245 0.5021842699179352 0.2456622221926479
Ni 1.861382030232046 6.599984419988262 4.763438043030196 -0.04636907418284272 -1.1110266407167575 -0.2596616217955335
Ni 6.387077602249097 5.761421864969182 9.16472052831455 -1.9091801086120086 1.0527361325059805 0.6963524379963492
Ni 8.544995138498043 2.3034064305239688 10.130298233545915 0.9096786670604528 0.8656205003989738 -0.5529440169693058
Ni 2.401205938378688 5.127515682510088 6.867257138246573 -0.4318190899308111 0.2933469298631206 0.6633047635127609
Ni 0.5959994667512434 9.002078867847784 9.121395718058267 -0.0986059200003721 0.703738188937459 -0.15501695180024916
Ni 1.4662491711123316 1.0670817536357657 11.44643282122892 -0.7028817544744347 0.973428141503272 0.8208933326949281
Ni 4.053171723831991 7.00451916004293 1.7010468678461392 0.3683444664159333 -0.5583986123259739 -0.15103251323120442
Ni 5.412328303233936 7.8808887001138475 8.052115356778598 1.221539596567361 0.44343096313812663 -0.18899176608379709
Ni 5.348138026455275 2.9169131606169625 4.945325000180306 0.3875344090808229 0.13773939566672408 -0.2153869682478742
Ni 0.7968706075944089 7.413215388380283 6.954332880653015 -0.6070623960802641 -0.07257812847804275 0.4438762782056614
Ni 5.169701750003183 4.848306111369463 6.800139313392795 -0.5791492146097639 0.021939994606200924 1.6309592357570493
Ni 8.440187285452659 7.145774034649079 9.348876811210099 -0.9783824001847536 -0.8251068565556436 -0.23117019922405993
Ni 4.594591322474826 0.4876185362936466 10.48555333653805 -0.05753100433693318 -0.8355159677041094 -0.36285901782132995
Ni 8.150723589589342 7.1709242928106605 4.595444472904893 0.08261622944033513 -0.043653475023892566 0.23646358641251536
Ni 7.242821029372069 6.104196129682574 6.99882544622697 0.5867195707578541 1.3441459932473883 -0.5866540076272413
Ni 2.4960044601297717 5.188432980486899 2.5643417189138784 0.346241720979623 0.5008519242597569 1.4165611137850054
Ni 2.1256138701243175 5.591970413981447 11.285327012864737 0.8520928982261841 -1.2313792083656019 1.0307686270959537
Ni 1.154318878376482 3.4538086140461597 3.6829316364528824 0.4377588524540138 -0.5825536123056225 0.2448081017224687
Ni 3.388775159903034 2.5463865742624012 2.8323225248298747 1.3736067217106667 0.08990119313752258 0.257963151047188
Ni 1.1174820006149428 3.1492674562784755 8.140650793332124 -0.46824339419611616 1.3418024327158762 -0.41862675961025325
Ni 3.866439670084351 2.9903693219814693 6.905845648984615 -1.1409002883477384 -1.7364490273614483 0.839568283396612
Ni 4.096926282551457 6.910364354344288 6.1031924766261625 -0.22320826406450592 0.6147273688246897 -0.6691360254825572
Ni 0.8162600604078049 7.626838453558079 11.706544878385564 0.11128891478467931 -0.3298321692733481 -0.5196392321695888
P 0.17926494753932007 5.577853992944106 7.869154028470541 0.13585169172570796 -0.621690173295768 1.9803132771134089
P 8.687437714553063 1.5794434656860004 7.956614187223792 -0.9136337950534588 -0.4265956367483427 -0.13942501089926312
P 1.7033180068762317 3.33935408663743 10.418673958616374 0.5311017242832337 -0.3090039196740872 0.11203144937765869
P 4.148777157254445 6.179465575701845 3.769980179589503 -0.1373737847971892 -0.3656067557697961 0.5149719086009067
P 6.775075186252314 4.10725293866034 10.432076852142066 1.2941241528033067 -0.640831007890277 -0.5888895818259794
P 6.4915771969031715 7.733314528485845 10.178294971715202 -1.3319972736999963 0.5784010235898297 -1.4325171228936298
P 2.203775505167938 8.446415918241774 5.797951390981739 2.1212626950769984 -0.2793567862316157 -1.1186864712548603
P 6.834133867457991 3.8957876822217132 1.5397941834249216 0.9621448552799688 0.7962806763525706 -0.46236816636226175
Ni 5.055718676604691 2.816892379060157 0.7331671977455526 -0.3451052933823347 -0.530504457018867 -2.0160068738602765
Ni 1.6539785314200919 0.8986339557044429 7.054067163234368 -1.0061865668812155 1.9808920324350145 -0.011221322637116159
Ni 6.914480510510603 0.8035026962192097 9.269285401216198 -0.2980595048474415 -1.461764192684205 0.12696081699398135
Ni 2.51749188328873 1.5332228398360555 9.261974237488186 1.2439814705106444 0.5159689824068533 0.13857551841477422
Ni 6.389208211718445 1.9957010910337207 2.3881085833173246 1.0543847238529969 -0.8469864302375542 2.238307024288216
Ni 4.454424418661536 7.066297768230753 10.244868811172548 -1.4866720116694783 -0.523584332860266 1.0243994903448164
Ni 7.994300588846088 7.34434683719233 0.1669862904995828 0.5247667832041414 -0.10755490166354378 1.0528034954088061
Ni 7.411937022698674 4.046272175720612 8.18215778572201 1.7505052483441983 -1.2422542034068929 0.13478134147966467
Ni 2.982436201616875 8.464449034133407 12.614969664583409 1.3297778974511745 -0.7610519350572634 -0.9681049295181455
Ni -0.03772357395771899 4.777588009833651 10.319603338218664 -0.35598285952678693 0.27671729172623954 -0.3023339638530793
Ni 8.74052162282129 2.3833722837990794 5.631829130620151 0.3160942508619653 0.21617963935249868 1.1806408014704701
Ni 3.733743499048691 2.5908120483041293 11.577962143589238 -0.822060613530152 0.027308458006965877 -0.14525010222147244
Ni 0.9473415014583974 3.351330831782149 12.540368413959417 0.6016599941177703 0.07594318829553373 -0.13056473229515578
Ni 3.0847326554154098 8.325895953662858 8.134427600396974 -0.3490676204641923 -0.3323117411620922 0.019428541038256864
Ni 5.842276227725128 7.875974698699437 3.7542426820708026 -0.8788794222914089 0.13670761196810002 -0.3928136552018912
Ni 3.322807864162704 8.315496766167783 3.8364080496321424 0.5827814120457124 -0.15437674711308896 -0.9218417847855479
Ni 3.377242669498732 4.28105627281951 9.323359362905927 -0.2953158806640333 -0.745187200110865 0.48036254605715334
Ni 7.140152852219308 6.183228141360481 11.601038004105769 0.13473763272592276 -1.1470693932729277 -0.7708288119383692
Ni 0.47962467089311767 0.09376222957088601 0.5731230675467355 0.20511361134632414 -0.5239987946898652 -1.3065104422828016
Ni 4.6351091680855365 0.3698475112513523 1.558876284489335 -0.2955976735705103 -0.20865607728194388 0.5278927304276327
Ni 5.813499400254016 5.675517504449718 0.4244065265862315 0.44615247583434775 -0.3373390191733545 0.9401069016433229
Ni 7.836898414389263 8.688226493377885 11.35379754807097 0.7388198631319406 1.410615694834848 0.9550439825691294
Ni 0.046814476574380405 4.969089002223321 5.830236017617492 0.0951819819204877 -1.0661372364032347 -0.9587728534839424
Ni 7.933473955102016 8.695189506452179 2.543548783777695 0.47664010290024356 -0.18908843956266144 0.3644039937109466
P 8.393567736978666 1.5613378184081776 3.4928576990865112 0.6718505962002429 0.5316275148797166 -0.5136084525944767
P 1.9624635833118889 3.1412346052578695 1.5081197270754967 -2.924777941504795 0.40737458373520163 -0.34649111798626775
P 4.447533936973431 1.0548330157928323 8.085396383332144 0.6048353065219584 0.542843181089878 0.2605957035740286
P 8.463397329033644 1.5804135729762994 12.152748899806719 0.01178233734690874 -0.18830785264289504 2.4936599914060666
P 6.197344562397822 7.7011015265939555 1.5555588802134432 1.0748661316358004 -0.2534050993628604 -0.32726209455332667
P 1.8654981863983613 3.21111859585249 5.882027960569201 -0.15409264021376687 -0.6579033899915315 0.07920437554530875
P 6.974300771271281 3.944256781043566 5.936021231091793 1.132531861778385 -0.5814603792414438 0.4321823868075008
P 2.401541396039819 8.613428501368853 10.294709659835732 0.5472166275672253 -1.3779529144945042 0.10106132351940014
