# total energy = -381172.5955542653 ev
CRYSTAL
PRIMVEC
9.22037985123079 0.00000000000000 0.00000000000000

0.00000000000000 9.22037985123079 0.00000000000000

0.00000000000000 0.00000000000000 13.49495792255832

PRIMCOORD
 96 1
Ni 4.252835720399178 0.2725802490986678 9.891088854188476 -0.795833561512823 -0.09532853480068099 0.7469802874555458
Ni 3.1398252129642126 6.027878730355333 6.307354901636639 -0.38034663308313205 0.3048541591717717 -0.08430698687919674
Ni 2.0631337822472737 2.887887550551586 0.14989479520113563 -0.3003372451380247 0.4153843414135556 0.03315103283067194
Ni 7.548402371506111 1.2072243500104378 6.511829736094529 0.19796723010953005 1.6780489901560003 0.05577134133334911
Ni 1.4429157029086797 7.795895810771215 4.579999696906589 0.6332431682406902 -1.1621535412995598 0.9796075308411065
Ni 2.9168026621504004 -0.17854897004668238 3.3668844461306917 -0.003996008533270537 0.8666466276706428 0.02635740694760622
Ni 3.3055892041387924 7.3140203125641925 8.757148084212277 0.11883973054874372 2.1653828253246643 0.24100698280882366
Ni 3.7656585037070407 0.8184765336179375 1.178922393679902 -1.4898624935823181 -0.9181360537991866 0.04161227622414769
Ni 5.89397115199131 4.751307902559602 0.8971614122410113 -1.8691860847175743 1.9418775988450299 0.16319074586029314
Ni 0.4140466949654679 8.885486553071937 13.017344433944789 1.7176092689471258 0.6056729719319053 0.20884916712935644
Ni 3.7400996104188033 8.775155486301717 6.078304988433749 -0.7295708337298468 -0.7816490424823248 -0.13552027652821821
Ni 5.3469997711670585 -0.02251340178278841 7.847466318004419 -1.1344200799400332 -0.030195035526141542 -2.458292153429734
Ni 7.130516310319423 2.122706657260009 4.326024330519684 -0.6823571521585216 0.14078666713348012 0.418502318217247
Ni 2.8903954939045446 7.828987754498302 12.906631643443639 -0.014746819291871376 -0.03768157371117382 1.5412513895772553
Ni 6.825957939394541 4.748763077686746 3.8096802858554395 2.2781431824485474 -1.219062852892094 -1.1981009059284464
Ni 7.553344495172234 5.725431826444523 6.151447496654385 -0.5257733700917849 1.6778949810766395 -0.6205753429650345
Ni 5.05688973566161 2.2315716836143453 13.412220114868084 -0.6959516030135047 -0.3759978691961331 0.12179932739769991
Ni 2.562740071144513 1.531044094701239 5.19111910528673 -0.14043905398607429 -0.19891699561730905 -0.2503238893343753
Ni 7.192320517285893 1.3749522821195028 12.698269496788665 1.136462821401675 -0.2917477036968008 -0.6138053712310525
Ni 0.34971979203808057 2.524752105651173 5.075008704348736 -0.34620572553536505 0.6175244719538526 0.601517297892319
Ni 2.8100859843300325 5.313068772862328 10.84699054113056 0.6284706865527112 0.35759159877480345 -0.5263498114205452
Ni 8.148215749961995 5.079802379897277 0.4577586723467364 0.7773864105512288 0.720633679141217 0.18989885127909875
Ni 6.5512367180658835 3.8092616806046147 12.226837000940321 3.038722548744767 0.015645934067373055 -0.4502464433980633
Ni 5.365034834396421 2.1912325212276067 10.710395222004083 0.4865434780568847 -0.9821426385581343 0.8903619690097118
P 4.1260001734752985 7.682014897710962 11.241475277942952 0.6894284571830063 -0.08025647095890694 -1.173672597682753
Ni 4.373170899441309 5.762755924579727 2.9648823335254058 0.564617339542176 -1.6676542771852376 -0.7592696463458601
P 5.343874062355835 3.2646599374337106 3.6941101991839296 -1.374745206190484 0.13727505443579585 0.24942091790413173
Ni 3.0443297375723386 3.6318707902826812 4.354715386885127 1.445658031150962 -0.7307242306079996 -0.023710199132746263
P 3.8161769655851985 5.1134291056628625 0.35208574153943767 -0.8204896694986062 -0.01585419342343721 0.1636129209993763
P 9.45448542165434 4.874667366233242 2.823118069385442 -1.5470173455267549 0.2150928340462231 1.0048858457919212
P 6.166313515286645 0.6818434109335666 1.3210822121207555 -1.3971012052881808 1.4534199344845677 0.9482734966145152
Ni 1.8851712283669448 1.287008297926426 9.90794463081915 -0.34494408521412206 0.1808609094465466 0.6699358956760333
Ni 4.837048215938865 1.1781617123320378 3.3179915372419697 1.0053440163752623 0.7052674810977918 0.12932494635078373
Ni 8.765603172648538 0.27619094989652987 10.86369786964365 0.8279936911851354 -0.5498280970481434 -0.7021381914401907
Ni 1.877084955129649 8.251714515171399 10.972007829123545 0.34662764356413206 0.3197403322549848 -0.8409085994745905
Ni 5.589477323726246 2.4600065974729612 8.311585208457297 1.0457820697856506 -1.667351144122522 -0.5062684672896377
Ni 4.879332878500143 8.073788842810966 2.4210228309424173 1.8681543010189503 1.4390991469865215 1.7271061526939673
Ni 5.637939640870178 7.162243637810341 9.45732068849638 -0.16947632175868874 0.3667766077081812 0.2612176534287437
Ni 5.544583293632297 6.85638519330911 6.847624910295705 -0.30330121286235506 1.0285844749604414 0.13870587334505144
Ni 5.502879515009391 5.977599998356502 11.611668923713548 -1.2910221168392153 0.275646427259564 1.0059327989991966
Ni 6.180697308046259 8.963297339673465 5.275057756419053 -1.2387844996907376 0.08543235873289158 0.9227249587214497
Ni 0.7230373025439051 0.26364570090375355 6.142662318615051 -0.17270562732926387 0.3776839986493044 1.279148248219765
Ni 7.364086975823619 5.87300400793018 8.463053000482017 1.5030262846577855 -0.018237863164265365 -0.1468434148505213
Ni 7.655626170225054 2.2863499610405422 10.356314190238248 0.40764043580207865 0.942910432530389 0.9413703417367787
Ni 5.6958805086274955 4.5783059131053445 7.533088242407109 -1.5199773106898273 1.4479306292352223 -0.7445307974737887
Ni 0.17019161763814758 4.968281884110397 5.10847591754077 -0.21789842181581828 -0.3754625655179534 -1.2029137539360573
Ni 5.110118989252157 4.943930860598768 5.291076322548077 -0.9264327465903399 -0.3009121438048882 0.1610446460515678
Ni 6.8781176289080905 8.260446215006882 0.41491341068303444 1.4637624540611565 -1.3558691952215873 -0.9347479513242546
Ni 1.062805538475927 3.7315799793227242 9.498399325357042 -0.46820817008280663 -0.07450517029742652 0.4083387474206838
Ni 1.8776105167881734 2.232198669452585 2.6101946007572736 0.03177266442590657 -0.7320336934480425 0.15217125482133795
Ni 6.27125065977201 6.875296192636012 4.266255983451497 -0.8439144761804498 0.8985092807071944 0.9781864821238637
Ni 3.7956062978629554 3.2321119961250964 1.6757229209510194 2.4597417413920666 0.28456532701574866 1.2858382586454307
Ni 8.661689490340299 2.8663579633120353 2.7640099015234014 0.6545807533762017 0.08986236947978718 -0.7603096575746003
Ni 8.524213624926295 0.5813385031017574 1.369941005603573 0.9480307844760899 1.270392870624638 0.03353566986360031
Ni 3.562837805416507 2.946584489466781 9.357687106572124 -0.6123789231971711 1.2981967802107837 0.07123112753184506
Ni 5.718267591204638 4.482109688835438 9.72950077310417 0.2766039060768269 -0.3360982047877179 1.5775227132044638
P 3.805232374555928 7.2711363253045995 4.322326958150065 -0.19079796605460045 -0.07162630608773471 1.3788666845580253
Ni 3.732741747199462 3.425915162800949 6.914236623380678 -0.31835553609231626 0.9331482109373026 -0.5692054731334907
P 8.26176472934318 8.553414568304307 5.077437352433917 0.9261951766582371 -0.3473364967056986 0.640331442546039
Ni 1.7621529187523473 2.380204208797025 7.365184201040538 -0.1108896224637316 -1.552082161644172 0.38081148853469254
P 3.0263223354828983 5.3499595131387485 8.593022554559097 -0.8019774696270318 -3.1956164058527543 -1.1233730780972522
P 8.164093244277415 7.768640367567742 9.47011396571046 0.002920258970588519 -0.5735966602226508 0.34308363496661554
P 1.5831576823149178 9.019661522455209 1.6171144976835763 -0.6837620029258482 0.7126100375057921 -0.38093747258959554
Ni 1.0197094824769293 8.424983895644905 8.805446278592669 -0.9436591377709554 0.913386454929343 -0.9655358832393887
Ni 2.8488576821211717 7.199945771524484 1.639083897047892 -0.46303125386755734 -0.49366054871764015 0.5191237259857511
Ni 2.7893124682483585 0.9637233352741233 12.358115848973725 0.10250499794446219 0.325765198292826 -0.5162839425441109
Ni 6.655408571013398 0.2556046075283308 9.538235977035193 1.2232082425190354 0.6084744459364424 1.0024386698030092
Ni 0.6699896904388487 6.256064693954648 11.212960330835015 0.23349859024692046 0.6912272009546419 -0.4476735404645645
Ni 1.0718322904705824 4.57934781604242 7.123813094078243 0.5750511332809902 -0.2887572536099091 -0.01826820218156854
Ni 0.8496082245625279 6.150583547050811 8.779779506858734 0.03928799896634524 -0.141756230135601 1.0226459979888194
Ni 2.0391792350745317 4.661741131491081 1.825476644338551 0.6479714755898003 0.19067660998538774 -0.8298011767075193
Ni 5.016578234414793 0.21011955107804065 12.485359858730458 0.4102272226926483 -2.1519143585245843 -0.8695992825410637
Ni 7.338942999634217 3.5432076164516233 6.575742643961078 1.548606544390746 -1.535770311858026 -0.7105390139093763
Ni 7.28068863895778 9.155957179232528 3.1853360864784306 -0.5618102091106841 -0.7140969064639636 -0.11446654118171254
Ni 6.75273890202012 2.8387982475694162 1.151998884155496 2.449938125038084 -1.5523732105220296 1.943614893251111
Ni 0.6201987165406484 0.5565716404532961 3.7671042592869814 -1.2890403105224961 0.06408680317757995 -1.2167619726730594
Ni 0.5439673810286855 6.861059925955984 1.8083783717145585 -0.4588619529812162 0.9165756512906021 -1.2317399341391304
Ni 7.696924252129101 8.475290288783658 7.44278015278867 0.11519082094224678 -2.1247403692129536 0.2970984264857528
Ni 2.0836952295895426 5.568353433205557 3.896858056472668 0.16153366987284437 1.9441684517617353 0.7041868464391033
Ni 4.956830172182551 7.0114351029537705 0.5410786359827964 -0.47321925014415267 -1.441743526587904 -2.01874149918262
Ni 0.6966199918800778 2.008309402921206 11.982254435633044 -1.2138476272397416 -0.4032618471184087 -0.4378642676836265
Ni 6.892104945328818 6.608430735045299 2.099140288084177 0.2741999246210245 -0.4097268860174621 -0.9460590054616997
Ni 7.667529680771633 5.861026734343809 10.816020206835516 -0.10338405811530582 -0.3994812970300539 0.019076557015476822
Ni 0.4643401795722573 7.059869758957778 6.614418449800487 -0.327642617821197 -0.4081214892035552 -0.2348751588794729
Ni 1.3190306775765155 5.896571299144009 13.43746920338919 0.7446788930158789 -0.3879493851310544 -1.5392302453821685
Ni 7.009360517459595 8.046238347448321 11.502616723645737 -0.8225439809244737 0.1121234948708327 0.16297400186379676
Ni 9.086933414746328 1.4908247972541637 8.573549112053774 -0.8295474088255005 0.14332126062987574 -0.5625812829487536
Ni 8.658499238869256 6.885678340486862 3.629253124408031 -1.3502119969358102 0.1649954031691997 2.5442263914997088
P 2.5497116742410935 3.1728433936515064 11.381242407780524 -1.9713414126321018 -1.3663292142126469 -0.7609079532802314
Ni 4.885953111321554 1.6682156875760978 5.755140812759108 0.7413174327428136 0.9046315915548484 0.27628354662293064
P 7.890635215005213 3.5659635142277306 8.731520960112231 0.1551701895486618 0.7832477544280123 -0.9399505785711167
Ni 4.416119429360721 3.7547507941976668 12.07215775057062 -2.465309208177515 3.0073422346612726 -0.226957446694293
P 8.745945322543731 2.947303679104762 0.22591867216368094 0.5731150926005419 -0.7642478162867419 -0.28921413864166967
P 8.580974284046926 7.1410828657697545 12.739038328882197 -0.4808471990030557 -1.9076834694618243 0.4177304730482289
P 2.7912487480429222 0.39735780721232583 8.159712641751716 0.6648931910458032 -0.1847561307358947 -1.1779611977557778
Ni 9.081364305241964 4.192331587009058 11.827669233139076 0.07584085838971455 -0.3265444996610118 0.23948360418576173
