# total energy = -381169.5769471529 ev
CRYSTAL
PRIMVEC
9.21742851914825 0.00000000000000 0.00000000000000

0.00000000000000 9.21742851914825 0.00000000000000

0.00000000000000 0.00000000000000 13.49063834972285

PRIMCOORD
 96 1
Ni 8.011742524849767 2.802881661386618 12.466010331098945 0.4322752036316233 0.9902339002067012 0.1536262421003096
Ni 8.168254456087233 3.014550683114366 1.2186011592206505 0.798250912705064 -0.8783554314671389 0.4802723003361922
Ni 4.57083048182255 5.500076290760941 11.291488757129402 1.1600760899452407 0.8045778833643562 1.5439477054624957
Ni 1.8566665670884999 6.072819628293473 11.981952479220197 -0.4999906047007259 -1.005915572608016 0.28448845103122616
Ni 8.729660356904684 4.505672481709614 9.008576047980846 0.37348718695913746 1.0978780191499415 -0.9254022484432965
Ni 1.0840893856673768 8.047939365484014 8.053681823267345 0.49605424576079726 -0.10886282184168994 0.9148612397026566
Ni 3.3858102571062774 4.085394624424367 7.252135186682133 -1.8105906436718688 0.20401009386950025 0.9411836796472695
Ni 6.2144361955215315 3.686252330055935 11.077324577581514 -0.3318049767290028 -0.1328761540371518 0.20051699311457727
Ni 2.2324518983382196 8.04625257611909 3.5273567718798353 0.6219768512982513 -0.4824641657811884 0.2434006798519808
Ni 6.818334440449979 1.2183412277447436 11.236244101070994 -0.3283396438882216 -2.005383075597843 2.1790353831110925
Ni 1.6720138274842506 5.807846219148396 7.990396804569453 -1.3009182929070047 -1.2799853994090795 0.7777623058334089
Ni 3.370573848252594 3.440137779056432 12.486192811937434 0.3656882597400089 -0.1142881066223193 -1.9449305267387407
Ni 4.800805316002453 9.052436258440231 8.514143980636387 -0.07123472707627086 0.43356306920511134 1.0902966072582576
Ni 0.5236688279270328 3.2263671836936925 4.22672452963467 -0.748722209847317 -0.1685764356522387 -0.24789034019221826
Ni 6.9508534060213005 7.731560359135678 0.8509419126928949 -0.24148803621030027 -0.1885204828743334 -1.142677177742503
Ni 2.8871473902071663 3.8429486098578742 2.90047394793291 -0.9090510607787827 -0.9749769740476305 0.09526374300101657
Ni 2.9268376361381754 5.032181199272352 9.98513583773402 -1.4097188940521914 0.11041653948205499 -1.1126220102283353
Ni 8.591233019842008 5.048385438089516 11.45168950314197 0.07872563613667732 -0.31682804370419626 2.6289151871983565
Ni 0.8158115285041225 4.686619815167959 2.009390135326048 -1.2595489859315987 0.7392824045906559 0.7225134126624331
Ni 5.51828992893086 7.7256704225007695 12.307009694241096 -0.5595342685923138 0.1498606044102903 -0.738055217051774
Ni 0.9947264190391537 2.131567146430442 6.532247590215823 -1.3393267174818742 0.03140628222542333 -0.1753986007803947
Ni 5.03976714270041 5.058377130283946 8.678001280425274 1.2979252717169518 -0.28699887615790576 1.1181411402743517
Ni 6.601181048929163 5.584738368995105 12.719796547608986 0.10802104266668494 -0.1973725339483246 0.29727454705230094
Ni 3.601415120685521 6.733635492502919 8.255622771247861 1.1324860961421142 2.1972884157840094 0.39686905621818747
P 6.784755349431246 3.7281086716195 8.966039460214375 0.8353907549801548 1.284029744681782 0.6884434675619175
Ni 1.4623357702528097 3.443354661506483 8.637893484995736 0.7432835553302489 -0.8093282535651481 -1.949875272338526
P 0.725635584706574 8.507123987301261 12.853353395598292 1.1927614959934039 0.3486526444139609 -0.30227919935574393
Ni 8.173757260736748 0.6970449658424767 0.11980813205091753 0.1679740261815494 0.003044957473910885 0.2501917346318852
P 3.018154697549811 2.903784848150843 10.0645559645374 0.7707781612060919 -1.224170863542621 0.5148132715358553
P 4.01749904812901 4.5658991577229004 4.611491322945508 0.8815068326119271 0.93592243124833 -0.12733234140078717
P 1.3461132177808892 4.522982811913616 6.23898865908085 -0.8749528335434931 -0.6994899551840663 0.6976477597690051
Ni 1.7858490660462472 5.599790429284315 4.464726822054545 0.3781403694604326 -0.43104313099673514 -1.6806869419994797
Ni 7.22177205637063 5.915865260501272 10.106349627589044 -3.5278499854787437 0.21466063160481097 -0.4228289706170589
Ni 0.9482521459355434 1.7297702327336004 -0.18152987492207878 -0.13711641737074448 0.0043449072322570325 1.4498203900587676
Ni 4.765825175893727 2.7816539241875673 6.074159842357191 0.8224007704783901 1.754861468430365 -0.4676062748327495
Ni 5.185328769208187 2.690502776483957 8.313268567358527 -1.181260694442656 -0.8990147595887034 0.2199661029781244
Ni 4.965585280356528 8.008304424122349 6.617697758563109 0.04499456243281928 0.5085256387549307 -1.1299417324537055
Ni 3.6423036322856035 0.5429378616285595 5.370933669147939 0.03979862005417662 -0.7839586644521079 -1.4567464277546396
Ni 0.009681064863292715 8.170051854590843 1.2608907199107267 0.7612038872540955 0.08489448395155057 0.5722020938679694
Ni 8.754565847964969 1.0434681794857803 2.655213852529738 1.1443597076512486 1.115251991652015 -0.7869421725604641
Ni 3.601931296666045 6.147278013484065 2.7527784867913594 -0.6792003516970947 -2.0463366351920693 -0.3710646935605738
Ni 0.9898688343652936 1.1682076356363469 8.85996253098822 -1.1226724524858018 -0.03619316209110541 -0.4996954420578104
Ni 4.8335917081939535 5.6075607212768475 6.395574329744105 -0.4605102872179166 0.4110538323590018 -0.0017192966839518777
Ni 6.420298237468384 8.307474491977144 10.20917556988072 -1.4500674730725673 0.598746162905085 -1.1213462774752108
Ni 1.8020348700069653 1.4983021751814662 11.411069218703195 1.7276617680871214 0.8261304127241514 -1.6081412094212693
Ni 8.27842115821622 2.4014810971033933 10.235468283888663 1.5788267767278679 0.8083887724700143 -1.9744629889802192
Ni 8.239127261698828 7.59361232834063 9.081695140850544 2.9791295196724823 0.758971398379151 0.0403614345361821
Ni 5.486038147576331 7.13557988505134 2.464415853528786 1.712637269653831 0.14908104593178842 1.4341387176574527
Ni 4.188427037108254 0.9672861352173672 12.269033889959683 -0.08435146696388697 -0.4809814105880749 1.6699235328353887
Ni 2.4231697057136263 7.168246450675932 5.9583428567271115 -0.08235449113851624 1.141641280278821 1.9443178328554063
Ni 4.918899006403774 1.4556992219317864 10.250119386050144 -2.056617448292787 0.8798685256775556 -1.2479342845108055
Ni 2.969495893957197 7.932721512688472 12.636356700357275 0.1517321104013903 1.0389545053408558 -0.13298439748024193
Ni 4.3031563662079435 7.056457481179584 4.685230748734655 -0.44662453037475985 0.669629163068892 -0.8627588625804625
Ni 0.871297681181989 4.100234683864433 -0.2955457750772588 -0.4121689198000515 -0.21742328195161262 -0.14593298722110995
Ni 0.848005240060842 8.798754198869116 10.753643524594406 -3.014539780850976 -2.199459455293399 0.08995184386979992
Ni 7.477869082136339 4.946505203933586 2.1338005292890307 0.02032199938680371 1.804722614926866 0.6989574797193641
P 7.986302422952511 2.6289856605193607 5.539863319688297 0.020770142667815843 0.630967741942952 -0.014595895536303896
Ni 7.709917837666563 0.644682599589603 4.688806189142607 0.7826761981952586 0.8965516427601914 0.5416422188032414
P 0.5750108248755492 6.291687461463887 10.235765085077466 0.5259980845080812 0.6972489816686895 -1.332414563743073
Ni 8.009263036657607 7.984440502451336 11.81669228685567 0.2226153676755134 -0.8712704995958994 1.1392151873358316
P 7.8612127045294455 0.5393578125064964 9.072602147907919 0.37455342344012266 -0.5607714834335245 0.130581187355388
P 0.32405712405863274 6.712850191858603 2.9603992140432833 -0.1743552471175449 -0.6420409690379781 -0.6461544769857195
P 4.060194175660927 9.132130142861852 3.1386910064303963 -0.30889207668657126 0.6899809872523665 -0.7101047545854351
Ni 7.8221123740047505 8.182089815850922 2.9825099808661593 -1.1864787483084858 -1.3209932092800087 1.636911339575426
Ni 4.546560993309696 6.307578307721448 0.3974979051733343 -0.33867213616248126 -0.9251196842058712 0.29643662453203784
Ni 2.0797836346700134 7.028067802250763 1.345732537995253 -0.3249838400421112 -1.1512111833554433 -1.260835565953506
Ni 7.859710263728993 2.258297567077316 7.723605718578673 0.5044764083862215 0.2540532744698205 -0.3467939939386672
Ni 6.063436286361805 5.558247480280354 4.354791477373972 0.23807438254306096 -1.3254748992004461 -2.2300229299025527
Ni 3.239253148350346 1.477498439680703 7.361287971706519 -0.6716317953212175 0.192280721247714 1.8628262039378174
Ni 6.940520668982597 4.798851221219041 6.304633339403994 0.6520250768338836 -1.8301904201806671 1.5851617178069604
Ni 6.324990029635911 0.882057185147448 2.186252304595674 -0.18520993044386166 0.10579626710122424 -0.09995369227751819
Ni 4.679190568019703 2.58407835021377 3.8784642825463944 1.0970123287155367 -1.7492279242936715 -1.5811934771878318
Ni 8.596127474228762 5.389338108082089 4.847455641985135 0.24284917822388496 -0.14930884567187835 -1.8609318151285823
Ni 3.4541206176716988 2.2236123846717457 0.9958979541663788 0.2784934097900559 0.11012086261850713 0.5212672546913152
Ni 2.687811287442653 2.9040798058539994 5.133551709647516 -0.6160070068680616 0.20221854918671625 0.35750340993637136
Ni 2.6659014605550526 -0.01498200783471006 9.848314176667902 4.367246519184182 -0.7716921883799291 -1.2703859286461023
Ni 2.273368062222973 0.09491001493321186 1.3912629464487618 -0.2353443852064076 0.8045115489027952 -0.700465174613142
Ni 5.942982934335231 1.1685302456241746 6.6690157901982445 1.368947111451468 -2.792811443766106 -0.2097423683675872
Ni 8.84558795167345 6.176930480079526 6.96429886857113 -0.45559562352511856 0.9554882691953996 0.3785435184361223
Ni 2.8119147410457885 4.742809257619289 0.7945976174474072 0.9367606108789092 0.47488712476487893 -0.23370607827203624
Ni 1.8984030820851574 1.175784361636182 3.5004695337514673 0.45442911402084313 1.0684622849919858 0.1119237201552008
Ni 8.677849192859584 6.05181310937179 0.25700494244573846 0.5832560376892858 -0.07122264289141282 -0.06998619938115043
Ni 5.245398748941672 4.126909921143658 2.2228528685861173 0.17045462651155804 0.5164518355805429 -1.4037750177639308
Ni 7.207770782898915 2.9796719347161 3.454884742471439 -0.2903423387088419 -0.22782365134933022 0.8441229926468301
Ni 0.9858131659468905 3.69678785051556 10.835626096443956 1.2912337186293892 -0.7504453631860108 1.0083185256225538
Ni 0.32706200565954047 7.880265128667717 4.775253683223692 -1.0119895467162376 0.3686198315645071 1.582191836545359
Ni 6.496268280887653 6.910988028954043 7.896461993542304 -0.4840057992366955 -0.7800557298532759 -0.7229826389893678
Ni 5.738365245198571 8.916912411268001 4.382366335647824 -0.6772105749605757 0.6437026730111172 -0.17862250703433108
P 5.448689128414128 3.840616600517292 13.406604637666286 -0.6345978824963716 0.6792201491914367 0.08311990854963104
Ni 7.105282198480223 7.391492562252576 5.301145754838267 0.4760839732864575 -0.5140936197610113 1.088749574486112
P 6.22864946984239 0.30827965216822223 13.224359490314052 -1.9346674542498359 0.45977238061062753 0.04576949292563085
Ni 8.220950493241803 8.906625761370414 6.8487381274456665 0.15271864268437568 0.180309922039083 0.8848747206428954
P 1.3371630949757314 2.5076474353833182 1.7368114261536418 -0.18918845547563548 0.06637405654985988 1.344837362887458
P 4.382601380067527 7.441275892088475 10.313579535884285 -0.8178712580391527 0.671644650837024 -0.4434934409449459
P 1.762713321204902 0.0008544555963317477 6.500585724267609 -0.12667311055023345 0.8072292049442743 -0.836966584107707
Ni 4.5749506722385185 8.693850648255829 1.0515666119230733 -0.5542709633108455 0.8267693318597309 -1.0527173634529032
