# total energy = -381176.4898215337 ev
CRYSTAL
PRIMVEC
9.11732145022989 0.00000000000000 0.00000000000000
0.00000000000000 9.11732145022989 0.00000000000000
0.00000000000000 0.00000000000000 13.34412153538742
PRIMCOORD
 96 1
Ni 4.47787224003528 4.931212824658521 11.624251415426176 -1.3830192732738182 0.07191684074496002 -0.9233096275803259
Ni 1.0820802032344146 1.0074275735279388 6.587645999371102 -1.1395535445118568 0.05757651286288794 1.3546895730911894
Ni 4.708950757366819 8.191038243626867 4.090734351409188 -0.10357149153576357 -0.2194724511711575 0.3031934836398972
Ni 7.28058250321545 1.7782788847667181 4.924394891525338 0.7120757622688768 -0.08804742775823546 -0.38374280324887455
Ni 3.475568601277131 3.1569820307063705 8.457183803505675 2.1150588802591312 -0.4655486209727724 0.7969735886545372
Ni 9.077059562004411 6.634948487578617 4.542165768877992 1.7158215809190838 0.9974494441185338 0.9616925982338986
Ni 7.323680082675941 6.996559699036634 9.382452456409045 -0.016220061403288195 0.7877153032810628 -0.5176024042452183
Ni 3.5621193357426386 4.9394822353990895 6.46334590632759 0.38312548137984986 0.3393725046636155 0.02258585572031594
Ni 1.5050327547834397 8.572899026479375 8.59807103983509 0.17021602813819073 1.3186758740007418 2.305494577878307
Ni 1.2168524519302044 6.619631387199174 0.20902736317813256 0.009902346715376495 1.3731824896890543 -0.6181168541222128
Ni 1.1819057580287728 7.735226864835274 6.62822537459064 -0.6904440429317141 -2.5369383424787277 -2.066854809750079
Ni 0.5266046462417477 1.4962710086735322 0.5535609194452366 0.1435331195303657 -1.458824650439907 -0.6151868249596114
Ni 6.4919980013588034 3.614170125067782 2.9862811525669666 0.09340920629078107 0.6911904341794354 0.33952728507392493
Ni 6.773258257076326 7.19886394922679 5.696472482526639 0.8532761199010078 1.3672085314938067 -0.8119307241850017
Ni 1.099202533301435 5.241748800208421 6.140564456063626 -0.24200277106318963 0.1837217759341094 0.830558366588518
Ni 8.199079721326076 1.57249181770457 2.774643500199171 0.37150512353210213 0.20715609569764967 -0.09660431618931103
Ni 2.382611433308981 2.9627192582154227 6.611265332849069 -1.2828233830785067 -0.29942218952292304 -1.5472520872453803
Ni 1.780631153753561 8.519717689269083 11.01668039423226 0.5063337733099345 -0.598344299480976 0.4841322975122307
Ni 5.825850011999502 6.265140803953267 12.850722641701804 1.3684218350756174 0.4978997836099683 0.5372530885966103
Ni 0.022134121780460623 3.3187233168559653 6.72055375578856 0.28112030588994164 -1.6143427102462906 -1.7532694413528964
Ni 3.7479668203465475 6.639115103574692 0.5742681803867788 -1.3288507576512145 -1.0758022702968246 -1.598079711420209
Ni 3.548525409155883 0.8534651862139039 10.2724653382069 1.822187604480849 -0.869555573787322 0.7216117267837701
Ni 5.706285455823302 0.3363926997618631 5.989962713511415 -0.051895660428026756 -1.4165215187963216 -0.464542034085129
Ni 7.027704469808169 1.9193785546906827 7.240974122752108 1.6383318740720365 -0.535065079806356 1.2155283573762743
P 4.316085367277413 0.1924238087132494 2.0523127513409394 1.5371900750236882 0.196425596654023 -0.4195155899731098
Ni 2.992086151264343 7.619208946782648 2.3927079553090973 -1.2451078708056043 -0.16048131734893006 1.3135169555076218
P 8.828266088698316 1.2043981905502525 8.665979586713785 1.4224314565228537 -0.27107886249353963 -1.0766790164748232
Ni 1.20659546506897 8.766997687180542 4.319385837716317 0.41520102175815593 0.018029603808201206 1.5509945850069482
P 5.548409914055186 6.925253126377335 10.623709243211664 -0.27710835651707116 -0.4535464543055737 -0.053682062904488195
P 5.859429107652769 3.6598023199482057 8.01964353730956 -1.2380982722569902 -0.234031579932255 1.089427060169111
P 2.5242216732455938 5.261396628373717 12.392912746003562 0.38008669455352606 0.21866538188882986 -0.27751099127212847
Ni 9.124159645671199 5.0165783073089525 1.5422068103650488 -2.524062514957324 -0.710230481530022 1.0532963758848248
Ni 2.613142911341253 6.469897613668464 4.750147375262362 -1.0307483153809796 2.419557455863697 2.05388436563234
Ni 8.232996157880555 8.610425922409009 7.5640217988083815 -0.8318269488882964 -0.4736589087847326 -0.6546761413034854
Ni 7.898317514589725 7.248279832593802 0.8225529071445576 -0.15124797167612017 -0.10029179234322727 0.9774166938373748
Ni 4.476130831599284 7.337018724256373 6.668484731820108 -3.0217856637801117 1.1461947039774583 -1.6405304243852519
Ni 0.4093121266218318 6.582533005387297 8.694535949867626 -1.5866552716333513 -1.7588983575038997 -2.2388634110123182
Ni 6.90684525395704 1.198727216481197 12.400532091710168 -1.3884548424670926 0.285995631704372 -0.4046366159787483
Ni 7.160498259704947 0.3050008495734939 1.1988648880381787 0.3745367112695743 0.11946245173440716 -0.07530606893216708
Ni 4.600618741468876 4.5051056798170634 0.9493648223038643 1.2502719315050468 -0.3194701093127337 -0.06026485832832848
Ni 2.524139617350704 3.6843096805553146 10.57013221424157 0.3419163541313918 0.3400476763537692 1.7970352735849373
Ni 2.1424247116446673 4.667904575278572 1.292343875228888 3.7478271442004614 0.4631011878735444 1.394898026989275
Ni 7.344039061930285 7.9469219563294935 11.959669473503181 -0.08941191220592988 -0.8023603068877473 0.5979360082989638
Ni 2.2070391702096153 6.115552907569027 10.075893148140883 0.3027808215825108 -0.40960167329350744 1.418647564000389
Ni 0.6356696948007056 2.0587276988569965 4.627541280582244 1.3289525733364016 -1.3228148358697798 -0.08305254564680535
Ni 3.8502814039525655 2.9581788320315163 2.6560672616903114 -1.1250412098282947 1.1804986194656506 -0.17615270533759983
Ni 7.339343641278253 8.287472154765778 3.3198037194720156 -0.41952458883417426 0.2836279028031438 -0.0625942777924535
Ni 2.957166809327875 2.65032334904802 0.3832374984223264 0.8286328674310309 -1.0414705868944902 -0.23673355224445036
Ni 7.780612892031029 2.9832332319378914 0.6949067570538707 1.3149326049082257 0.6659627699608983 0.5350506816286528
Ni 6.62921369225798 4.994514388905231 10.490427676606373 0.691421576353635 -0.4894899622797183 -0.26241861571538033
Ni 2.7229792853121757 8.74495200342013 0.2944302268473473 -1.0562073788840325 1.2335664458249078 -0.7788151725779555
Ni 5.155498937357509 1.3883583895716942 8.783060584471318 2.2522172066114052 0.12471624393417877 -0.805630750108903
Ni 7.978559062470366 3.9555408824529636 8.437794907275363 -0.5802912986340071 2.3186987352734065 0.4178777972593707
Ni 3.8145962069971246 7.740624319254698 9.27714009744305 -0.2889405732653088 0.2593111804346502 -0.279209462020474
Ni 3.3128335270672036 0.7151864156098202 7.792660520865193 0.14114302203163434 0.18528474954585508 -0.5994776417544707
Ni 8.729671372327305 0.25167637041322694 10.690776261301654 -0.20407360011758405 -0.05090732837282846 -0.5346966407233437
P 8.042571777806122 5.870862229007425 6.788288161823654 1.1100434508678818 -0.48011057794734735 0.3889567433496463
Ni 5.14379229635322 3.0614507344112494 10.245923903138687 -0.42489433778651986 0.41350769321613295 1.1538146824165614
P 4.658714315050907 1.5169673288290892 12.086784995473579 0.056269364015690194 0.39379170284444437 0.41264046011983124
Ni 2.3085605468316976 0.6265851955042312 2.550982835765678 0.5821910867598813 3.847438365536896 -0.2686116318999696
P 8.976595794694243 4.626420761750914 10.289425379948469 0.18302886363214282 0.19964976001827553 0.7978541914872775
P 8.24932528096364 8.906064194375569 5.127812366689501 0.19934534140397928 0.35512771061534326 1.0623006362659642
P 4.83271839882571 3.438643448576688 4.658926748645455 -0.11379625458756532 0.33741255272376725 -0.6891091261703745
Ni 6.110027810646442 9.040499102170145 10.363551940195485 -0.6011953957765259 0.7962163987735384 0.30790117352821167
Ni 1.0100989487726868 3.846835056367191 12.9472677841649 -1.0443599926271432 -1.01725259488739 -1.371733930167986
Ni 3.7156732670465553 7.326123524879329 11.67845480439393 -0.13515569409994788 0.33228165925510517 0.3106180582387425
Ni 5.426447502283871 1.477243158380736 3.476490362496394 0.5956682953107096 -1.4685053680627806 0.5496458058340081
Ni 1.4022987743813182 4.082308122736164 8.564230277050342 -1.1221168370926482 1.2734167450526264 -0.014964077509000034
Ni 4.2091118323059815 5.337763314551227 8.968918098129047 0.6847873588665689 -0.11982574861109685 0.2872462162820214
Ni 5.343616635053371 5.601846536271802 4.781078800707182 -0.7873684614646053 -0.01740354018842809 -0.8823599246408417
Ni 6.99502798899869 4.030375858592528 5.697980487528281 -0.6449900243639731 0.3276189636721132 0.6712417589716504
Ni 7.538402124959431 5.876733784152878 3.3578484792716226 -2.618481907680174 -1.1846954311558175 -1.834920221556169
Ni 8.682616875268788 3.781728262432903 4.1085486861897795 -0.41121632607879505 2.172860364648632 -1.1641129790187756
Ni 2.10892767188629 1.5307436018489333 11.798338466828037 -1.2931563895733986 1.1007558549183687 1.40416556833413
Ni 4.875515106671607 2.310374893840929 6.541275301436668 -1.3976208252370768 1.7752971105768975 -0.5899537614244356
Ni 1.771222077806189 1.800370155135403 9.365545295133069 -2.395007020217843 -0.07508238295713522 -0.7198374084921667
Ni 8.67053642407667 2.390424977966828 11.715204904518608 1.4807307064843789 1.6187305549013413 0.27404874375514093
Ni 5.80899208426046 5.707242774597018 7.190453220000578 1.808209545034202 -1.4444241587438607 1.408101927274059
Ni 3.6400542012447095 5.642081276732804 3.1423669640943186 2.1566973817355244 -2.684563886910912 -2.607194764802129
Ni 0.5769842305076337 8.449021977160628 2.168526691809136 -1.76320186997526 -1.2753430155410617 -1.4614194077502767
Ni 3.13786300719703 1.8533964978775699 4.6540690396679745 0.0008772603986307472 -1.2359768550386132 0.41290991173113406
Ni 5.420986226612867 6.924222869030384 2.054541024753282 1.7460634105227604 0.22845999938174846 0.44566499467496795
Ni 5.718037683435863 8.354466234282532 8.162225683734537 1.7396107129188816 0.12704823450146507 -0.3875693760838164
Ni 8.316911986387932 5.501200422528545 12.570829984232446 -0.9223572909693857 -1.456315510864808 -0.3880149482616672
Ni 1.1607718064338033 2.8422794391603974 2.3690621815983324 -0.08009680545259108 -0.2637743584123264 -0.1487627433604212
Ni 5.14381053099653 8.751562061619593 0.013231968917074803 0.043812883419892285 0.1002406273903177 -0.01710092134634474
Ni 7.4729579901239305 2.216265899723899 9.794892736090512 -1.7741614543105575 -0.13946203478478564 0.7763713390231533
Ni 2.137565179202856 4.126481546151879 4.120103979654605 -0.43550785163630795 -0.19369225688325997 0.8559696075727711
P 2.7900645380454745 8.903174003411115 6.0121807146510955 1.8300508092790093 -0.2616388001265623 -2.2710847329398693
Ni 5.662513194560382 2.2639586092982245 1.210753875475556 -1.2718915666573514 -1.0686227218292499 -1.1681059022282527
P 0.19979151634219458 8.552111533107274 12.81642874803083 0.7204840409372302 0.31223553923750746 0.20764177708481657
Ni 0.16967244425678382 6.812253041792324 10.919241754247032 -0.7101338080511577 0.06463599081283063 1.0065917727394342
P 2.412115086182718 6.292638646063029 7.876941953970913 1.0132303611018745 -0.2808621671325485 -0.5474904500539022
P 6.9917731051680585 5.234974630219178 1.1552676793510237 -1.515797725390841 -0.8111359961978483 0.3156309380723016
P 1.3337273982183475 6.124250832427354 2.734143445678026 0.27467866402965596 0.9026500423484454 1.3475295650076407
Ni 6.2171654574076545 3.666840892265426 12.479476244719384 0.01983503244805616 -0.7766837280572494 0.17921566053363971
