# total energy = -381176.44052062865 ev
CRYSTAL
PRIMVEC
9.15811423347107 0.00000000000000 0.00000000000000
0.00000000000000 9.15811423347107 0.00000000000000
0.00000000000000 0.00000000000000 13.40382589706771
PRIMCOORD
 96 1
Ni 0.14010083314105234 5.468575656470351 10.405416541499827 0.7766413048550883 -1.8107513376194495 -1.3614736858925582
Ni 6.327542674564137 4.366350805333513 1.9858436814053575 0.6401141843289104 -0.6126332052998223 -0.0799260842026817
Ni 2.636401323134631 3.929810969189276 9.211685643521651 -2.500078750448217 -0.7726900335168241 -0.677913257454555
Ni 1.3830034786222303 1.5075996241892333 4.567018827648206 -0.5542961601218259 2.1087406513505877 1.0606571871252701
Ni 1.4463959460691096 3.734697343220514 3.623080993104603 -0.16461102324658747 0.9083892588250678 -0.3007905306253594
Ni 5.956684834451251 7.2508179715385905 10.011250384585576 -0.6517965057628452 -0.158675631598759 0.2563564686817004
Ni 7.919012309859773 1.530027846202728 4.641315861837212 -0.14703239093287582 1.775920088872877 -0.0874452753978623
Ni 2.0399882849938353 9.23330245660481 6.584548668851231 1.9513220320873814 0.02470958693153809 0.37650231963637737
Ni 5.019388464425488 8.678980111960959 6.402122694486183 -1.1162621780840838 -0.4567482490723231 2.064041508671
Ni 2.806027916901043 6.59719419312899 6.459853615649379 0.338225792653682 1.3822443427810065 -0.5343364291704474
Ni 3.971132381081839 4.385207362755231 1.6926484825006534 -1.414788852375931 -0.597388620435926 0.4937325396061561
Ni 8.70463199022139 8.48424196868005 12.724936118806234 -0.43798613797347147 0.3626121919178465 -0.09532210704277777
Ni 2.967934220280613 5.083513581019398 12.896075633061265 1.706130835993881 -1.2864830913182812 -0.15080008550542418
Ni 0.24492644147541714 2.98848502885484 9.39661819378098 1.6126648083232356 0.8386097761380847 1.46577717049834
Ni 0.3813200699324913 0.694784923301249 8.594104539900256 -0.44229145021704475 -0.032642211515053456 -0.49436117432909055
Ni 8.418752293049794 5.737879166690366 2.198201120860934 -0.1772996744578495 0.8199677355568652 -1.0649676415751659
Ni 4.823130074164489 9.130163772931484 1.9055416716449964 -0.07325792815388674 -0.6964187724579103 0.7063509439699577
Ni 1.8549760591397666 3.279365056454925 1.217102405768472 -0.4030556446448736 0.38445911258960885 0.29405681144595164
Ni 5.2589830517333835 6.427750761649337 7.456132821068329 0.09661100105753039 -0.7201251149359146 0.8221354326321455
Ni 2.993393778139949 7.395113221046397 2.38614943817173 0.689208113642084 -1.608400890840559 -1.6566576689644177
Ni 7.515460001560618 2.6337179956336287 13.497786640346531 -1.5318974591661811 0.24469651584526889 0.36643953608373664
Ni 7.67809895408722 6.347443257020373 8.533532771669446 -0.6327302331600134 -0.6505016982108216 -0.07227576674627552
Ni 3.456913419123613 3.137634078961728 5.027547428489114 -0.9570363304088099 -1.3074044148519808 -0.18513768244502954
Ni 7.095157502137461 5.334720657307741 11.14021509796619 -1.303564215170284 0.23762289682793916 -0.30057661484234044
P 2.4589170672663085 1.2553393647520334 8.631272746940585 0.9826697147061979 -0.509959800098296 0.8291661142266817
Ni 4.679045461286454 4.902686613417745 9.566324463142134 1.9848039658949104 0.8205081814413676 -0.5522279647388877
P 9.067815330519124 3.295968717749521 5.612919443984149 0.5540310793858974 0.14074732925511244 -0.7109570752834014
Ni 0.6954992562196044 7.518912610666003 7.870539326480751 -0.4170879543682236 -1.0933690755359944 0.20700388639050155
P 0.7445528640476485 0.8095067899891384 2.6286645481419804 -0.34731798476293735 0.9103751789068452 -0.9731800300482079
P 1.7692194764797577 5.545732769767081 2.0003336499107682 -0.5384247403072082 -0.36774565648966984 0.2918472053891425
P 5.726642160397774 6.824040685278544 5.457019031987367 -0.8154816747610536 -0.48134727856792586 -0.5365331797114502
Ni 3.4609796218896363 7.835517781441223 8.539524010069295 -0.20266026470982518 -0.5989235690232136 -0.8592058551218815
Ni 7.529691711241701 3.9249205361328423 4.202729187138456 0.21808791211880504 -0.020408131342706786 -0.9880667173520533
Ni 8.962203955974568 0.3248419788107192 6.144220120805409 -0.035194288512945836 1.1337639344132733 1.4638241605370272
Ni 6.672986747389375 7.0213522586884 12.998561343182299 0.10551653107727636 -0.779066112246497 -0.8863716169033959
Ni 8.216971559843048 2.8686236284005258 7.579608929251807 -0.9042009317753331 -0.5325214874488958 -1.7593022778105378
Ni 4.454909770980916 2.3643870110706007 9.338298405865858 0.6672030701259025 -0.3592047088981942 -0.8504736174552063
Ni 0.6180518306983639 5.320287469111225 -0.02269289151785943 -2.2898442729355595 -0.6886740955154849 0.8398377350079149
Ni 3.9864081157974405 1.6943976823391909 7.087098361520117 0.506831024661327 -0.057754176091332786 -0.06994866127499566
Ni 8.130372430663954 0.708339848332761 1.2793803307004303 1.0188667334520454 0.008757691587972013 0.6594825615531932
Ni 7.647162843853825 7.6432523290315455 6.140574275487494 -0.3612651909716488 -0.06891482069384261 1.2325434038770322
Ni 0.43629897773715076 1.2076622215089745 11.111691235049392 -1.8640359079752027 -0.6069230422889225 -3.080623559853927
Ni 2.092052165004744 6.9604416402270886 0.1760674955802506 0.4728567245984115 2.6352514138290295 0.5509308431940189
Ni 0.5767661354517187 1.7874990726981876 -0.2899852798292733 0.23829086942924124 0.5766395608140327 2.699456230641712
Ni 3.5920230799505144 4.196367045107923 7.054139223829483 0.35129368158123375 1.0880427782270747 0.8370655715794165
Ni 8.747125640749205 3.5595209321653405 1.9872512835790914 -0.30608160382096966 -1.9174140664860269 -0.21694839919772313
Ni 0.4250097701928328 6.590188235660505 3.8351563626385725 2.6840452954032807 -0.24441806537290162 1.4061653723729781
Ni 7.2673666841471585 6.530807022293621 4.078998483376384 -0.3863362750076637 -0.4193993761102196 -1.3105768990426911
Ni 3.7177181992380643 0.8003578337655856 4.896940812482153 0.21131639772292637 0.39075034491495925 0.24637313221674345
Ni 5.531033996254766 4.165696520190327 12.897992426392184 -0.08547092528031087 1.1221176084235964 0.4506783887291593
Ni 1.8722665790097044 9.05059807556389 12.31654832613667 0.4138383370826743 -1.3762143345368427 0.6051551517552223
Ni 2.0507215949978432 8.698917326874547 3.8129598409178267 -1.5827608216749516 -0.5308597834757567 0.8129887331358707
Ni 5.071223391577949 6.079028083891133 2.986533434689435 0.4196688277215224 1.3059728246117766 0.7317272179512173
Ni 5.3479907649833445 4.582079346676868 5.203298053313273 0.42236102984170487 0.6507765491387631 0.013532744379112178
Ni 0.45493024554615563 8.020026311006708 1.559361286426992 0.2356007241915878 -0.5928539657903661 0.5374104401100809
Ni 7.405983902765472 5.1802599008848755 6.129503031064418 0.5791034489734931 -0.07004302076101486 1.4458614054110197
P 4.753226187423369 6.208029282454663 11.87989126612891 0.35849996952168584 0.06675406559709793 -1.1324094772679079
Ni 5.036294343493234 0.9223503274263266 11.56157719121824 -0.6869383437713007 0.5620997153266448 -1.524355128042549
P 6.880903417202508 4.11688377076937 8.94134360313572 0.8080553003899955 1.0288259015472863 1.9419470186303847
Ni 6.6348615174007355 1.013757466632814 7.056632062552256 0.3426174939634744 0.14373520823884278 0.08808959385008054
P 4.970209390431014 3.3750581931715455 3.3566934264897728 1.1756096668044655 0.5812428639139989 0.6588292442399105
P 0.8859678865961882 6.883577586589172 11.700079017595895 0.5673429660034552 1.4126656353853413 0.7708388392406983
P 7.569208974609699 8.54085743151689 8.264933520442016 -0.0019416971074031073 0.43020289448362686 0.6060483529934529
Ni 1.6783251916761925 8.31899295356715 9.956590179159875 -0.7088773099362372 0.294657421144428 0.9602702639650752
Ni 2.364405327299276 0.7255525242308266 1.1053816531491092 0.4161428168461349 -0.26147656351708515 0.1542358506598505
Ni 4.081579239996801 8.241460357582568 13.163951393256003 -0.23304607609053413 2.1537141307374843 -0.04167938201665725
Ni 1.640557128146731 4.737748974192334 5.823667802750558 -1.5580129253063104 -1.025560343422137 -0.3055642978649189
Ni 6.1769283261631855 0.27230370847710766 13.309275099003955 1.347904431848556 -0.4320623162898688 1.4182372159358478
Ni 5.827491315486627 3.439412262623903 7.334828101794363 -0.7993824552063459 -0.571417650293461 -0.6481391115159161
Ni 1.3578369804217065 3.808530061012589 11.884663559510384 0.5579026465261618 -1.6352961725695063 -1.5314940530801755
Ni 5.7103956655623564 2.188908382242276 5.118398670155291 0.013620161886595898 -0.5276129944036848 0.02248635402797418
Ni 6.917023020151149 7.761520217591066 1.7681525561593936 -0.05715536616506931 0.16259193593402965 0.7806383418296233
Ni 5.179820311396656 0.08592417615239216 8.947952098441943 0.9146655787520828 0.6407595312223933 -0.08342484138455955
Ni 8.330990083349787 3.3478952260453614 11.485041913885052 0.42362858370021883 -0.30673569246520077 -0.3261979149548705
Ni 6.1016669425344 3.049533019031219 10.976285767129378 -0.011880296377353735 -0.29860509293826637 -0.9616103229327375
Ni 2.7124594627108136 6.012338695282613 10.607331898987342 -0.2585102817999096 -0.17794579268228064 0.10461613075019402
Ni 6.078194695486386 8.906559253257543 4.379405697322176 0.9524615665539338 0.5983476419150856 -1.2760510973516797
Ni 2.7678935287980657 1.3945976513739997 10.82900497234742 0.07519319750338664 -0.152265357197041 -0.6007410818479267
Ni 7.447689955460227 1.4830467196493484 9.411415874928144 -1.024742475506532 -0.5211165880460638 0.5598512856121003
Ni 3.3522453303558595 5.327668909267565 4.488110682890071 -0.7975901391926136 1.6747795753761092 -1.6839008209510868
Ni 3.855703507967064 8.088391634539063 10.902564778332223 0.5772286005482833 0.25602531059452677 -0.14223805486802601
Ni 1.644174583310198 2.575454072215968 7.16758902843584 -0.7861011647164075 0.5281786370991678 -0.6823365833332313
Ni 8.440722609346395 8.68002413699548 3.6870577482462403 0.11069910371948033 -0.3061307118913502 -0.03603709612921535
Ni 4.594195531945897 6.353734881570504 0.6580178416689191 0.9624405321435165 -0.33567962919306066 1.0494083536843282
Ni 3.653345813557031 1.876131303260294 2.902276951157973 -1.6397233551029247 -0.46260110830867424 -0.5044812934822279
Ni 3.977350740717267 7.792163268165649 4.5019028030829356 0.5273026622521176 -2.0527613077714904 -0.3335193883169482
Ni 0.153288517787615 4.914583003942666 7.600894218595934 1.033126071584537 0.3473097572328212 1.106362916692501
Ni 6.619137035082577 1.6925477432429368 2.674586080866466 -0.7444978873533242 0.5122416541539372 0.31894997514320556
P 7.595520237102459 4.97152815889567 13.757419181825732 -0.170092615186449 -0.3369469259412584 -1.9332471768635417
Ni 4.997170879041764 2.2372540678320014 0.9847198335016638 -0.3099459718723824 -0.07555957970386987 -1.1257971141577126
P 3.237210256157614 2.7569953727359757 13.10512149837226 0.41699205222030766 -0.5928403389436113 -0.20633051447256076
Ni 8.348894196880364 7.612114740282718 10.493292311817624 -0.33719169496221285 1.264146118383978 -0.5646003702613115
P 7.297249611231696 1.063018963656328 11.594416357611047 0.44330883573796553 0.6149070889356636 0.4875456940691538
P 2.3586265571520673 5.882293471684565 8.392322890882076 -0.4980563637924906 -0.1401768014636231 0.28341115880664736
P 0.7846654048476098 7.6802144784992725 5.710941489176895 0.5800107912791107 -1.1244747958018635 -1.3959688914559505
Ni 3.680279827824767 3.544062035162981 11.15991878096416 0.785778491269666 0.21928296086817073 1.817656806490031
