# total energy = -340874.80593919504 ev
CRYSTAL
PRIMVEC
9.18459716422247 0.00000000000000 0.00000000000000
0.00000000000000 9.18459716422247 0.00000000000000
0.00000000000000 0.00000000000000 13.44258634314590
PRIMCOORD
 96 1
Ni 8.748402130022937 8.339265071558335 10.017078781328738 0.45838758444795896 -1.1532606096853042 -0.41363316305040376
Ni 0.981309898476486 3.2717830703442083 10.368441050753567 -1.2202877264381307 0.03235861883636363 0.18475690206684312
Ni 3.731334381803742 8.8825248001787 0.4709622547863516 0.22194816640515969 -1.4702565464259323 1.6466856453533705
Ni 5.776744136216417 8.249412158996956 12.500744440570587 0.12127456524248145 -0.35280908978449554 0.17124164118922766
Ni 6.766558971525351 1.459606972436048 3.1806773787504894 0.8178311488298368 1.5748166271272104 0.8382004565148081
Ni 4.35645642358567 1.9393827665144265 9.070492170313107 -1.5314755411374141 -1.5190959365261387 -2.340661098477111
Ni 2.5258009164908097 4.597506172146787 2.4759496792926696 -0.9419328991084681 2.8469311084286453 -0.4401780034184677
Ni 8.033895590127205 6.884902504015729 0.2018462146781571 -1.0529191950510641 -0.4915851542458502 -1.1826688876440923
Ni 9.06832919771695 5.159309602132931 1.59482812039436 0.6605493122548108 -3.243455379712904 -1.1896736010966995
Ni 8.41878531248202 4.646533550993015 8.197826869883086 -1.9303480009388756 -0.4768583895586368 -0.9473754102802782
Ni 0.9406588721045483 7.986650023101166 0.6161615489377211 0.12394594142705749 2.0680069210766514 1.9509530787837368
Ni 1.9439658804230568 6.0056426629316055 0.39030312383326626 1.090635221544599 -0.9481413419120251 -0.5521500603131008
Ni 4.234172698977451 4.348805654275272 3.986062750693762 1.396611667246272 2.546218225118757 0.318452980902129
Ni 8.0246926239219 4.274557372036062 12.423704959299648 -0.14742731237844933 -0.41783768805005456 -0.43235002273361667
Ni 3.1054316492758542 1.405234158129254 1.9857392645497731 -0.5540717028158457 0.6277263521875188 -1.2013944890780535
Ni 8.3040696958111 0.0434514100006777 12.888778050482365 -0.7141383012248604 -0.38657770159450844 0.3312521895493263
Ni 2.1214582176660963 8.924075917057744 3.64831756479786 0.4959254334924168 -0.5953877879558134 -0.9065807448614194
Ni 4.696562050913472 5.664462437753485 1.4139714652660873 -0.1024054962521204 -1.9409507161553865 -0.6098978086465302
Ni 7.557159897659561 1.1004708601008688 5.465325679193656 -0.3575422335941068 -0.16215947638230138 0.45258229062009153
Ni 4.528116541726545 5.530091783478418 9.935240348119406 -0.39148876574288066 0.10333495004492527 0.09225812340547337
Ni 9.106399352328717 0.413671494009073 3.596940766036147 -0.9040546360054559 0.0796437770755725 0.17129177770087273
Ni 6.188801896530607 4.817615039522178 6.392474009094608 0.43846359183052225 0.5364753298903213 0.8993526025440963
Ni 2.753413599624419 2.3974186194670986 11.612001503072314 0.06921769664624208 0.43802547585183915 0.9483308322150119
Ni 0.9176413535345727 7.58127864941119 11.84208484280196 -1.0636064995615813 -0.5574107944914078 -0.10581940702967582
P 0.9695444297050327 4.477068551537836 12.323073922145529 1.236149890281368 0.31411861519283324 -0.28266219645576485
P 8.55309167457801 4.901543887011281 5.995810551831028 0.7996614198993454 -0.5200999738560914 -0.18427070645904392
P 5.997036695532034 6.3646777446996605 3.1902348704004306 0.35562341930483915 -1.0433567481736095 1.0029516048836855
P 0.7156105284564888 6.643935416827714 8.58294345178408 0.24951913404489284 -0.6028403875791166 0.6271578812785586
P 4.015524182526853 3.3661180662470933 1.6495536232263872 0.8451156955774026 -0.34355029019038896 0.3335785236896578
P 7.637901689985748 7.283477275917357 11.532180007366659 -0.10439090211326538 0.3038223754731477 1.4734210601968432
P 0.5260918798868753 3.2189808221263436 2.5645498128217104 -0.349006942429586 0.15617137711966653 -0.49641831396843544
P 7.7635653462941185 3.6015376568402933 10.116943823092118 -0.996832379359825 -1.8874537726785106 -0.18523204193104872
Ni 0.12383132920462007 2.187890407848705 12.621431882218243 2.4232012232638716 0.983477298209158 0.3321003964822345
Ni 0.7804234741860079 1.2740230052260682 1.500233200396055 -0.5693237438789098 -0.10599784158906907 -0.5206134231574001
Ni 2.1373751242866494 7.824808239165352 9.726665497670782 1.1260951050141057 0.9123173902348805 -1.4749917471180727
Ni 1.1580215449735667 6.398513800089227 6.282257926499513 -1.391084823890772 0.19414991324596884 0.6033296685107093
Ni 3.560510061990893 3.1473685192293717 5.787759223412048 -0.36872730367664885 0.04039048800190463 0.9777378246222194
Ni 4.564974329532824 1.2709186114362545 12.397062280289317 -0.1952251485880186 -0.7735258991545582 -0.7730890687274555
Ni 5.099205599291097 6.837500798840499 5.215306253191321 1.4993565491156824 -0.6102042841433556 1.0203196638484882
Ni 8.411456004067018 5.5805060364733485 10.3816558489334 0.4747128039705438 1.5973407763716556 0.0667383818678141
Ni 7.672683758867476 2.2879565922866307 0.8267955860362735 -0.17440924028393187 0.317927190305646 0.060274371410025236
Ni 5.911114790491484 5.534390174879698 12.197883272583237 -0.09961996308718328 1.289154210392541 -0.5047854549862081
Ni 7.537514044652427 4.8969424039086284 4.06376076757041 0.07449540010541364 0.7653850152149786 -0.08369506432681069
Ni 4.254360443208251 4.096596620345447 7.96569995731843 -0.19111266908154184 0.5455407825266991 -0.5931498997642302
Ni 6.979522222425965 8.363944083727652 3.6429142663761227 -1.382944968392457 -0.10502313638062558 0.9727413998488924
Ni 8.021652522311165 7.098214769602772 5.350727625364478 0.5499476533451431 -1.0682573680700311 -0.17635068028101886
Ni 5.931899533528017 1.1173337802135839 10.157715167684902 1.6707092619614776 -1.73789604422062 2.313581468651499
Ni 4.536621478558994 2.088292637858354 3.824200760644523 1.0258930441712075 -0.0613128399768686 -0.6134937535279047
Ni 2.154614612876827 2.255167580956351 7.75715174220114 -0.19087715603196806 -0.2470328772879294 0.5868779507125893
Ni 7.238307427815868 0.15977984190678085 8.569702018272915 0.20308706783459865 1.0850692974210474 -1.990057500984366
Ni 8.384021612794315 6.95801189622554 2.478449726599141 -0.4265989791824524 2.3551029849340535 1.7755092265877037
Ni 1.2914002627714152 1.1332966098191934 5.626622816526701 0.4793690717956325 1.2383281288796093 0.14914892305524638
Ni 2.3048378815933686 2.770212227558056 3.7382219111025026 -1.5749793779573196 -1.09359250440071 1.572340397672576
Ni 5.363106625216286 1.8532771695336503 6.308928159300876 1.698086625533166 2.0902415641051357 2.191423729473116
Ni 1.445315739486492 4.635815126280848 8.478104950739091 2.2216449902515025 -0.49517647114153435 -1.2548659786336325
Ni 5.55774660507939 1.2007207364790202 1.178865069430972 -0.5121120705546084 -0.3690366073869515 0.014636261855936084
P 0.6100583842237237 8.391911181627007 5.40851710975947 -0.07214746869852735 -1.165625044787928 -2.2595425366282247
P 7.60189806970152 0.05476591505887696 1.7173846275338138 0.8483000068426552 -0.04918931724045722 -0.7145725605488016
P 3.040147533719656 5.476426183141492 5.695986730075311 1.2607229516350416 -0.11521164687785318 -0.4200784044551153
P 3.379178563197138 1.010057687121801 6.175227980607632 0.10165859078376685 1.070380842170937 -2.106627461662327
P 6.234072775199221 5.581819433845962 8.56640934024437 -0.701870796711417 -0.23019138025055844 -0.14337782489942402
P 6.255215717519193 3.342045237480521 4.88253544503673 -0.4736365401872294 -2.066770220456073 -1.3328467661844852
P 6.625465192238025 1.5266177922303672 12.341167578257755 0.9814422700570001 0.1619177926851405 0.15474595752704964
P 4.234099222201362 8.725312053136573 9.92152958170096 -0.28540633485980527 0.5101364348854762 -0.5127245073276268
Ni 6.0237455036408445 7.579900959859497 10.088567092166057 0.9965012212726514 -0.22773134874584006 0.2372392882362753
Ni 0.7718018929715168 8.58066383480588 7.483661996996172 0.5357983584279546 -0.6805920898382989 0.6741046823417423
Ni 9.113958275669003 2.8110010228851623 4.663582918425059 -0.9951056264767056 0.8521556331433194 -1.019088105434232
Ni 0.802555597604096 5.437593706977789 3.9865467789562565 -0.27835199911618513 -0.7725838469562629 0.5714168789625127
Ni 6.397907616686482 2.9437643726832547 8.239552494105343 1.218479212474482 0.3276421036005648 0.9929204458999288
Ni 1.8433486201644538 3.4869689937215522 0.6054045489181066 -0.04517942475011574 -1.2291194657971478 -0.7324404419681579
Ni 8.426325866628284 1.415989321229466 10.730652166168124 -2.3018423258377 0.9729910539658534 -1.121283028337443
Ni 1.8027251475835502 5.791990567255146 10.469624082188066 -0.09086947058806286 -1.7611688987056313 1.5544941135197743
Ni 1.47143673338658 3.944573170614694 6.103915095573229 -1.2490899953818035 0.5691885038526262 0.11701733262802427
Ni 6.300064104725288 3.810845438130417 2.3789878886445575 -1.3910159183260495 -0.6091796995335832 -0.2554565825752504
Ni 3.309044980418982 -0.042115051135536055 7.819646495645012 -0.11491622712462145 -1.7760368169563994 2.694095223440115
Ni 5.161146521535188 3.424605580014942 13.229346581499536 1.0007905926766247 -0.03967417866117039 1.4377979116765949
Ni 8.8831769065665 2.3625538892122693 7.131197575929989 0.10680542509202896 -0.02354487719947558 0.8286238685699665
Ni 5.282429125069178 3.2736750973285322 10.868331112286654 0.3071108164164324 0.8130776933052514 -0.1731339731159341
Ni 7.861574181001518 7.08860768112897 8.026124502595959 -0.606024441734053 -0.42289324819609103 -0.40656468623939657
Ni 5.103972405139953 0.15890454981160562 5.037353767638016 0.16116111702477406 -3.15825827691927 -0.9534092751791837
Ni 3.232711794658211 6.476344075162837 7.700034570307375 -0.4687167342881089 -0.35269930367950875 0.12272158210165314
Ni 5.274273202923158 7.577173134547146 7.910773311811856 0.5023002266705091 0.08212643428811017 -1.1398224819025273
Ni 2.968544415419696 7.801258932428423 5.552339632818848 -0.13844593481544543 0.9200582105225639 0.8019890395912574
Ni 3.123332428850844 8.341037698781513 11.847139126537268 0.46588594970753316 -0.3922094459589891 -1.3901440572440573
Ni 1.3991172165197396 0.6054486349837609 10.697260645273904 0.7114766952322973 1.0458352916210893 0.8707776191198809
Ni 3.765776620596052 6.895464790578704 3.3364095687543984 -1.6162075313691715 0.26892453515469816 -0.3279598919512997
Ni 3.4203347424046955 4.766557864736458 12.134555476190444 -0.17734338321159135 0.07333171881461564 -0.1317006456718119
Ni 5.422659552237444 7.83338665277389 1.7513272242487103 1.6326631058220336 1.505616413982465 -1.1426612369029032
P 1.4331553330435538 6.883387045508868 2.5493860431560824 1.005114159752643 0.38347720829231374 -0.8225434667038415
P 0.3736918616786602 0.9652184845127186 8.797164074015539 -0.6467221765637313 1.809546775788387 0.4483268577778472
P 6.8607837522641 4.925589161986819 0.6634052790443573 0.3850630647221949 0.32491364892580815 0.18875676725485557
P 2.124268704351549 0.7879640283322711 13.153530488550498 -1.5496828081740601 0.8494968553642338 -0.16516226776436718
P 6.843259541166573 8.48350916762053 6.475333769491597 -1.3609561228261915 0.34860302212294797 0.2693593086992716
P 4.306308523904066 0.009580453142469067 2.972289894080897 0.01200113822593417 -0.6571824526651069 0.11226336288280665
P 4.118612099381491 6.692549488808433 12.988227030001132 -0.15195245394231252 0.3930939054464714 0.23631651931168976
P 3.1095187949458754 3.3833942932253165 9.69933672926371 -0.9063061510437941 2.1854173753780364 0.33500420039259077
