# total energy = -381164.3458733044 ev
CRYSTAL
PRIMVEC
9.27946420363741 0.00000000000000 0.00000000000000

0.00000000000000 9.27946420363741 0.00000000000000

0.00000000000000 0.00000000000000 13.58143384464512

PRIMCOORD
 96 1
Ni 1.7900735998421802 5.4466279077242765 2.6447122523818227 1.7119980934079353 0.5104817340400369 1.3487073873658257
Ni 7.389849784673017 6.604278184151318 5.4659162020040695 1.3745194633329232 -3.3249750336549506 2.122245370705242
Ni 2.8351082987749647 1.9172950539824463 12.849924563965102 -0.16353090280853125 -0.39853435973575235 0.3522809851951675
Ni 9.043357509928597 9.315654107324072 2.3722012993633976 -0.9875861781712088 -0.8775229082635145 1.5179240277052246
Ni 1.910808708508774 1.868679941054594 10.174218901165446 -1.9492314681069398 -1.64458171163649 -0.23061432672058993
Ni 2.6498345166185424 5.864964712651443 0.735176686360871 0.1593153220652869 1.8227933563856478 -0.20566434164347164
Ni 7.486087107859648 1.420500379270016 4.765779700397323 1.5074686366998553 -1.783664508704986 0.27750662039675433
Ni 4.553627950194418 6.450897920439833 7.72324515818051 0.16694429936545443 -0.3290168724609043 0.16684094101837074
Ni 1.7438247502845519 7.94994896413708 2.7455002248106397 0.5336525157295454 -0.4763577957731345 -1.495528947839476
Ni 8.902523081811397 6.6169446527801625 3.2494122485621357 -1.296373868069432 0.7083124385717027 -1.2485300091132756
Ni 2.6505026380407233 4.221126189089092 9.724456262788866 2.7010899095903933 0.655533089987142 -0.1890449879192357
Ni 8.001839727926459 3.581901018417585 5.802858186727637 0.5783238904949911 0.6200482668169709 2.150931168675709
Ni 7.794193157591176 2.8406481389005473 13.573638328203474 0.7675583687172136 1.7710051680697627 -0.8184703250757324
Ni 7.394545193556677 8.331195750669016 4.29472069168873 0.5801761132123815 2.4637745167005436 -1.9004920939197079
Ni 3.153533112693508 6.848105385390532 10.037901716219324 1.6337792217043474 -0.4866591776991425 -0.24414270022432794
Ni 8.737701238745066 6.664158566614274 10.789023305909824 -0.24476079342430107 -0.17466300816595082 -0.9591135246528127
Ni 8.35185183797144 2.61149177055672 2.432366561377201 0.5389500166830589 -0.8697931437194247 0.8073613596467645
Ni 0.9091081794293541 0.32491301528505484 4.86144726448226 -2.5030000378600694 -0.8915567606487613 -0.20911347653433665
Ni 6.112345948678092 8.784219192764406 13.099551430327413 -0.2129477626787623 -1.6877222515797063 -0.4460321482063996
Ni 9.080289777432482 8.00884572339516 6.386696091500354 -0.8356967162563479 -0.257791144245698 0.08703981242932751
Ni 8.53106613000725 2.614489037492337 10.605510766057986 -0.2539884826701561 -1.5726715557597497 0.14369741302237188
Ni 1.9191509468218375 6.553844296240862 12.138447629163256 -1.1904526453545692 -0.8480464960709525 -0.9267801026274298
Ni 6.710806433132372 5.531934022086892 3.2522777471061555 -0.26149044747415606 -0.6023526493094207 -0.3206420181336478
Ni 2.841000758540032 8.510836898057887 4.780053372225081 1.1342814974796402 -0.9009127479423644 -1.4356764944582179
P 7.3752531874912055 5.236206777594103 7.234096761966371 0.3342326123338889 0.2538329309288983 0.5328554737495468
Ni 0.5770091470701767 3.6775908532165946 9.08675292424566 0.09787444115098629 -0.5127332490783749 -1.0160896849275405
P 0.5776086004573 7.203852204309232 0.9608411923273835 -0.12279974363775625 -0.7541135560662174 0.37418318458489747
Ni 1.2028319876020201 6.850239662155832 4.726869051126647 -0.19129110364093507 1.0997297276466995 0.39362612380085754
P 0.8573296971567597 9.10928810304797 10.287745722043844 0.4284087786976815 1.9983701346151197 3.3011684181536567
P 6.351357107999086 7.512357271001229 2.551543648005126 -1.7328386843023706 0.7731955123983328 0.8243434960270577
P 2.9217413765177453 0.6020692680804759 1.1336220318354442 -0.4728554390468308 -0.02664151384692831 -0.12314632834389759
Ni 4.095686392074642 6.580383563844157 2.658389254661716 0.2768337626994458 -0.1602198361574273 -0.26444978721279616
Ni 3.0637078992669746 1.1882168314918147 6.017322379408425 1.5038269261822101 2.152849468744344 -0.6134554440908015
Ni 7.697992952261333 7.585841347976923 0.9788136585840478 0.5479259949294241 -0.5013574031412655 -0.8618430356344124
Ni 5.341510137301159 7.126656341654756 4.816343500806536 -2.056361623528239 0.19101728115425812 0.0966732217540335
Ni 8.589304047307346 8.426597922077919 12.35319670139489 0.8243316689525156 -0.22698675727033168 0.7503947124537335
Ni 4.074853994952476 4.456045104699229 3.385077087175212 2.672886964793616 0.23491758208163413 -1.2139512426971415
Ni 0.2719606807915454 5.776290152785332 8.078005570055073 -1.9209663026136594 0.16985273126150102 0.36358149780965127
Ni 5.136935069615069 8.15102567382092 10.851416567277317 0.05390986264457813 -2.186066836036577 -0.26622564816629635
Ni 3.2174593415463377 4.4452066905171845 12.796563005100506 -0.2898713126096943 -3.708845620730942 -0.7202068760164435
Ni 5.03639207504105 0.8996941630015423 11.639098317957405 0.022484554255761277 1.7930906871148924 0.13083881189214885
Ni 1.9373943734330528 7.267444372450971 7.002030353650378 1.2746570452176307 -1.979861791398287 -1.481312547129778
Ni 7.634809080544261 3.4256997975902257 8.498664096924319 -1.2962915927682708 0.3480237525807103 -0.4768275363207013
Ni 6.834084114988931 9.10358123256684 6.524887728214261 0.23033947579264843 -0.5799753100554851 0.5567057980045832
Ni 5.057400781982959 1.4367858389356736 8.783927817588621 -0.3026990605019819 0.7089706409809919 -0.020608934499603215
Ni 7.605253987076955 7.941300503505518 8.609976837645325 2.360578406226328 -0.5731755135248322 -1.1777326266847394
Ni 0.9075427338193277 7.860532047135213 8.766258789811197 -1.2142723734819862 -0.11154293977701435 0.9509626134109042
Ni 6.564450723817982 6.060121124177624 9.339815976200105 -0.2197791837782989 -0.6990564671910735 -0.1053697210867669
Ni 7.434474727996178 4.524128533512295 11.013769144920838 -0.30374447104736074 1.3516587566846656 1.3465872556990293
Ni 4.565180883119628 2.0025640504882745 3.261092310146844 -0.6828068381014305 -0.7004446057878517 -2.6091565165141906
Ni 8.95266002686755 4.737185031474404 1.6949897140552317 -0.6335105629694637 0.15080471349111446 -1.6626617090666524
Ni 6.593959419964303 0.8700425631065892 2.6155394728394326 0.1225341486811954 -0.7825856953639813 -0.39507288354971315
Ni 0.5323814199077564 2.5316048632851267 4.633577957822551 -0.8922684420038053 0.17459127438775093 -1.086276430355271
Ni 4.845188715262773 1.2472342237844545 0.5370749728985768 0.9141102204692451 -0.0035437514872003486 0.9077423692696882
Ni 1.276195431543154 3.845020225722271 11.52330359602927 -0.7996573061342873 -0.4853599992717447 0.4672882293716984
Ni 7.751090046396316 0.7047920087943584 0.3683910168334722 0.6470263380677115 0.16323008373866082 1.0741786186504727
P 6.442926860694648 6.797560143909713 12.122230837532657 1.1608353367087685 -0.4566420625117619 0.20175883594147834
Ni 4.375619988504212 8.820149278135018 2.6839764492384024 0.09827501902351463 1.1586100469226754 0.2091394446762656
P 4.536683648570777 4.48451450085549 1.2987547369523738 0.32067981335011864 1.03302888388504 -1.308950676293178
Ni 5.284636301238016 3.098329580185817 12.675851095094405 0.7462259257880245 0.6271473397555974 0.7031159819724279
P 4.469945742066269 2.9668674109075424 4.99944774423371 0.7153251224441101 0.2978777278539386 3.1100958582814306
P 3.798279564562204 8.05981782022904 6.514918799827472 2.4778713611132424 0.7552790371292283 0.9415942848221267
P 0.3758090205125188 4.542112135125996 3.695019542871318 -2.0337508281072587 -1.5091578514768202 2.184206642899387
Ni 2.9803040750647347 9.000115206770783 11.344313867027028 -0.8755130769223373 0.17960929642763263 -0.32903898394809133
Ni 8.988460199739405 1.6852063749523811 7.424073376577811 -1.7807936149150942 -0.18683126809736855 -0.39675052836245217
Ni 2.60228654207334 5.045773613344173 7.572015874269879 -0.7989332834840692 -0.836228934610734 -0.3946329677988171
Ni 6.627244858038784 5.206234108237935 0.5422519859740584 -0.45036677102601147 0.48298892793640696 -0.8887722559250887
Ni 3.943874357812443 7.993172708366502 0.600267196133427 0.21840184381479807 -0.04258929542543633 -1.2702159787271414
Ni 5.99681661942599 2.8914160875220936 10.3100192199558 0.027247522862043398 0.11454753093129305 0.017080352521054457
Ni 6.606644447521542 3.2957501809760545 4.2058846691455924 -2.553794751914434 0.8252112433439917 -1.69423639854914
Ni 5.453958684439871 8.532059032676324 8.563935848085707 0.22861992199838047 -0.5984036919640017 -0.6159139329336232
Ni 5.063590184602329 0.26970762688452454 4.7474174966443865 0.9420887079600421 0.25116026919274165 1.35629805522889
Ni 3.0966592766303647 5.7483868039450865 5.326095091377176 1.945099191106121 2.1775418292847015 0.6083127235475975
Ni 6.183148260500866 3.1558993760637315 1.767175593989772 -0.4113960461897689 0.029622965072755435 -0.2975157165288295
Ni 2.8353217264514945 3.114327376461369 1.4324885190660634 -0.353795622067481 -0.0789305530586318 0.5209224697573868
Ni 2.8035859588979055 2.3911694521283957 8.221588575467411 0.3101804564806916 -0.2758279471427508 -1.7372296142812145
Ni 7.23489201204805 9.217783598438778 10.650329650182861 -0.4373919560328983 0.4245690932366172 1.0630354575494596
Ni 1.4222078006822558 0.21392041607884507 7.061367887457813 0.14179042580764611 0.40770137094700104 1.857120926022924
Ni 5.589531656357398 4.814278820022714 6.020975704462765 0.028102671773487086 0.010859311312007104 -1.5197831924011505
Ni 4.233709142540165 6.237331051946892 12.457339200130907 2.360587919308025 2.4205434739260507 -0.8776656044889659
Ni 5.834964204902685 1.9029211639413615 6.485569710465339 -0.43783984220359434 1.5433195849601937 -0.045933786417637026
Ni 0.6891941574256952 1.3426085568007677 12.063260770507421 -1.2730002263404978 -1.0046187081734634 0.7258926135473112
Ni 3.740487061543562 2.7050473285904304 10.900472454754524 1.9625924627948783 0.5155668618724283 0.20099393275099578
Ni 4.723822603030787 3.918559979483147 7.931462415563905 0.3197020228178817 -1.1459311659034266 0.6835128630295196
Ni 2.119745124367434 0.9462919204129763 3.07948113250896 0.8433205513501928 1.2513597652525867 0.027181702621114474
Ni 2.5232811839004574 3.832075373167518 4.6072437663780095 -3.200074441624108 -2.8573286496128856 1.248648794079327
Ni 9.00447655494335 5.172094959457334 12.836736589448389 -0.8957126917986639 1.0173958053334737 0.09146082431515862
Ni 0.7732039306399965 1.430355170247183 1.0700976037823429 1.051237436473267 1.7545912454881134 -1.889899663115842
P 1.237871244409726 2.777028132366217 6.601296692304835 2.2474413824893165 1.1121949499932458 0.48870063360920346
Ni 0.6411525153852149 5.091280105766045 5.952837526810939 0.02001783788282359 -1.7058153616359912 -0.21286960114265918
P 7.743304575935069 0.753330102169376 8.858028050986993 -1.1807590722158892 1.5756347521531315 -0.8246242604922701
Ni 3.2416137868510138 8.898894811310386 8.889999516931185 -0.876929754764206 0.864337262811176 -1.0015832637812492
P 4.776928976629966 4.899334388852012 9.795771728981734 0.04141250150851577 0.06645736029228555 0.6658612113860275
P 1.112496403644654 3.809619069810884 0.12440235291723077 0.20150121140471747 -1.105531164819825 0.6152721855845663
P 1.3804223734033632 5.782275407192369 10.079882012246353 -2.6899840294852186 0.4773055043983845 0.15882552691306195
Ni 1.778548505309561 8.486515422397664 13.255629234280955 -0.8274658437061232 1.4326245950057717 1.3051526427033264
