# total energy = -381164.45768270385 ev
CRYSTAL
PRIMVEC
9.26662184792375 0.00000000000000 0.00000000000000
0.00000000000000 9.26662184792375 0.00000000000000
0.00000000000000 0.00000000000000 13.56263775892745
PRIMCOORD
 96 1
Ni 0.8271136237169577 7.619201608076392 5.308361940967992 0.1930548804095772 0.7632191179119114 -0.1485511415702474
Ni 1.9511335099955303 3.8612622194319184 12.107976275387118 -1.0419526687372314 -1.2684681427980993 -2.21535324370552
Ni 8.067252028830087 6.400946666808874 5.055771442861515 -2.0227912437719615 0.45434709582999816 0.7528267189339938
Ni 8.2708953050081 3.275380069069935 9.832763061663956 -0.0070502219785620514 0.31849668965587086 -0.3110641446372256
Ni 1.938373372058821 1.268387364098018 9.043431307515299 -2.3078653921033285 -0.24584297074488629 -1.831844667954639
Ni 7.9589159557595925 7.372802139857726 12.911305261455455 -0.18837444421477237 -1.1509003369832438 -0.42628221927298193
Ni 2.7373322193828202 6.937669389607864 3.210330238795343 1.6906617938240045 -2.026993197668451 1.2573141830638088
Ni 3.8424231777287012 5.630732879673453 5.396261406772241 -1.1135224105554178 -0.9908033995569259 -1.693380221196432
Ni 7.7773550388431465 3.793449082597612 13.20530273149831 -0.7548946572066161 -1.2898334958477529 -0.09634257788749213
Ni 5.601450355432349 6.867697129941855 5.498686301927101 2.985739311679516 0.19945641306054682 0.5332442245475332
Ni 6.388316261574499 5.066080559386272 11.345417644351564 1.2337348530819718 -0.2844488560425424 -0.7704020088135958
Ni 5.774671312913037 6.780572353702973 9.375051261235017 0.8146581504184937 0.4568883741946131 1.180277247483464
Ni 3.8323410934330293 3.46012870381516 4.3337913477917205 0.4981077858557164 0.6525030449115666 -1.2628937340341155
Ni 2.6841232781826854 2.3032465973732235 2.046045955023092 0.6903658813956111 0.4927640050452997 0.7993562299541007
Ni 2.3517480948029523 5.611022775540279 7.082151773535091 -1.1350497431042323 -0.6962220830660718 -0.25401239392955605
Ni 2.4462491018316834 1.29189678308526 11.91804574584581 -1.3259194429370325 1.3862501215062901 0.3684280272686752
Ni 8.524198406315254 7.932700683266527 1.6201659264361212 -0.7608323628472897 0.34729844437891155 0.4180834855122735
Ni 4.45906124516544 6.103515913464967 7.706602529638816 1.4767627229755664 1.4297385317072282 -1.6641544915620952
Ni 4.468142534328821 1.8515451277109873 5.8594117874154525 -0.6938664383497019 -1.5457004264875445 1.3118434244599406
Ni 7.4816849436023425 5.2377632576821425 1.5681662793541715 1.174592281283545 2.5852899943092376 0.8674390416649512
Ni 0.2093348351618391 -0.024841959172643813 12.467942824566817 -0.9648044043900029 1.2981001067319193 -0.9075909312934886
Ni 1.516667956500527 8.342924754668262 2.265638940290913 -1.8876178090602007 1.8114331941778221 -1.6749574957148703
Ni 8.216463169757388 0.8798805470669971 9.185309770774252 -0.19156004103160557 -0.30384371562938645 -0.23109023791574396
Ni 0.9777861108698362 7.398322415731146 0.08715998940094494 0.5388978232888848 0.4370340584728473 0.30687478914622635
P 2.4559049215339717 1.8313068261468817 4.548081045520559 0.007454399395516193 -0.5094103553527292 0.18167157827330002
Ni 0.41440887771416546 8.193166883066839 7.960779473362405 -2.187198635648175 1.4150457055817436 -1.9592525997883676
P 2.3378759622748086 4.780955879520904 10.069526170085682 0.286873406323635 0.5001001336953969 1.9916433574142476
Ni 5.725233886702185 9.118957980165522 9.170065251587847 1.156729284960195 0.5814421244089986 2.8333551695164236
P 4.024781024102342 1.0508812220134556 8.409146812574656 -0.05953723613368456 0.6031723169972386 -1.457441396939135
P 5.80210977945668 2.9219974545336878 10.190816980146387 0.8948308034143428 0.32765213090289375 0.16518026548649614
P 0.4161834357496629 1.6445658677586699 10.703443706811152 -0.08840815353176387 -0.3421351550104172 0.46078051016016774
Ni 0.23242725617729282 5.165066611267121 13.08359121681718 -1.5545841021304194 -0.2391845848881042 1.2671085434464113
Ni 4.622107452134504 1.346264051984805 2.5522036531521883 1.1673643960765379 -1.621741316703207 0.3089779515321582
Ni 4.80349230324064 3.2689675669259968 12.109875932814152 1.2835870007174086 1.1316252908037157 -0.6452548479895855
Ni 3.4041953758660113 2.461400028139977 10.288982936016053 2.106555470773811 1.8325144403281537 -0.8892959896390426
Ni 7.161050569783837 8.872132247353473 11.174419749391586 -0.3256317580387553 -0.3875230962269132 0.015076691827464355
Ni 0.08541508455455249 6.430748121859315 3.2663302864199784 -0.6598826252050893 1.4720591468523099 1.3215256847447112
Ni 2.3690210774565665 7.576621481846052 8.15860423784074 3.1380162388407826 0.054418683960196605 0.997471812716037
Ni 3.5136527101495343 6.794796617851738 0.4193563269838889 -0.16447938276472965 -0.5549736458048249 0.33063923855567573
Ni 1.0920620883829082 8.596728253541562 10.100896464172205 0.14609368116869031 -0.15269113188054995 1.6267655093906759
Ni 7.445257854111271 5.4078242971988395 8.214902670680742 0.6433008095870083 -1.7770022661934621 1.3328819902977949
Ni 6.783037275047319 7.552379999752782 3.291286225038244 2.994851815503745 2.240392960282967 0.7735531528480678
Ni 5.923687854786838 2.1977831769972687 0.48683215879212643 0.24785845851301827 -0.23123010592771792 -0.07631754091581695
Ni 2.793070948278468 4.86689452819559 2.22259084967001 2.706704427563693 -2.1661431005294567 2.2324539079415486
Ni 6.89682212161584 0.022116645761470075 0.06952653516727442 0.35028580914200963 0.21711166424846481 -0.34961012323122365
Ni 7.12504974488615 0.6903660888353162 2.5116510637268954 0.37096390631665144 0.15835347237264985 -0.311500975064328
Ni 0.3288835203626291 1.9415332900228137 6.456534349772519 -0.20663724707970219 -1.84514369905639 0.38505560852302717
Ni 0.9988398751343269 3.205787740889334 0.918004354972165 -1.6095180351641378 0.894373147051634 -0.9993294347500661
Ni 2.5152761660949716 0.32815145725660144 6.613305200597255 0.20804981115651267 0.13165719402838616 0.07722591166269925
Ni 4.349335178855654 4.877755008705266 9.449441846077658 0.8391905883422193 -2.114305032812242 1.166812123117494
Ni 0.4594233454375883 1.4874688318537794 2.507053892753474 -0.21245976729875024 -0.6227798068155209 -0.7069921770983824
Ni 8.197874326837244 7.682854031814415 9.555338944344271 -1.0009371455568181 -1.358699979802163 0.5144335195989335
Ni 2.3226694362369438 3.5844496991375228 8.35798857473356 -0.9449449464619145 -0.30124587299522315 -0.2915160473019689
Ni 2.605551593676252 8.41777125729339 12.424867860743287 0.28726652799699554 -1.3043286041401343 -0.7666911356209117
Ni 6.156103991018217 1.9196640630579378 4.432853385969651 -1.1811627354122112 1.530037780249623 -2.2888986211928386
Ni 5.010286230761052 3.7365798258673393 2.0623616956659125 0.26926443499262015 0.45231386745005325 0.9082879573605132
P 4.500344044372441 7.93664826406612 2.087642892702173 -0.85673939585926 2.129134127405275 -0.36919678711389964
Ni 4.0405620806791145 5.435522229147151 11.77792979401428 -0.46908723025365023 0.14305772255584395 0.5265647556448286
P 8.4307259942836 1.4824277897059437 0.2707401031630045 0.5659378581258123 1.5754061810820932 1.0751291554892
Ni 7.549840945435674 3.175541488002319 2.051131476954585 0.3174415089184791 -2.1854960511347716 1.0727922798259073
P 8.26148041746729 0.25029237595084547 7.022489557055998 -0.5502600423792394 -0.14056375248939665 0.8671942726439967
P 8.601787828932588 6.254515512360158 11.240062643448274 -0.926910714668023 -0.55361250379124 -0.6072446872943993
P 0.17557931267668928 3.688300727355897 7.644187199883764 -0.6891597769026517 1.5166878413052782 1.0329252684276404
Ni 0.15129242413760313 6.080210360152821 6.930195859291264 -0.9545205059654917 -0.9710071907666051 0.7244929049863071
Ni 6.313182493679917 3.3567410066765495 8.078965038526528 -1.1385323023361942 -0.025742141961110503 1.8707745122506168
Ni 7.3096501136858505 1.7779774188660085 11.799413529520793 0.6593095263104387 1.1110482379833122 -0.4079767360955748
Ni 7.162412763158344 2.1738011603086673 6.434196231754922 0.6533083144216812 -0.8654600635617096 0.3205962524973769
Ni 5.6986479493453075 5.132929967574667 0.14675177955591276 -0.8622376999696699 -0.5967283611441078 -0.9784675036993924
Ni 5.4517944166684735 7.324940039318073 11.812230193849233 -0.0874157077115075 0.550195250579575 0.520884931651232
Ni 7.284593168892196 9.310638047864021 5.148661911056985 0.24437204262631462 -1.8346679963360466 -0.368495647281817
Ni 5.02977393597594 0.9413219548923842 11.715759103069345 0.2030176480492439 -0.31481049905353525 -0.5832087293911181
Ni 1.467851393936558 6.235111206739629 11.720750105460567 1.333250429380807 0.6024367243827947 -1.8430109689841034
Ni 4.750839359336223 8.77638024640938 4.715837476246507 0.5681986291355311 1.4531049743473103 -1.4829387698792913
Ni 1.8191397519922707 3.5047567534180595 5.881071588732276 1.0901135447131742 1.0469030707639713 -0.7540014559683853
Ni 1.8158130348395627 0.6730615996682784 0.484003985881245 -0.05158275717329826 0.4438942759277904 1.0543919229418486
Ni 0.2701683526105753 4.149926748746685 3.4501040725733794 0.767347281147672 -1.1595230456552483 -1.3468502795524289
Ni 5.142076123089216 6.334236257944408 3.181035667946164 -2.0303294611305356 -4.415535950318189 0.22610281200348156
Ni 5.372981800000562 9.019888528690315 7.084918786743442 -0.8515997606398494 0.14115870576091816 -2.4822239816549834
Ni 3.4390193398210975 0.008559578367566057 10.181810750617927 0.9874195706863577 -0.5381267494508152 0.12576473980335115
Ni 7.159892242084426 7.346151336149683 7.355628310055183 0.2101923114208122 2.302940958218518 -1.3321458834627187
Ni 4.576673206452815 8.924497925988437 13.578234210951972 -0.20766106035852624 0.7383056424996833 1.477885780836416
Ni 3.2237927866489753 7.15269207710489 10.56907862034166 0.5883614772366512 -1.1149097778212476 -1.6735192206064469
Ni 4.158618839803064 3.7959510704283392 6.979862171055521 0.7392296969758494 0.26850056024340213 -0.1056160327696181
Ni 8.670759293466304 4.236662326878566 5.5372178411824615 1.1590808159115071 -1.362814259080853 1.0066606783041567
Ni 6.5703590428139 4.559826488392584 6.079804482126948 -2.0364528004194544 0.8942168239794277 -0.08052643679084195
Ni 6.208497469517966 7.181557603374206 0.9345276679387202 -0.6027213455027491 0.43289586793475765 0.17592593403877443
Ni 2.545939416953775 8.956921834950343 4.19786668890774 -0.4000353697613111 1.8491132252270994 0.834601169199324
Ni 0.4560160086770015 5.618834537545106 9.455165838237066 -0.019740415851720844 0.057137111332624176 -0.7591218079140861
P 3.8151978434817497 2.135353947309824 -0.040807421519162765 -1.4308153097111744 -1.7898117592533045 1.5278279170824978
Ni 8.437824226425588 2.064973956293624 4.304699715955478 0.33510653029841 0.1786497607278407 0.3355359045263447
P 6.327740356206112 4.385187737807817 3.9493312644113607 -0.2685062166703569 -0.5869301441067634 -1.1312730496706196
Ni 3.2839794939103606 4.301148746560164 0.11954405188999236 0.9318292350155628 -0.04317602116684177 1.9985179730468936
P 9.05241437048977 9.027969022721404 3.7196209816858055 -0.2525563782093199 -0.7330215112826085 -0.5628165388880113
P 3.6925448400465384 7.653932905815527 6.28374614352033 -0.6746173603121026 0.7930953366460534 0.38476841629991154
P 1.7409016658632674 5.36531830394126 4.612029074487471 -0.19625718939695877 0.2835430563988213 -0.22796789023667835
Ni 1.09762206134008 5.74480499151143 1.5949801756022923 -1.6061108092548015 -0.12298203485189142 -2.519302888785152
