# total energy = -340862.1845273712 ev
CRYSTAL
PRIMVEC
9.33614968298415 0.00000000000000 0.00000000000000

0.00000000000000 9.33614968298415 0.00000000000000

0.00000000000000 0.00000000000000 13.66439877351945

PRIMCOORD
 96 1
Ni 8.801683099956533 4.32400037020563 7.626633436580072 1.9732365727722858 -0.317253304167073 -0.7726314123647468
Ni 8.783430927372182 3.634871155387866 4.804348071032564 0.11838053152413806 1.5929699009974694 3.043907692490132
Ni 0.6242373729943408 2.5114522668584534 3.3047346336627985 0.4429823056364823 -0.08801066098302908 -0.6918303817562794
Ni 7.335571502024971 6.18557259541492 4.469173762951221 1.406818432575945 0.17993094143310948 -1.412219548986858
Ni 2.3066451517776776 4.377664558448521 2.2817493750956155 0.5703442147236242 0.27620821330030493 -0.15187197841336425
Ni 5.29162692936672 6.276441340050977 8.966578175242883 0.17234233045257416 -0.42116752375423594 -0.7489320118652779
Ni 8.846291223029695 0.07880924012086209 7.88535588232958 -0.6624807249495687 0.5835476007877757 -0.7539721453923467
Ni 3.029552556063566 4.250552880834228 11.232969584148597 -0.9845599897503754 0.952645914650598 -2.94341432565906
Ni 7.972026160463753 2.1324419352807915 6.613418458631571 -0.7649810949083405 0.47784903560668024 0.5670935689968104
Ni 2.800984940099325 6.815856058928762 5.907666229345041 -1.0852227922797761 0.37462335744610964 0.027770485245048947
Ni 0.3895863219119602 5.83979895662513 3.9849216843366793 0.8257023240477972 0.13071617027135551 -0.33955351032617004
Ni 8.774766980488153 6.846319915267759 6.32206616982206 0.9095866215672787 -0.2448744361840299 0.2701661208712831
Ni 3.185008784044147 2.566302146108103 6.735565171856935 0.2938760628937132 1.6989055218900355 -1.0521542918605815
Ni 0.7951178538274057 0.19714587067017783 2.867309880895484 0.7580401448141332 -1.7836213141718764 0.49063333185554214
Ni 9.376948633526855 3.435058880374931 11.137879032636507 0.34129568982825736 -0.6810497462010077 -0.4004570306797619
Ni 1.5668486527577268 9.040968615729897 5.745852083446331 -1.0926892758601505 0.0022821111659573597 0.10327967132695762
Ni 3.7232004673165355 7.885087934834352 0.20625048381813663 1.5063509781556443 0.8172968735929215 1.1394830962852376
Ni 6.124504840492033 3.855801800930624 0.5498347955127696 -0.4688879697586506 -1.3410174749207358 -0.5169845681555613
Ni 1.8469051340941915 7.219775237798009 1.8007079983489807 0.7743157420457052 0.05032368795521656 1.2015382137447694
Ni 6.483937266233692 8.485943854621404 8.769346411995839 -0.019831690013946492 -2.0650660932807727 -0.3955642213638349
Ni 4.110949434975503 1.47250686044833 8.643483911205987 -0.26986247358793525 0.5022292642232576 0.7907360923852575
Ni 9.304360069924128 4.380885530081054 1.9948653675131476 -1.2354214967557757 0.7435800035247452 -0.8375157717429577
Ni 4.660699271526371 9.103054010965671 2.3558793370071287 -0.33777559249014083 -0.13211665016330795 -0.6366588787904585
Ni 7.0670451655180075 4.783049512814312 6.337110441383402 -0.7103495236063895 0.456690142140878 -0.6534337842559521
P 8.711635936490515 1.562516679315712 1.7466376875959007 -0.7257869412073822 0.9180972301414511 0.276336254237737
P 5.436990779565365 3.519793774684687 6.207886926716125 -2.234307930431152 -0.9764432741805118 0.27440175621918544
P 7.208739908900464 6.417968032739562 7.730264697800686 -0.7349912334144696 0.4650128030739605 1.3098976135874794
P 8.522933679572402 6.005347562387647 11.594050773920127 0.28612238709022336 -0.3129467063719191 -0.7068566799617827
P 6.310527622457865 8.330123516804102 0.018840350012900815 1.3240181121492618 -0.4182020133680088 2.1650694078493036
P 1.1864565710304567 5.825495975346754 0.427553641732309 -1.3378383058618055 -0.7623233455705194 2.6124938084175398
P 0.6092985999241511 2.1608144940960567 5.828289351324881 2.1065724400546753 -0.7007587945941609 -0.5679168362290542
P 5.5869760238454695 0.7581261616464763 10.220424008130683 -0.8224503927694029 0.4700639923446227 0.7175434702516674
Ni 8.751566648584259 7.531387904983634 9.119906694716061 1.1126994004334902 -1.6759962213920296 -1.303422290275781
Ni 1.8988888153983696 3.4318379087423985 8.753454418045411 0.34612859244052646 1.872438530216601 -0.039379273128570896
Ni 1.4474392986125328 4.556909295761545 5.86277895539706 0.49586398412686217 -0.48804937317844976 0.11210986802407788
Ni 3.4255360077222257 0.7683221706896324 13.15355561135568 -1.7802377424116242 0.6956417850825697 0.34731258544629867
Ni 8.490350517260694 9.262851548537926 0.426301664062968 -0.9765201501650345 -1.060997344073508 -0.01775218177709846
Ni 8.909039484891293 8.213337620713231 11.904424534045935 1.6015959521035836 0.5711435706964679 0.6846426057585887
Ni 1.7478112416081015 7.453813837462726 12.72073544760044 0.30407665757579894 0.930875612853042 0.23086192395502175
Ni 1.8727942771000259 1.4982186166106337 10.052802777143755 -0.5085521211174919 -0.16009668031600172 0.7978444212952647
Ni 6.712551562946231 1.2477483935451712 8.60191657207693 0.731498903990495 2.246802720464053 -2.215656633878552
Ni 5.451387122340337 4.35748913903431 2.895349139167905 0.17880325558656948 0.05991390274681295 -0.09898670037855854
Ni 0.3441370117544763 1.0749922802455099 12.356032765375982 1.5689869078193108 1.4697950334084815 2.2505562739692144
Ni 1.6187109641163315 1.3314002944944237 7.781341838972925 -0.9590657021340127 -0.9427757067247378 -1.2934970607422691
Ni 3.8001583489599158 1.982157934211582 11.042679248173402 1.7842180672156114 -0.26397233335574544 0.515918588784892
Ni 5.507600079440275 1.5681183691114209 0.13608931912688307 0.2816234707786053 -1.0406861433199819 -0.4967188759279897
Ni 1.6315388337485046 8.347395393674205 9.06731242922415 -0.6849123144802075 0.49418273976969723 -0.4881571024009077
Ni 4.230470822916611 2.6843670947023264 1.5987894879728586 -1.377028345797706 -0.5523367224026101 2.0519758357557176
Ni 5.106220333278417 5.9918848345786255 4.638325188867344 -1.9410767002102896 -0.1940025890348272 1.2307582869521514
Ni 8.918440987598425 7.201523065213658 1.878472523322943 -0.5270031287338278 -0.9691817075220921 0.0331255789093752
Ni 2.3655469199795567 1.559631809070922 4.48363079069898 0.9742128421880963 -0.14233987055321293 0.17282518362626365
Ni 6.367711539122394 2.3583487485920704 4.4285493749377745 0.00890604424037821 1.220642281564072 1.9915543972448668
Ni 8.14082374630778 4.767467479032582 9.642009391280206 -1.4494547791892327 3.2804854358830084 0.7892116853209311
Ni 3.8420869970807967 5.946249735042918 12.82850635758008 0.33380375232658643 -1.1292161671415906 -0.8181702773368102
Ni 6.1245888658389696 -0.1879432279507941 4.471319210142978 0.4500790645822636 0.1336765384512601 0.6862942824293987
Ni 4.171951836850773 6.6127294507866985 2.413078191511112 -0.3932543422837357 -0.44038934809832536 -0.2367104123159988
P 1.692410529528541 9.091626563782425 11.23976069941093 -0.003384600201516752 -1.3207723515184542 -0.11309948563085684
P 6.873721514518435 3.317731487603809 12.131334983445612 -0.5330215670137659 0.6995670882789049 0.3907603722172883
P 4.568271389897175 1.2932154423870081 3.9681007434951314 -1.6399308431280404 0.3418759878117596 -0.51674622689251
P 0.09752075126846159 7.92572819430222 4.533765914370575 -0.42937499926569284 0.8324067326511665 -1.5461722239176403
P 3.1465905281952438 9.283941910618768 7.221225141840132 1.693931722824528 -1.4998941667867072 -0.0527225272046963
P 3.7653998637775423 4.748505759074108 9.198641245639648 -0.8256832978844038 -0.22611823862244929 -0.14909827232296904
P 1.0829466797554164 5.931162517193142 7.54951217231765 0.8325728259153856 0.39913085566917067 0.7646849038241604
P 7.017330168581092 9.453971868217852 6.4122104292445385 0.20638167942547037 -0.3222803250680191 1.233786532255514
Ni 7.087127223435623 5.772690712872538 0.8637637614289199 1.549928605636279 2.1149259542256926 3.3254483737469434
Ni 3.766146755750303 5.073711860163987 6.9221929363207035 1.0514590655657698 -1.46457312288791 0.8671932442027322
Ni 6.519526668735763 5.646409952577942 12.532822095328555 -0.36129964375401 0.44186438998195515 -2.80653136445536
Ni 7.8129755148642595 8.99494139790849 2.9407153575934193 -0.7782191908651694 -2.608258173069637 -3.569549679210375
Ni 1.6210823461298483 1.7819442047632879 1.2074367665453185 -0.21076823852894022 1.3077340302772575 -1.2825156220301008
Ni 8.588314735637983 3.1991343784789925 -0.25429617719593156 0.4512306616882035 -0.4849509367587842 1.308867115440436
Ni 7.220662172015664 2.9070342640817537 10.037388794055897 -0.04124435136176768 -1.8119654125322084 1.4791304518767945
Ni 6.377290428673056 1.519607735480582 2.30625023264708 0.7906741287990706 0.5434422481264577 -0.7119240671823609
Ni 5.538231986473144 3.5317160377998875 8.618341660172915 -0.6084140250121522 0.3311704284687974 -2.26564350731964
Ni 4.994167865064919 1.084785901238341 6.488553058625357 1.0704595179276726 -0.08545395599944638 -0.9679025836993524
Ni 0.9356129019786137 5.525674865181096 9.890906473128041 1.002236838204848 0.7377297153915552 -1.4397815177655269
Ni 5.324303453175022 4.350318976095803 10.820099838600774 0.6720994789862554 0.1821066089281896 0.4746220440289503
Ni 2.9229337269519076 7.033752455832177 10.575793341540521 -0.08031560633161652 -1.8455723019533763 1.2533989071698026
Ni 7.1683797339223805 1.202075949410825 12.341534658569723 1.1478816047615779 -0.5591038659231146 -1.1600372662875054
Ni 7.300532932352812 7.567948267050293 10.68883917607779 -3.18355484670253 -0.7830410377338449 1.129838888327254
Ni 3.5040810348077236 3.7030717286506216 4.565084028403416 0.8940275907867571 0.8316012060307355 -0.11455678690267368
Ni 3.9287358020707535 8.53857173025209 9.296382330040073 1.7617085732591853 0.5778320384602371 -0.8334973946121838
Ni 1.1604273857797296 5.275923525639417 12.174637912796372 -0.25103428513783865 -0.7046807553563864 -0.3877791781017773
Ni 8.881861953232447 0.9708662030929416 10.351055414166614 -1.452494337346505 -0.704336227532774 -2.5500730800884726
Ni 4.015963448339599 8.555722237176617 4.880390076394345 -1.7343672051317551 0.18409201478933457 0.20807552218812553
Ni 8.299342231376682 0.7892164736276263 4.580238466530742 2.0081143584860772 1.836571898226979 3.010247067012893
Ni 5.242107991572654 7.632974549428814 6.934436362984191 -0.16237699170974618 0.0309653380332628 -1.1797437435774973
Ni 3.71061533757551 3.3377388563241492 13.10877663674375 1.117345383845934 -0.21776086779668946 1.3032292004283683
Ni 5.293568848495899 9.043106594001927 12.095329188668726 -1.0741783615401563 -0.16157352197184432 -1.6157727578245982
P 9.24006200721905 2.379887245856571 8.614036761564913 -1.371274216922748 -0.31798992522278136 1.1551529416120105
P 2.4720163706966627 9.215984077247162 1.4311953318199429 1.4976835322886337 0.33470363843303647 -0.05467399450411229
P 7.502035050454119 3.893127727269364 3.3546102123738586 -1.3032834507050717 1.3641712873293796 -2.7669443461913574
P 2.728863183979574 5.7871524086951265 3.9277900501102447 0.004143846965044476 -0.1334536238071766 1.1233717925456717
P 6.024729409080799 7.396153777165562 3.1906506192833914 0.5925546893823924 0.06968075232558968 -0.2771068138551743
P 5.1918514979554855 7.190627778561004 10.848357562775226 -1.4062674451684813 -0.5777371647535857 1.3186496487484967
P 1.8110449832519953 2.8659925501785266 12.337311918078724 -1.168658432297613 -1.2027155218823222 0.19026163393515622
P 4.186096103584938 4.8862979918988865 1.053555547012298 0.37677382813020915 -0.49301982980984765 -0.46977062947391995
