# total energy = -381167.426976394 ev
CRYSTAL
PRIMVEC
9.26866051612808 0.00000000000000 0.00000000000000

0.00000000000000 9.26866051612808 0.00000000000000

0.00000000000000 0.00000000000000 13.56562155592098

PRIMCOORD
 96 1
Ni 5.525206100262101 4.078229163951916 9.339116237975503 -0.1291341704962163 0.1991118852369345 0.4596795637865051
Ni 2.104662549138535 2.743384482553052 7.816836996176683 0.6293775146376968 -1.0443167980940338 -0.5519122332706818
Ni 5.246923836957633 1.965530686146816 10.702529711679968 3.0095739522052685 -0.6682243123015652 -0.701814746662501
Ni 6.258737162085271 3.1500376939912424 7.256400023204551 -0.19285279170110015 2.5851850933002574 1.5974647035440295
Ni 4.971690962962624 0.30418168138172824 1.497048094144696 -2.4954420230071537 0.8931287331215715 0.4412254708463756
Ni 2.4661773838683327 3.1790671387244416 13.101270175372754 -2.350587099341571 1.434135375223343 0.32216796785987095
Ni 6.925663629447147 6.167755990469342 10.574619415973846 -1.2148737545114108 -1.6675951418125279 -0.17227496754974847
Ni 2.165529842741001 2.1350174123253898 4.301997800436999 0.5487389777490227 0.28862946978279325 -0.9639631394356304
Ni 8.268794493346485 0.0029567027043073926 6.968930663597546 -0.15905409798410025 0.7852259612003057 -0.001907501435358005
Ni 7.746885488403397 3.628161546661138 10.053495466576384 -0.19401390188873682 -0.12526568867974558 0.5822098558129586
Ni 4.416368436862708 2.0698309229229013 8.44584722710351 -0.7433203221054553 -0.26462590777934425 -0.6722390898879133
Ni 4.210177815044456 6.364038414196983 10.668547094767515 0.94579135362261 -0.24015440500054122 0.8008135312259177
Ni 7.719987835588663 5.342956428554276 3.4237319703407496 -0.3786335070467673 0.06492061193278496 -0.37528490228950856
Ni 4.263268702474778 2.912407775705872 1.934146074776737 1.207949773698068 -2.97532223011125 -0.5682701058034149
Ni 3.5759419133192325 0.14784811134009074 10.893343625703718 0.17944783114910384 0.13579384190457905 0.851746827740675
Ni 6.729019727959418 8.19581306045082 12.279478293794828 0.5523092115987843 -0.21519773505520357 -3.4411912105379185
Ni 3.4371622594270868 8.371222460698524 4.781745522429135 -0.5407667581768235 -0.7159023351038187 2.369715849751222
Ni 2.451542168915037 6.534767140884576 6.884878742582684 0.10185296618276007 0.2430535809252072 -0.11403279607840362
Ni 0.9764904599047055 6.293207310540818 4.716264289622267 -2.2800211161975508 0.41130657179975616 0.6837427196521385
Ni 3.7236658246084215 1.4728643051287749 13.416698449423468 0.7543004752660428 -2.521289323087561 0.6060627511711563
Ni 8.279898348643538 0.36863594660352633 3.0513014341223537 0.2985644695083181 0.43393896448729136 -0.30355575207532237
Ni 0.9875850465412446 3.403044320071113 9.726536978844921 -0.12140594861402318 0.19179606830181162 0.8657693672720121
Ni 5.261327335398052 5.7323050508108295 1.4241732508449567 0.541997288149815 -1.2336690328410431 2.1561227401789766
Ni 5.386157655215018 6.130996482866573 3.9307879468084375 0.6004065813266434 -0.6718534244137203 0.29571825830877463
P 3.8620561947589347 7.833936747960936 12.539260310711214 -0.027213841410630553 -0.08161195654553685 -0.7603981035233485
Ni 8.780155762623423 9.092435472697169 12.633785818108105 0.2853024622920893 -0.07441261058362024 -0.8113961918377705
P 1.6747449998075188 4.027223725137485 3.289527327278843 -1.8230219274566863 -0.9491764680447589 1.729870345702666
Ni 6.529159601272959 5.4651173741429 6.049711257015459 -0.4050886159145023 0.6216436363285487 -0.9343239764129586
P 8.75942176905121 4.640447573475044 11.887866264640493 -0.08661018109107664 1.0220345896570655 -0.46848893454801893
P 0.030743220062436336 1.0225186280225442 0.5948144348225269 0.688516229781382 1.605857555593415 1.7372728088143243
P 0.6221708863327565 8.426148542910832 5.948294500525613 0.33929357179656405 -1.2523277855928112 -0.031903276466499896
Ni 0.7645078521305866 1.5912714432087967 5.957600235682744 -2.0746575936239493 0.750879622509952 0.4535924770521607
Ni 3.727438169438055 5.093610923377857 12.909832480496338 0.19167676911512793 0.646709321047925 -0.8292530175135331
Ni 4.331133834766122 1.232694773862276 4.215448902279377 0.8489291557862219 -0.04648117428067479 -0.2133164588720907
Ni 4.6557501319854255 8.427687140556333 7.222892888576522 -0.8390934006427225 0.37063866176674876 -0.20746694206984914
Ni 7.817021442520932 5.009812963661107 7.80679810997281 -0.6886931216788785 -0.3451191773394056 1.8919596309686642
Ni 8.08191976004164 6.878690057956772 0.5455440892565168 -0.06517669380764904 0.5567209675132347 0.9676323607571012
Ni 1.0408427698608378 9.258678167695466 4.083930317034736 -0.4134686124480815 0.604494892463404 0.1963438355734941
Ni 2.113912672332575 0.07789660356680446 7.054232000049841 1.6769943236392406 -0.2487118076522491 1.5547561089319093
Ni 1.7746704288204906 8.97804166462017 0.45077574295413 0.5991017464722908 1.2660657040041938 1.403779645749621
Ni 2.029030279335562 5.884199859331799 10.770316987222985 -0.9740192381200515 0.1637013669481245 0.2717049261133127
Ni 5.643603969681607 7.782588368707447 0.4299240373933766 -2.614564832013955 -1.910572875194477 1.0314142310997527
Ni 0.7931869414963167 4.601806527787717 7.489281606708051 0.022783830663734957 1.1658011653544762 1.130384476418079
Ni 2.0836412270903555 4.0046730741043195 5.707613339198683 -0.3593885427742262 -0.5488410505445257 0.14282992281575402
Ni 5.632500114384554 7.982606062622661 9.830531349824009 -0.2602115807617325 0.9629493534591352 -0.6253722501330455
Ni 3.1149558139417013 4.613698219228552 2.014535948022095 -0.9742012722238705 3.163457818842339 -1.0993420052899776
Ni 4.3454261092803605 4.556816449647567 6.7150370267063835 -1.023885269712559 -1.0377288604638708 0.7316922509482237
Ni 7.743697069186212 7.533595072630602 4.54057590269306 0.23652657843996683 0.20220775055343884 1.8490798008860025
Ni 7.168678639491772 0.05880223603970835 0.8288638695509251 2.0958501685411646 -0.1483056012183446 0.5276299636845494
Ni 1.6555681412018386 7.218006450752975 12.777079309671091 0.6082008805600816 0.12633141094009856 -1.3188990457551415
Ni 8.654296621489284 3.108996065230511 3.305752117510473 0.4998458515927455 -0.3599667838751994 -0.32114055503662114
Ni 3.1324365076731238 8.039135623104075 9.136392095189889 0.03357912150702604 -0.6906651578035847 -0.5504413051521101
Ni 3.3202937189925663 2.8397970892308124 10.590043393936973 -2.3836957089700817 1.1955585991225668 -0.1392010678139151
Ni 4.063510531053986 7.603536384877321 2.7544049199054705 2.780375789105915 -0.09265073085820173 -1.0708169012670914
Ni 1.9364919727531011 1.898944629006552 1.8647849806782606 0.43266935374624843 -1.0075253402972972 0.08558919602573002
Ni 6.768059326048894 7.603054414530538 7.674804969309799 0.6147260832731091 -0.42654524312638153 0.08216140129110366
P 2.86915093708204 0.16856912878758165 2.890807162375501 0.5960326206286639 0.977552962304923 -1.023268976284799
Ni 6.14033002400525 5.633844070159238 12.990113910413672 -0.1476373715067264 2.584006242500808 -1.5875934671769045
P 7.950323318048672 2.5677711717740173 6.0710634702440265 1.547063368273342 -1.2320664642406136 -0.45828551165245585
Ni 9.169643414787702 5.505028226320793 9.832240490822988 -0.04317319295336435 0.30345779304487736 -0.6767603747970345
P 8.805978250818407 7.385111131179177 2.7142234228405386 0.07500113609723857 0.08971993036465194 -0.6746826663323993
P 3.4698250190821938 1.7895929722497537 6.310307062325069 -0.6141180173754649 0.2920433805603486 -0.38660546950865027
P 6.503800546103728 0.25196112117377123 4.596669836130265 -0.0004057200788509142 0.1385940303575355 -0.9793121110878746
Ni 6.675483944824372 3.7131088202817564 12.270552573718815 0.15682906530832344 -1.9009150403897395 -0.8149070332045063
Ni 0.9419739681465841 7.40937648440763 8.643797082857812 0.786154386551846 -0.5032844449606494 -0.8210591688488311
Ni 1.0512051323166864 5.185667259613534 13.42443036602514 -0.14319270547181145 -0.5152621861478158 -0.7226527664537747
Ni 6.444944551833031 0.6893621870046549 8.28575984955327 0.22347822989644092 -0.05394508675788774 1.8635710525236422
Ni 0.39144797386321717 3.2315741005423146 0.9097802027135392 -0.19938570772361144 0.8743038871055846 0.8963032741948112
Ni 0.728532473207393 5.649684210979493 2.1773501654958696 -0.8193115900301051 -1.0965937531208791 -0.3792402873928308
Ni 5.619236661187488 1.3709368454445479 6.274263095314065 -1.4059298593234046 -3.4345119987455304 -0.21125314858515876
Ni 1.736835756597974 1.206325434696901 12.023156267848716 -0.605176491911461 0.6917115967902282 -0.03848041546338534
Ni 6.296062057979459 2.888457556934931 4.841177100517817 2.4117510724454014 0.9641698561297976 -1.7853125858313703
Ni 8.921688208688543 1.42273012040276 10.12774021790025 -0.3530731420791597 -1.2514484683116511 0.5155987435516282
Ni 0.9384055338482821 8.633692389164283 10.942057851638825 1.2752293727813329 -1.0481680535193239 -2.049013924913916
Ni 6.08095498474571 1.2919771265166649 12.74480676062367 0.07070430849409759 -0.23541509054334295 -0.06814220419387619
Ni 1.9170463229924837 7.459649699041371 2.9500209269420785 -1.3262459730385159 -0.1378257847329433 -1.2652519498536468
Ni 3.1570077266985748 4.6922964603963475 9.08634781647087 -0.15215865641584764 0.4764791518423471 -0.7076681201194844
Ni 4.362415564004484 3.797277526419109 4.487643509357546 -1.570376589077986 -0.4055161903702241 -1.1282558601108503
Ni 8.887579537993085 2.6216777013296655 12.317801424426488 0.4681624044465356 -1.182542646478873 -0.5742309513725401
Ni 8.798656009011502 4.386356514114911 5.495067196865247 0.07309723420630637 0.7341042028238259 -0.35320375411975297
Ni 6.5013906943698085 8.112070712697163 2.7528440774747325 -1.2431407197769042 -0.5297189850030941 -0.5700750202226376
Ni 6.2100303510785775 1.662213770791144 2.7331880291204236 1.535244521261543 0.6959212639962015 0.4338960270644979
Ni 8.31768667756348 7.789076431067996 9.662615661602741 -1.5183359184316625 1.620987469256318 0.03642224738277599
Ni 8.661915460432672 6.8178969136384255 6.598087848925381 0.8922620142459021 -0.7758195802847412 0.703630459715001
Ni 8.817990434845939 6.81576512171996 11.817094480411622 0.1670689978687768 -0.37843527499303214 0.16484602207552898
Ni 7.529451981380364 4.551477701190886 0.8996032134679922 0.5845091933700965 0.3798298413477136 1.1383690372854522
Ni 7.495454534611087 2.3093053046507697 0.7308190517564609 -0.40384291643285936 0.04951121935625021 0.9701972932708001
Ni 3.0502605635465114 5.6475153444189665 4.535787712670975 1.1023699934830242 1.8471347613444897 -1.3454174037606441
P 1.959580206096141 1.394451437171281 9.56202659649689 -0.19384472330072422 -1.3019423632961449 0.76737530617213
Ni 5.108199795028577 6.15236074535381 8.287699780199073 -0.576444156973775 0.0006903411988052626 0.23587788911237442
P 4.537203963997678 3.168389641811081 12.472992168626616 1.3313303295399588 -0.1245501506699597 -0.5620686049783933
Ni 8.289407994332 2.4746304022580765 8.119675648649777 1.6269480577151272 -0.29987778900310286 0.16354170144180866
P 6.860273229513327 0.3494804059170308 10.498976950644305 0.6247145619443886 0.7287853617140739 0.49220916098309425
P 5.841248886504964 3.999148952437338 2.839081548639049 1.3937227757342514 0.7530354925106901 -0.11006661234180398
P 4.521039420059395 6.5716100664319805 5.971112088981612 0.4531317353656583 0.7104834780810926 0.116826813883773
Ni 3.3368012033699066 6.771331163210713 0.8003238100929209 -1.5905988296621316 0.968097730429294 0.22221684668551409
