# total energy = -340893.11417785933 ev
CRYSTAL
PRIMVEC
9.04262958563875 0.00000000000000 0.00000000000000
0.00000000000000 9.04262958563875 0.00000000000000
0.00000000000000 0.00000000000000 13.23480244159157
PRIMCOORD
 96 1
Ni 6.518496921003398 1.7957124641764355 11.40937843186601 -0.21452513446821123 0.37908267876904395 0.37174217924357267
Ni 4.901439684891469 0.4374869292592419 5.921104655636514 -1.1149295753155894 -1.3539802057289907 0.13809086546887187
Ni 2.7842527046993797 1.6251323041213235 4.907504576396397 0.1115084869946531 -0.3055948939925382 0.32618968742475435
Ni 3.5340042319814775 4.1808415946332085 5.046827079577966 0.6510195183875046 0.6229669831256626 -0.2735805458694708
Ni 5.311414414353866 4.314030482326792 3.0294987595589373 -0.06789666384197338 0.9815212029240515 -0.9388048950024478
Ni 7.326573407591871 6.295596107530194 2.5537081566367688 -0.3575324634020939 -0.5830801742330539 -0.17784603387962272
Ni 5.045895688754934 4.6318517760851154 11.407631395875624 -0.15127522536962978 -0.640163035288975 -0.19806441780902664
Ni 5.438146864691673 7.988032701902271 12.446166525547884 0.3654542893523319 -0.008233186543069693 0.6587348847538914
Ni 1.6813051176424407 6.43484355688816 0.5812276611411361 0.36828867347733346 0.050666158896299836 -0.8733602922453927
Ni 2.814563598279996 1.822044600843128 0.41075149132354727 0.004409184811289181 -0.5336864542912744 -0.07785094684120786
Ni 0.7121287636092128 9.259742880515008 4.783758906532837 0.03525496654755219 -0.24546219036669986 -0.0644135903893794
Ni 8.616052352877015 2.329146212152003 1.534111909874783 0.26724509056974616 0.18304300469952992 -0.6558652765155801
Ni 7.124651494210264 0.534594821584085 4.837266857184561 -0.322763949572657 0.9046832707283904 -0.8575608633192907
Ni 0.9317525282060394 7.693767457600242 2.6659651659113752 -0.4126435454436248 0.18204490245231875 -0.30607183362895674
Ni 7.559493454384681 3.7261148925185243 3.8765001484466706 1.0423889849437016 0.722151401337324 -0.15678201412047194
Ni 7.647252172224739 3.6339704994438002 12.706362759511508 -0.6948131185336873 0.5919180842396581 -0.24059509208238566
Ni 7.791156575697865 8.881290756966102 7.093337773034752 0.4724584607187282 -0.031055069533591675 -0.47426491779984775
Ni 6.857450839552264 0.9077805177996514 0.4295502134788999 -0.579723341945679 -0.4337327620137562 -0.22689908265253178
Ni 1.7921406255832542 6.680956799902366 8.952642528113836 0.7848621501029838 -0.7849760499730287 0.6211553838382206
Ni 0.04718986552500036 4.8090330555656 1.3560381228774707 -0.6958348749299823 -0.6153382629358112 0.7205732582169267
Ni 6.3385305116831665 1.9712027719685024 7.043852888180766 0.8442937138967395 0.6433200928607178 0.2749244614918749
Ni 3.267526987671464 4.2461926769444 0.6293624814331932 -0.4059586772242815 0.41541956552686526 -0.5525768634378742
Ni 5.868060591870435 5.732855197831842 4.841157900593791 0.34566682231275947 -0.5855065242863593 0.017412024828860336
Ni 5.260649093183944 2.7034568114586874 9.595112300789603 -0.29717016026395277 0.05974318149690356 -1.0179233957021694
P 0.13084322964023784 5.422448860140376 12.484626636698563 0.6329827154904518 0.10917263977262487 -1.2832221611788224
P 4.055158089299981 5.994865383243042 12.858668669913557 -1.5860392353159074 0.8891036711225785 -1.120708643891212
P 2.4297635489275136 8.386125416398997 1.2862100347751815 1.1275935439365032 0.7279191570590368 -0.35389898041456475
P 6.354463624597559 7.756794584168528 5.788121939892107 -0.24232544450993107 -1.1488066876790086 0.3910866452084555
P 4.73793086098792 1.3604997561986747 12.610185353746761 0.11598477759845185 -0.4801805119533343 -0.2393499068213749
P 4.034016421880089 6.1383538257660755 8.10348447212617 -0.7639256570606328 0.6841466399587764 -0.4397913095030104
P 4.599334480943142 0.8634680169337656 3.699921108080884 0.8231664449998212 1.369054840673926 -0.3445836165509098
P 0.19797570993334376 5.870556357570988 3.5460535355901204 -0.011704432921121777 -1.5192936543592415 -0.30645672777220123
Ni 1.6984228150016607 1.1059316547423816 2.4722476301388645 -0.5070819643298686 -0.5829996987041056 0.698531705035855
Ni 1.8797998745004645 6.78189967133447 4.650259856652555 -0.9930014356495093 -0.760176988651478 0.46673801329518333
Ni 5.910976910764709 5.500305898842375 9.185243370090596 0.38058008925017683 1.1341046055821435 0.7055387324813075
Ni 8.628042879394883 2.4262097955930315 10.145706246482334 0.3235082839378493 0.015416077444754097 0.29910825782693
Ni 2.1643895053981788 5.597785443233496 6.785429913832642 0.195251888060896 -1.2345442363571448 0.42879547261313894
Ni 0.4047200575472135 9.182609252160994 9.19813454249171 0.31852728578349015 -0.20971202935028402 0.9321557651170462
Ni 1.8104790779047006 0.8957719060230828 11.647751184156764 -1.0591317516196792 1.012503767348495 -0.6664913887708586
Ni 4.476915364805201 6.7568877585528515 1.7176393066329754 -0.7331780914651308 -0.27003807993385104 -0.5602276951149125
Ni 5.824393734740127 7.742642869236051 8.048731351412975 -1.310248312058679 0.14767182428908762 -0.17296505163823758
Ni 5.412511010484916 2.607514514057037 4.77141119615565 -0.5078149858411511 -0.03600392889843476 0.6704202915116196
Ni 0.9784486661685391 7.835203223260866 7.025430339406366 -0.8552090752576627 -0.7896541721749885 -0.6579455560833766
Ni 5.028922673465312 4.363141002325695 7.313816066105137 -0.2671638437098496 -0.883058493369763 -1.0994206810467129
Ni 8.098325652082094 7.288404469106257 8.850430071521016 -0.1430986030961084 -1.0963189021929376 0.8624374746853017
Ni 4.360419170891397 0.3206959456286332 10.608779295486908 0.27786091841237953 0.38833710748777633 -0.3105036441480652
Ni 8.252556738272721 7.377221174580244 4.774216219779967 -0.048235695077936284 -0.22499955163697377 0.20398978215452612
Ni 7.063387680365194 5.819845292177165 6.893042628673178 0.4356646889291465 1.1630827379820485 0.9180108410752319
Ni 2.1776731279130725 5.265703922990497 2.588568397043282 -0.026937190710476188 -0.38363018893041023 0.6596630529951154
Ni 2.5458980376673246 5.319670334950257 11.349610268915402 -1.3693538599715835 -0.20069079968828019 0.7434488772635196
Ni 1.1345334913758804 3.2780706934933606 3.840051118063393 -0.3889359174140398 0.2833376252562346 0.7874003431438052
Ni 3.6314204779671493 2.7398895651091353 2.8516501340324356 -0.7824759092589944 -0.41724427744042986 -0.36142022849227434
Ni 0.8414175652642156 3.3292519756133743 7.8970873614793335 0.543569003512309 1.598943344972085 1.1333911244548869
Ni 3.6527158700859896 2.230029951848563 7.2355855668109905 0.3115243721030957 0.7854270214675183 -0.6056572882026214
Ni 3.909553671509088 6.882942011689423 5.768547360138539 1.869503101737361 0.4570300419788 1.0217450834411048
Ni 0.6663251331635408 7.179630680657204 10.967654126493441 0.223196436989964 -0.9363255802240198 1.44920126841753
P 0.15125606113453433 5.718992847038559 7.727231516035142 -0.5851457985128309 0.09640119903956945 0.5095525373575482
P 8.473857006351006 1.6783391352156978 7.996798626793992 -0.9520342492085281 0.43724308915985993 0.423015118485936
P 1.663138475278641 3.483401678139853 10.09697642117906 0.3464438096881001 -0.19612503469446868 0.4042517218355038
P 3.9158473415365673 5.955828352339844 3.70352097882505 0.17362813914353323 0.35380204982538427 0.5031389205217206
P 6.908406055938532 3.9950879025290895 10.461396192502903 0.36918264604651263 -0.6115111758802372 0.396536098358801
P 6.2537649041579 7.720795876726871 10.360057253905275 0.2698789286481674 0.10631305883664272 -0.37522345292395376
P 2.607234192547192 8.613330521442716 5.82840866217145 -0.5636745160129325 0.9352976531801376 -0.1121468919096004
P 6.9252343891585575 3.9302703353495394 1.5932850678141723 0.493334275726473 1.0925632918052475 -0.06480954027621741
Ni 5.146784304410939 2.907449486961405 0.9080915842492854 -0.17190061492946523 0.07763111752091792 -1.6763402349950096
Ni 1.4538558616062751 1.094664538572499 7.3122019567661924 0.4871158056205869 0.06308895804068489 -1.9574530846857836
Ni 6.940507390130413 0.6334904417313886 9.39731834770619 -0.5352915939948653 -0.16464701869084547 -0.9546927698772978
Ni 2.6256359432740877 1.5980677144772952 9.290831440219707 -0.08105685537301524 0.20786186351542266 0.8250628906915856
Ni 6.364754136797661 2.0213803222306854 2.6205838262563397 0.5245443827806902 -1.6867804564917273 1.1109209683768286
Ni 4.150250379542749 6.866755705153235 10.279722534761426 -0.029556630611194255 0.36469812791259765 -0.2808914777085872
Ni 8.151414928994921 7.0302012306513335 0.25350107119301346 -0.6037315319348182 0.8306774086648855 0.556697313364151
Ni 7.484114096124535 3.8988743262469443 8.348460152368169 0.23072745525968652 -0.8347145548487366 -0.8253752797256817
Ni 2.8496580427866696 7.813103037129892 12.204128795581644 0.43725131668997597 -0.004854756989140026 0.5884010722253351
Ni -0.002688373705703178 5.025649241640674 9.985155266639113 0.7072703704604335 -0.6346739871499456 -0.2914332577801755
Ni 8.721218132215487 2.279574518056258 5.870045449012722 -0.17944680270783936 0.968375666681029 -0.4037518993809498
Ni 3.406051026681444 2.7900761580006677 11.359350989251034 0.05670825132532168 0.05637143681119324 0.5637418789157581
Ni 0.9208832877275488 3.266025911199393 12.205716681295476 0.7640629539694453 0.09084787332150805 0.45700561649876775
Ni 3.2609168256167416 8.43890724391393 7.988010095328896 0.8083913435731754 -0.07325355727851256 0.3096178991090022
Ni 5.546830226847228 7.810806209275037 3.6544728529686603 1.2003382798993973 0.7975464304388716 -0.003975182597664122
Ni 3.290612820401569 8.252610994048819 3.4753926213247124 -1.453176451015194 0.258403066798084 -0.40325593358113776
Ni 3.5394569374794225 4.373115022498553 9.359096057707411 -0.47098624704857595 -0.052573146111025586 -0.7423085930114893
Ni 7.290556614891516 6.0614462631458075 11.313228153989312 -0.14714731924418528 -0.16165142639763128 0.20862908069875036
Ni 0.6254198950366693 -0.13209292101638376 0.19551611475019118 -0.3581338444315187 0.1629130667188743 0.4404417986028156
Ni 4.621588391773063 0.3407651572076363 1.401829997904988 -0.974482293799399 -0.1937426505052212 0.461918737529669
Ni 5.995706347772575 5.603409958689087 0.12879507409250232 1.9105512779279226 -0.41436438478947346 1.6990304775036738
Ni 8.118192308763662 8.692670551358088 11.298431699584194 -1.1353017112140384 0.4832293260819871 0.698115700544359
Ni -0.08077780798199291 5.0693251414003315 5.590645383098873 0.4204650983705726 -0.9973931369593017 -0.17632394080814148
Ni 8.064162598398452 8.996502897512231 2.3557414893327753 -0.14640401332025754 -0.1150694648730341 0.4158923913982257
P 8.58567816089095 1.7145819936497992 3.625899048486146 -0.27647920757350447 -0.7249708730639902 0.47057204232929284
P 1.6354499442094745 3.161646840614355 1.7468352440147576 0.8696172802631927 0.8171307803287025 -1.3013306978540748
P 4.997915497424759 0.8382128574226374 8.361535794408015 -0.8157868647062984 0.3116691252110762 0.032578705266969696
P 8.507170052875763 1.4880731710660156 12.382652905520578 1.1826190082427632 0.6954057578123637 -0.05329125522397273
P 6.323673471661403 7.996469475085657 1.4437181698421855 0.9290845823908901 -0.62954797877729 -0.5049512911401111
P 1.804076896325024 3.4945964532749376 6.008468210573984 -0.15694579339184583 -0.7935766471578461 -0.3353587555185321
P 6.775931535963585 3.890844471384299 5.93062111876427 0.27791773979224393 0.252822487386513 0.298532330718802
P 2.232335822332769 8.497168904814856 10.173182275761778 1.2167144072645755 -0.37816916581583904 -0.7961228106184676
