# total energy = -340869.7930055414 ev
CRYSTAL
PRIMVEC
9.20687000977523 0.00000000000000 0.00000000000000

0.00000000000000 9.20687000977523 0.00000000000000

0.00000000000000 0.00000000000000 13.47518490399100

PRIMCOORD
 96 1
Ni 9.021139889858896 9.277762979598245 7.072693657580257 -1.4153676076975366 -0.09375064879059984 1.9460556414821195
Ni 2.8435786516828783 1.3150909084845233 9.835833726748344 0.09466750417791438 0.007563928390186973 -0.5037711547890807
Ni 8.98251706987337 6.744105988547734 9.546844805929824 0.45723444468012214 -0.017332834851492732 -0.2261498631913331
Ni 5.717512354019458 7.520217515680008 10.128110420872426 -1.5548167869665157 -0.7182839479621178 0.6825656686249019
Ni 6.408405091691416 6.252753746119233 5.7552384248591935 1.024195087643494 1.4021801624729853 1.8940414531983574
Ni 9.027290079072325 2.4715934798413497 6.792598573259 0.1904845485792397 0.7874142271008762 0.43564000633879807
Ni 5.080940149819396 0.4137843620046481 -0.11153938964497054 0.05770532513126836 0.46670895982946076 0.49232717461819725
Ni 5.582456776816196 0.9276197811684647 9.400356137461243 0.08142555156634364 0.3795904716433978 -0.12919124898639686
Ni 2.1766606036991942 6.080124932119564 8.549317260244054 -0.43930794210868856 -0.33362788887035444 0.03231928095799595
Ni 4.6636663840544355 2.7559108347812855 6.071338816002236 -3.832506169707097 -1.136950559671371 1.6213538514568013
Ni 4.506643214840335 0.3900573371215255 2.7255714358067196 -1.2716812504187585 -0.6838802736712674 -1.8570880159024599
Ni 6.005319112719707 4.045351403222978 5.1883097480051426 2.3888597696695246 1.958531405351627 -1.5146564126975464
Ni 0.6026734292525747 1.1679835383465647 4.074356726722955 -0.7032746190374791 0.23187416726962004 -0.3568742609928047
Ni 8.565915405624246 4.4309535359128 4.887274558373975 1.1601226269124603 0.7338136681666008 2.0886541650133577
Ni 2.9353251120299024 7.138417820333219 2.5044307026686154 -0.3569115419886434 0.21212552388778305 -0.6551304552320846
Ni 2.155945146019234 4.854764179434549 12.734737381428845 -0.6356762031622148 -0.49362223928053695 -1.7109254291690468
Ni 8.385110890993554 0.13628377367193117 2.382790455858896 1.8038078164220805 -0.7846796017785325 -0.1626551850717973
Ni 7.728615019940409 4.710142664218186 7.251401767893738 1.8446294784241328 1.1556093124231388 -0.09918878908703563
Ni 1.1698893604531213 3.3020715747959204 10.379948700231207 -0.2551387942245154 0.8496737472617303 -0.378247070241626
Ni 6.497085664301807 3.190511930036774 13.38631586317227 0.9391406810753116 -1.0711763414890392 -0.3012348172516296
Ni 3.3622016432882855 2.291378204895775 0.8599603343246903 -0.3307341122623272 -0.43626632706888735 -0.5450972672313773
Ni 2.2232565731739853 7.177896879236183 5.096314702165959 0.5620110122675805 -0.8163193401710005 0.3589288295289883
Ni 2.713559232413367 0.43485520486969576 4.671725157435443 1.033318904321633 -0.2374190083472492 0.7185107192609432
Ni 0.830787445789258 2.695725525068441 12.537392724699462 1.801289677985917 -0.2663819712385025 2.8909735913608405
P 0.9444131121943526 6.028778217683502 1.804313601863523 -0.2591016355270054 1.5484077981163784 0.27973705238916985
P 0.8860452386352963 0.04893635584912235 8.899780452586615 0.8327047235075595 0.41458061456533757 0.7426094120813598
P 4.607845130759502 8.364929431778233 4.536124533523447 -1.5176316932757863 1.8003496826701508 1.1375357427508797
P 0.6257964834584504 8.666159807055095 5.34008131852562 4.371939039563845 -0.6668462010071161 -0.7155246400494257
P 6.564839021220397 8.85675122458081 1.1372473232715514 1.1992697294255668 -2.142516462249452 -0.48511728713331936
P 6.228171403005681 5.75867627014706 11.545781513727087 -0.7045797110021479 0.34984049407447493 0.2822803876363138
P 9.203896260946546 8.171824538720681 11.679630070262863 -0.6904414718285529 0.025130476519040587 0.4021678427232816
P 4.298402227371294 6.55249260844314 8.487129456288812 0.6479920444150905 -2.0370536672282467 1.6404666610268521
Ni 6.631837414792428 1.3792351723317604 2.1905933601912317 -3.490412409457576 2.1302836676286856 0.06247754970893111
Ni 4.24250731911572 0.5270979155140313 6.745488860433747 0.18866035088630734 -0.3213328735530853 -1.0411669396111425
Ni 4.929349033952486 1.9239320200036782 11.529341726512273 -0.44892155393905264 0.5581481868780646 -0.029506236989233055
Ni 6.182302776267208 4.924773219522735 2.7327003153096503 -0.9276355086491894 -0.6515368243435553 -0.8581884696009607
Ni 8.472226295690346 0.9551114952272921 13.14551477966537 0.44079686794938927 -2.0001498522233616 -0.44675000020903055
Ni 2.4377950597777347 7.302990623012904 12.475501381960797 -1.0037674159167618 1.0964297167391892 0.8457852108406014
Ni 9.046652126850526 6.762823555420337 5.875315345129332 -1.5567577127429706 -0.25423376591174285 0.34850017799649663
Ni 3.9917582124874005 8.555999606548106 8.64733636117657 0.4228135439980912 0.578059838200327 1.1316916252652767
Ni 7.9069889208699875 9.026397012674565 4.894686088788361 -1.0170957575945516 1.9887146138032266 1.3333345044541811
Ni 3.0007491308182574 2.5478171572335238 3.3444461943390396 0.055351737297427255 0.004906179052365744 -0.14808294368457722
Ni 0.6863638782796144 0.9126696655325893 10.970929404482202 -0.8391615348764966 -0.8998261997464052 -0.37675145953270595
Ni 0.31951613994271655 7.877085006850206 0.873154699836313 1.6499018382978228 1.7857874685852602 -0.31382268121896917
Ni 3.7503816996005024 4.575777602270923 1.906226288152864 -0.01828028636642658 0.8436049153598311 0.2553033448268377
Ni 0.5544450817126029 7.613851384393429 3.356816544978504 -0.35316673023423045 -0.48336790854238043 0.061524441767042436
Ni 4.611141190248135 6.36941399690269 4.225022552146826 -0.2231326736315641 -2.122216060129203 -1.4065916612771194
Ni 2.7472103425557024 0.6713898247815311 12.245735652931765 -0.6761065432631195 1.5788676572681324 -0.8452056841880476
Ni 1.3676068954207428 4.041917240683144 1.35232901521002 0.7858558814748208 -1.5079905706415964 -0.33867804969975224
Ni 2.9594194910292164 8.927137746342275 0.7647677425067284 -0.5719516684200601 -0.8526418287511187 1.995058296633067
Ni 8.050726576558674 2.788245362502184 11.504318374321887 -0.6123208162657262 -3.123209769955569 -0.15402013510461862
Ni 6.517396019698247 8.163216115195898 3.5475037139530508 -1.5396007413477097 -1.3551875957735304 -1.770269061234687
Ni 7.0357520120713355 5.127057362050028 9.583362935415067 -1.693554284880451 0.302045486078383 -2.3690828441529135
Ni 3.734463021232213 6.086901188498431 10.908836431288787 0.7331127854448342 -0.02858963871223463 -0.9467912556420339
Ni 6.967667207829865 7.779547425222871 12.439226313845666 0.2519274863760694 -0.32100171546591166 0.5906345895415441
Ni 8.509679843175714 2.40344422750932 1.360118027297685 1.5927958373134505 0.8830556651562856 0.03807212428137314
P 6.426045454764662 2.9524683041188298 10.139268226722356 -0.2628729296439795 -0.8135026966578118 0.1117573697806656
P 1.095111161663504 5.257067574449459 6.646851057831856 0.6458726840792425 -1.1284515210614245 0.007860119474367109
P 3.529913988665245 6.055284796643772 0.26401528572656674 1.6244851979969313 0.11489103031364084 0.988612048332562
P 1.0909680701275122 0.8686866057864976 0.9764861648049793 -0.014968962605006476 0.23678831674178577 -0.09437054176278586
P 2.982040770815733 2.9223434252171274 11.5935771383733 -0.17622366778485132 -0.06232148374704106 0.17161290848571734
P 7.427762126336825 6.079664588615565 3.9600608001760373 1.1993103528555151 0.7748207067065818 -0.9984341766293061
P 3.9467734452766066 4.248942921301628 4.508150379472428 -0.8433316070937863 -0.29810835580750594 -0.33619822070069194
P 8.623053241340617 4.205698252535951 13.455470505717035 -0.6392214973113121 -0.8857501812693133 0.5982352847069374
Ni 2.3103075297802187 1.868681592653704 7.092313497720699 -0.3885425386303631 -2.5834789092424284 0.48807662687195946
Ni 6.952660009599494 0.7039692552465567 11.505301668046428 -0.898436261377414 0.44069093849914426 -0.35541490283845883
Ni 3.3575982082482945 5.0405496107785135 6.628673013545938 -1.3728970972381516 -0.8034188300592486 -1.2782277932880244
Ni 2.512646913527991 3.5091985309852842 8.592883248775523 -0.31586696534250763 1.8630794575992042 -0.3957030609345443
Ni 7.58725273673236 8.644809075339616 9.72773586513927 1.7695751204914556 -0.6710872356716571 -0.7184577545358207
Ni 6.575012612658777 5.62757964707819 0.26369488664778334 -0.3736409389281823 -1.6779579731040908 -1.5213597928596507
Ni 5.4456611011678175 1.1561619171638673 4.607529335115758 1.6825664184103797 0.39917353598164806 0.6894297427345868
Ni 4.605313241487506 4.234405273445336 12.403112365956936 -0.256139724685204 1.0885603412934415 0.5346601310584533
Ni 8.633668762542836 4.448345313493887 2.559503437426046 -0.33574827764746695 3.226525436726785 -1.2691826523666208
Ni 4.539198707443153 3.993737689554597 9.832789014812894 0.10450994418963293 -0.22411046416380115 0.33783035698747627
Ni 2.1924227652761243 8.352665880831696 7.291975523649213 -1.2649930397653053 0.3914203743987904 -0.5287977587404054
Ni 2.263067079399829 7.956015504045894 10.265166650944067 -0.9434719614608139 1.6569474322906947 -0.983443616757745
Ni 4.317635378968377 7.137092031041701 6.475203696182712 0.018061485487401153 1.746745781301766 -0.23184305692136845
Ni 6.515066681568012 2.736926268676362 7.501608589874347 -0.14153588659467883 -1.1731825454202118 1.7154762817645228
Ni 8.262990966252666 4.831829866065314 11.301287554631108 2.268272717412371 2.6040042828892895 0.795285916539469
Ni 7.554816933440582 6.941961626566554 1.7040857727988186 0.8089546722758132 0.4140525099760095 1.6528359812254827
Ni 1.8731837521228152 3.1497807368029322 5.409222150765264 -0.14720671172721098 1.948577893683341 -0.4476861388700548
Ni 7.526294049932797 2.849240876782067 3.583496131156726 -0.6323962468593626 -1.860577260002641 0.5997928590020444
Ni 8.158023440470787 1.6290175576016825 9.174041143338187 -0.2900644024571069 -0.4450541005638465 -0.17819056170323505
Ni 5.042971017609549 7.289769557578049 1.197474063899756 -0.2098621817749031 -0.1645449458953424 0.6151749978850696
Ni -0.00019702701971162291 6.227204681647282 12.895913769736023 0.3152267606553474 -0.33872638643918435 -0.2630570206303276
Ni 2.0459046348232848 5.167134867508191 3.552139373038322 -0.5491958627807831 -0.7250315510985965 1.1703713012236616
Ni 5.370275248952923 4.8132964365943085 7.686690616344202 -0.10914924273385718 0.5056616869435743 0.06929945772677099
Ni 6.498503522294124 -0.005937510514580637 7.398752199401809 0.48212606571547933 -0.18059428604872121 -0.5659501994209866
P 8.740044939446953 3.6224062054887476 9.007204371305834 0.11643626331357367 1.3926657952246466 -1.0810383218847834
P 7.380641365267476 7.228194010483127 7.730282384111894 0.4230045769629747 -0.5096795498537158 0.3342297841204115
P 5.249425872283074 3.0736951624619575 1.6057840209548468 0.45691922743254854 -0.33078373455334004 0.3533024844811464
P 0.7432927180451695 3.128927176071772 3.5722582255370994 0.41086819871075697 1.4705560799442223 -0.9103499820958644
P 7.25810713137299 2.1745338167107184 5.614354898895304 -0.40235244793026187 -0.9663084997393552 -0.6982411703786298
P 4.354030136394548 8.707157999521257 11.593698669058357 0.5185732527989197 -0.9578734815981246 -1.7887138982034356
P 1.5107184839439889 5.918111639322114 10.683854591953315 -0.5054282307765295 -1.189624750136635 0.5560864192530294
P 4.225750815570152 2.2949780910970476 8.25740515817514 0.5558051405671847 -0.5008987183372922 -0.7680592196130321
