# total energy = -340854.4430998218 ev
CRYSTAL
PRIMVEC
9.41526849798371 0.00000000000000 0.00000000000000
0.00000000000000 9.41526849798371 0.00000000000000
0.00000000000000 0.00000000000000 13.78019715671982
PRIMCOORD
 96 1
Ni 7.212236924131954 0.6424951000067718 8.367005486613627 -2.8089458874341235 0.026592148666231618 -1.966049568105543
Ni 1.0574099782320339 2.5307394438416373 2.5656522010831715 0.1698776709621655 0.4410892023788274 -0.7656035589836879
Ni 6.76311919991243 8.304652870763983 6.269741239853332 0.19382955379207265 1.336033391442583 3.1651241508011685
Ni 8.495801652489833 2.3573196127605405 7.02225092806974 -0.6502867539865381 -0.044112416938182096 0.4510414284955329
Ni 6.8672144087963325 2.636576477403862 2.940666112798928 -0.16670107300639678 -0.18879456247132648 -0.410040560603139
Ni 1.1191082329187394 7.498752960813036 1.330512081836335 1.082127184073588 -0.32917011020931697 0.7122883925003153
Ni 6.941171343111009 1.6835065050375488 11.427889514129742 -0.847589611039192 -1.7063213547381322 -1.746288382049373
Ni 3.290335063154828 0.2622378252458409 11.16486739701523 0.4564834254467106 1.456241463093763 0.2759906979728602
Ni 4.018201227516974 3.2155025088667255 2.3306725197627816 0.23066034946717695 -0.9822624519654503 -0.37015580859305924
Ni 4.663241274607801 6.786826846074665 2.619271213843025 -0.030632123063560147 -0.8700219719007791 -0.25360178875469874
Ni 6.528566030256515 5.231320916722415 10.277560250760656 -0.48357436812623167 1.3757553926225532 -0.66343100467798
Ni 2.979132192384238 3.84005493163308 11.67623699371111 0.5331007569911336 0.00495965799812049 -0.8518890097454942
Ni 2.0653709661368014 8.502787781740182 13.031740022810517 -0.962919014441832 -0.39331322054612905 -0.7731494896517459
Ni 3.9359871027002007 7.409091358587873 11.722964971432782 0.01650288275102964 -0.7465781669211207 1.3704725469570591
Ni 5.093217757902852 1.0027637596753975 9.40797452293601 -0.440490392452564 0.08842975079831868 -0.12172785072981616
Ni 6.141899782206215 3.16631714605834 7.0575007519247 0.06604469823489915 -1.6268716959512368 -1.6455790425527532
Ni 1.1440022029159391 1.6632260166207684 12.421731365344721 -0.18863695384753965 -1.3669339376761815 1.110433744327765
Ni 4.677298270525282 2.1179929019591723 11.638547673779644 -0.08197216809843302 -2.8588980509825346 -1.8329911228542561
Ni 6.267442972804801 8.399615269172363 10.789949521038494 -0.2853001482992441 0.44401923154142886 -1.390250758025251
Ni 2.083052840438897 3.206087240335258 4.717801814220802 -1.9859213673288056 -2.3896272439631683 3.008255233393845
Ni 5.535829531567131 9.006551724516342 12.879041314713474 -1.0642148225695411 1.8425126891914463 0.6305921037710882
Ni 3.68040963841352 1.4067635170921293 5.122237498570541 -1.3264015247797738 0.6385591811369649 0.9658847819383752
Ni 5.040605237349012 4.700874102928076 8.138377345444564 0.026019821102529383 -0.776492695092366 1.4200344170455867
Ni 6.086980520862166 1.1409045795690862 1.1594366526195734 -0.5336581721565002 -0.2627387180589604 0.34374800802349187
P 1.6182775246515433 6.542161678015954 9.351048867867906 -0.00732198758270997 0.07196157793996638 -2.1785733558730094
P 5.48526012428462 0.8491658934335987 6.768681740560821 0.12493941568857839 -0.5747521139833327 1.7623582910280424
P 8.538236267761157 3.9933260880568366 2.5631166692676475 1.169053867963819 -0.501356374700001 0.7764042491436177
P 2.056624181671068 6.035375434041194 12.87416326408732 1.5039462253688938 0.19243498743739115 0.49054231480363253
P 1.4555816844277878 0.9436829496404399 4.421058912860839 0.15047972605152796 1.4302602085386529 0.2073234745134494
P 9.077072085817033 0.11964923249788695 7.187792062443705 0.9078948356871526 -0.29853104516722134 -0.29373079556510057
P 6.937188684522198 7.035710054435472 9.101103617216749 1.2094482126204653 0.48493473880886806 -0.637021661446516
P 2.4624975775255624 2.6149307750500186 0.2366697220217882 0.8778972608837977 -1.0563588168602325 1.1846190693919276
Ni 2.836453213058382 5.323336336080444 7.721788432474407 -1.7212908315637712 -1.7877222237141277 1.0008731250881022
Ni 3.347033810251324 8.57168871685346 3.202352203308825 -1.3357431138956737 1.3912804848413458 -0.24126717844874576
Ni 1.1647440394907616 3.9744484746512447 13.131233048436238 -0.4910714478342253 -0.08658678405230893 -0.6783282335047865
Ni 1.2505924579606806 5.7732920191992685 5.613652375140827 -0.4458426579034129 -0.8272850951538849 1.1004457798771177
Ni 0.1292057300573263 6.852865539554377 13.138784093798474 -0.40008396361105936 -1.6067600128030264 -2.0689014078664627
Ni 8.778316200045042 8.653893426401702 9.187161054648067 0.7702235742542025 -1.3788612852413866 -0.3688931398305518
Ni -0.013405459335103197 0.25486472845884883 2.9764808527657767 1.765248982312276 -0.3458925651703204 0.8472551105179086
Ni 5.185242592529413 5.152402135891656 5.815105226747515 -0.379392753810295 0.8932632018169068 0.9369727268897153
Ni 0.028275934453702713 5.0916359927895645 0.7855412748053551 -1.3588267351880148 0.43637379918102914 2.6945009435189657
Ni 5.3018318627545735 4.725193741544856 12.129494611503919 -2.1114032857844154 -0.09924381069468714 -0.3287659327923628
Ni 2.7678629818066427 3.002453812536683 8.747476487970221 1.2388282084444795 -0.637192125586109 0.51392701227616
Ni 8.367245575961178 7.142460369045248 10.854344308632612 0.35749646795783596 -1.018806055417439 1.1539038996962578
Ni 8.54300980890661 1.7299802705088716 0.9897132559639306 0.5752982162947898 0.12656975220314975 0.5540007403685943
Ni 4.790403891393798 2.5687677134402342 13.573439024026813 -2.740315430749919 -1.0232129262358831 3.150043602318962
Ni 8.990169157271588 8.8796150741751 13.63710318678289 -0.5973325703870099 2.5170454602095425 0.32205715331361956
Ni 6.858411132719412 5.118912025725225 1.7546463910076098 1.0062156203469381 -0.6136912142506915 1.3117714335714248
Ni 9.194574637089744 7.798120839039572 5.264807260781431 0.40045317402501995 -0.14318190683853405 -0.9973471142127146
Ni 7.0455113489767305 4.254788095175685 4.747264072509468 0.46781067753407174 0.6064890400752974 -0.16281433635748088
Ni 2.8642282552262106 5.411331435775539 1.3721219195843017 -2.13325869109661 0.38171625973714907 0.22256677382576506
Ni 8.38336451568705 2.646999179668196 12.625705625864134 0.6380331334301658 2.155364521856714 0.6280744795555571
Ni 3.4896562979659915 0.20064784614724732 7.24528357515055 3.75900784340763 0.2584344342566517 -0.5326086478460634
Ni 3.1406982003842177 6.565455052362805 4.6345972031545175 1.0130347001513007 0.3929774344732651 -1.3886168219662536
Ni 7.212839501317967 3.5363936909561953 9.05031012654319 0.7508048034079586 -2.0978201477833416 -0.052293152976761556
Ni 6.8559066712900405 8.607862178551358 3.949156238795164 0.52017710695093 -0.6115392009046952 -1.84432351714794
P 4.775866716781214 4.916220124779797 3.7403312319283373 3.1769962196484056 0.7491394998903936 -0.25109136362801915
P 0.08054668075984994 4.1808029150554145 6.500064129358058 -0.26241861571538033 -0.08821814900814484 0.06670701440924641
P 8.700009411668828 4.1564362000959765 10.603599701683132 -1.260892901554003 -1.1668442619070098 2.2657661489404335
P 4.891778087672107 3.357927275942232 10.1360930164948 0.3197670717278622 2.590686739844777 -2.389956088057497
P 1.1989779558711768 7.684459717327697 3.5265867472538193 0.4946895042027868 -0.03920006723822926 0.19077456901583273
P 7.625538966857775 9.416774974432373 2.097221878051902 -1.6840630575605644 -0.8487196108785771 -2.0167244687525914
P 4.848646742529456 1.301952747799835 3.3953991031706185 0.9621584821267235 -0.5171537467435738 -1.580074790202356
P 7.345218176870398 6.813867497297039 5.080455361408447 -0.4946902755337351 -3.6201569598442815 -1.2041216582012295
Ni 8.913707761527542 5.642203235435649 9.105705800474931 0.6812168679064914 1.0768672212262291 -0.5788900474111063
Ni 1.6440659451592323 8.238783652117837 10.670378435269418 -0.9957607435622013 -1.4694787877196434 -0.06191884899198369
Ni 4.899404455182597 8.802391041680004 4.939663201896298 -1.3154617379388183 -0.12761362008663182 0.6157588954129976
Ni 7.366609666973892 5.47230471478532 7.498494040928421 -0.8692074464192837 0.344294110334949 -1.8132915875427997
Ni 4.141418846788286 5.934264865281766 9.820650450304491 -1.3060273319987958 0.15040619250111514 1.1207184140832245
Ni 9.09322868661703 2.765575071553496 4.661372343804304 -0.28866006591041254 0.7286372661719839 -0.5296709053739782
Ni 0.741909037376829 5.562785445372722 3.2956302101769253 0.5087074157484335 -1.4125982724825155 -0.5622771214447735
Ni 4.845219584784002 4.725739827119681 0.65907068025642 -3.5822380733113213 4.177624318605237 0.9586676953646458
Ni 5.0812227057937625 7.145209627456437 7.932280883398156 -0.14318550638295985 0.7274123926259473 -0.5218920327595076
Ni 0.5131406087066482 7.252826146771109 7.41458705082969 0.6817300600974839 0.2984559689549118 1.1765139237862898
Ni 0.4589397323515503 3.467050238221938 8.959443369945998 0.7186755269735816 0.08560513686532999 -1.2330478543172765
Ni 1.4539999193145012 0.43191508708567955 1.0945334405247564 0.8208200562548316 1.6045789459913076 -0.27704073650392935
Ni 8.451709949956971 7.0173691113361745 2.508381947186815 2.014067233635402 0.041612790444779946 1.9527659636227594
Ni 7.271261242555722 7.500466539685763 12.824981667386346 -0.19334747194933152 -0.5304898017308477 0.9502925839270732
Ni 2.006177172879466 8.69758027238771 5.9191599499767324 -0.7269596213592449 -0.7433843425741713 -1.2008046780128545
Ni 1.0959372570627983 5.343739222988134 10.954113201626305 -0.10844296069545194 -0.39997494883702084 1.0628526521146924
Ni 3.7084765539058235 8.260109235341611 0.7386654773677386 0.9310638176044481 -0.593123674511985 0.699543434129821
Ni 6.605582926843919 7.347336612289978 1.6420482531129388 -2.331889522932068 2.8645056269772993 -2.8748620305109585
Ni 8.243820820782172 0.5550780977995101 5.1594984237838215 1.2506447414634332 0.7028514154571315 0.9229990383184425
Ni 8.815214637419862 1.521102538138269 9.454194076156984 1.8843499369422063 0.7790447720902584 2.4068829457198224
Ni 7.461063640881572 5.162241091507038 12.357323396374657 2.6576166688981067 -0.6373065396767863 1.300244920989064
Ni 2.014905126808136 -0.0024715079895101764 8.653936736636947 -2.6584556198596343 0.4206749003885335 2.1190870275819185
Ni 6.270728901522283 1.7568326163606167 5.098273757104249 0.010715329534975095 0.6387121617750613 -1.1232748619564914
Ni 1.453256113100515 1.8418242453941722 6.600218106834689 -0.1781252556829384 -0.8884205290126247 0.5550209541029925
P 4.201723641732335 8.281415988028321 9.74232388986436 0.20253942286124477 0.4055547569176435 -0.7915920126276496
P 1.732324672373207 1.7250560850669143 10.432435768942176 0.21416286603278598 0.49297226440136394 -2.1733753566118375
P 9.205759976105128 9.141905624924716 11.35945745938933 -0.680972355995853 0.8142241482048687 0.8922787264164503
P 3.2570426736275597 6.9657734397837325 6.712348305883346 0.11070398881548676 2.552587104759578 -1.2921518595682844
P 6.368261668239753 3.709549894518411 0.2432594684669622 6.578880919277219 -2.567584863719991 -2.0225305339114072
P 5.314843763865061 6.910778856291432 13.548193864513388 -0.5784743000299263 -0.2454580766016418 0.5382442488652859
P 3.28463882569329 3.217865741268124 6.593975783798325 0.4727631364433406 0.5552258710249469 0.4393017714611015
P 2.7682866688905583 4.497909159195235 3.5460170369222084 -1.4348064331484387 3.3516841675150215 -3.483093764308976
