# total energy = -381170.1107056585 ev
CRYSTAL
PRIMVEC
9.26964871199061 0.00000000000000 0.00000000000000
0.00000000000000 9.26964871199061 0.00000000000000
0.00000000000000 0.00000000000000 13.56706788044678
PRIMCOORD
 96 1
Ni 3.9472573374420783 1.6715957120066176 10.226692420191704 0.7359880501101002 -1.400328196865911 -0.9256408468166638
Ni 0.5532163296780334 1.69514061916847 3.1158940812758678 0.28215388936077856 -0.5679047520441961 0.9881435933365756
Ni 3.0425859931661074 4.516830888843657 7.971113488207483 0.02532356636645316 -0.06993169199413117 7.044822661923351e-05
Ni 3.171471185756026 2.9293294279285047 2.357861160375792 0.2579289553751429 0.640231169522749 -1.0657785675122355
Ni 1.3682835438007255 0.8312900259431479 10.42237099193337 -0.9127423935874409 -0.09472355422683042 -0.9329659197231674
Ni 5.558396402003972 2.387462855860303 2.7185552336226344 -1.3600197270548513 0.8636284096696095 3.144382804488759
Ni 2.295915807383747 4.264705719593571 0.5398012943848709 0.609571535655363 2.0042569324132 -0.9091209947847697
Ni 6.421372867376789 0.7984689815384354 9.45518791914268 -0.37742663122285963 0.5513941559836827 0.6960871001501044
Ni 3.4851931692149734 2.8009447963569882 12.11483546358309 -1.5226725981338034 -0.8911430701501105 1.8695678935370252
Ni 7.118283580070636 1.3430886392078458 1.589789210162217 0.2928080266405151 -1.4116047982209945 -0.3177968353753688
Ni 7.752512929682419 8.398644507953973 10.760760436986178 -0.3716763590026438 0.5633323021821653 -0.7964148879375897
Ni 1.0103731459951053 6.120804515123616 4.979629213231084 0.38892177634665276 -0.44143707263654947 -1.6218205066805744
Ni 8.959847566770058 2.763254405601047 5.690014286968423 0.7329618616892668 -0.47798427563296386 0.4781879070033377
Ni 7.042912068207242 8.806203143066238 7.531513386128423 -0.09726174726765185 -0.36129861531274554 0.22498309657674156
Ni 5.023611841381304 2.6989323147364432 7.8198810270404815 -0.09431937680987626 0.44242309069890257 1.0737394742305248
Ni 4.485860993242182 4.787606590853446 12.747928354290131 0.28159416020256667 0.7460369497056699 0.07926016848390867
Ni 5.006500070270761 7.942364600383953 6.457137025176733 -0.5130759771297745 -0.9325820540211873 -0.4407369612457313
Ni 5.349254592797 0.15477810171401377 3.913149665827104 -0.9088919094930993 0.14699639548861781 -2.588256276026413
Ni 5.1962961230813605 0.8909003544808342 12.63133378863167 0.11249296239510947 0.3807027308709702 -0.41842518512240845
Ni 6.236359953186471 5.8320735039907925 11.298070049857227 -0.13071822715388456 0.8329942297235202 -0.8524191712173514
Ni 3.1577428363439384 0.6053312204475803 6.186108261763196 -0.1474784773313589 -0.687216537133352 0.4208826455239655
Ni 7.036784830556068 6.337111762612523 6.735410945849209 -1.8810167588039153 -0.196389601209765 0.5989688204388522
Ni 4.912450216702196 4.963192272530534 1.7733106379106682 -0.9723619050222868 -0.32466399480884733 -0.21943002796899633
Ni 3.3000968281882552 8.599564138951274 10.576505780042252 1.497844226236214 0.6252197837155813 -0.2635545290920364
P 2.129460729468243 2.212405544147083 0.6437205426995861 0.18861355680877195 -1.3798755854385139 -0.7926099123692026
Ni 2.5309570144687563 2.0844195074605896 8.33297461019908 0.8074354074178094 0.8267009405156409 0.32281897118030856
P 1.762651469113261 3.6699650725445796 9.850762752688475 -0.1393098254776375 -0.6335990089182121 -0.6020968245448727
Ni 7.472309995159399 1.9387006332147956 7.610961689397243 -0.191866773638747 0.40589080010082357 0.13407557366189168
P 8.220287201378698 3.253210946131307 1.6716392793545156 0.6978570475663336 -0.17477176582967321 0.5695888246148384
P 5.648868171255813 2.9462650757177586 11.96619386916874 0.6371944395789543 0.40457130995845164 -0.017971753987072275
P 2.691016034926907 4.536148836294562 5.64198731118249 -0.21864198485006217 0.5166744931143101 -0.40684056560860254
Ni 5.364827602258383 6.876169631188581 0.14799271902012565 1.6251531705982334 0.8071165906258099 -0.750407825079856
Ni 8.054851784796975 8.885922120070935 3.003789733345438 0.27784317780056667 0.08413600851897123 -0.25950067073763694
Ni 2.2128782962200177 7.436501343046709 6.200923013978185 1.1944939053034784 1.3198395552915398 1.2762891815044148
Ni 5.220916309467928 5.235812634589618 8.745996776130715 1.3974426477879998 0.24312120093834902 0.07456327722887159
Ni 8.177359459226517 4.006749941443956 11.529537807449758 -0.02190039961751712 0.697406076071844 -0.06592694171011226
Ni 4.545761461777571 0.36777330379782935 7.96575470441604 -0.0874092799536043 0.04770861892987267 1.4389855042267925
Ni 8.611188278156378 5.0052393980762675 5.8313968196511015 -0.20613331086009015 0.45896402577671924 0.5691399100028778
Ni 0.7807166777173081 8.437641919146852 4.284086700654201 -0.6715150672376952 0.11563150802409117 0.507260655999578
Ni 3.3897157897791157 6.9400838575196735 8.444997385222807 -0.1368680488053643 -0.19854727098271613 -0.726112442867601
Ni 8.210053509446933 4.014499367580691 3.7178242676928646 0.09859974935278504 -0.49836746727500625 -1.3513368545688726
Ni 0.44970309196713276 4.854755924507169 1.9415427074414977 -0.23072077039146716 -0.8894271159002682 0.4241163219699147
Ni 4.226718700085984 0.5996378023456868 1.3165153378846641 -0.2429160269060784 0.08407198805025522 0.7801274636314757
Ni 8.939389452555016 7.667324860069261 6.678999573005048 1.7500406500029535 -0.4943334064149486 -0.3500821777716358
Ni 7.569576416753619 1.9810443875121737 4.112937472743909 -2.5339833736154618 -1.3089815295311136 -1.4717467578182137
Ni 8.710456943824203 6.558767597279534 11.653690844486086 -0.38211735183030965 0.29501351893226613 0.34228556454535247
Ni 7.028748045316176 4.9856062825767395 -0.14729934931315453 -0.7214428053060737 0.004336936812457047 0.6282308026277632
Ni 7.901142473553733 1.6117879399561177 11.313143425265059 0.18305431755343957 -0.8329780317736041 -0.403498388609247
Ni 8.34502886109407 0.5214918846895598 5.578208421719337 0.5797166570774597 -1.5921846860920128 0.7887182906242803
Ni 6.564894834930709 3.31590157886186 10.067387949120551 -1.6259070180451223 -0.6498293547341453 -0.4877382696959342
Ni 0.5453408363218485 7.101700178923962 2.095149125586512 0.11928401717501391 0.8168289328175674 0.8806745665186188
Ni 5.064871046805479 2.173463750845138 5.439919170737411 0.5611941727932399 1.5890926774302503 0.219077529725584
Ni 9.215643516821755 2.629011356184533 9.501098634178597 -0.4126353179135087 -0.11914286361145933 0.21719111133614855
Ni 6.442424239095122 5.214344128689284 4.48353616540116 -0.9402226012855807 1.216641130824479 0.6834627265178745
Ni 7.8860792947592415 4.336953359916199 8.577873161487206 -1.0437467845231765 0.46534858914682437 -2.194789560621556
Ni 0.85545414562406 2.8305613232790816 12.28572606830054 0.08765816273961678 -0.16941487239313405 -0.03267717851804695
P 8.34615975820972 6.092393042505082 3.6928879862928254 0.5001924362988869 2.263370137904431 -0.07034538249278208
Ni 6.956546753235992 7.82971056229813 4.81923926632188 0.40904117280434715 -1.0866042460083352 -0.049777585643759434
P 6.14562863377694 0.4670021099771519 5.709863385277743 1.3007213464048502 -0.4807556677305139 2.6170168930988735
Ni 3.7075627668156317 6.241133822158263 10.66290075788867 2.0361072441545773 1.0701838956687826 0.2816736072902504
P 3.3777672128769005 6.296696095200839 0.5930989923016038 -0.44313837159837227 -0.09263479001860174 0.710542356343486
P 1.9473399456064673 8.75230940675167 1.9628017192859828 -0.27145861443046154 0.5293199497924626 -0.2694672950320456
P 1.2850977182611738 1.1588636451390857 5.3277332499002785 -0.5940487574294157 0.02797231684320989 -0.5508907339847028
Ni 2.979163058204929 8.871192648622044 3.8005429029485747 0.8868786384468016 -0.5569809060428408 0.4365380926730353
Ni 5.317654361098278 2.868455646301779 0.6460296121381757 -0.7471525513673519 0.22241456451861694 -1.828793796943457
Ni 4.76015916167776 5.027078689916159 6.493483316901781 -0.5204853822199682 0.37329615399425387 -1.2617822461374912
Ni 4.5509802738768315 7.482219249394054 2.553118890076062 -0.4798534676312187 -0.26289298424863755 -0.6922934374356271
Ni 0.9589914844210318 3.924750630910985 7.232942643124612 -0.22290538811210642 0.26196481600741334 0.6454834190606238
Ni 8.13072385767877 7.012943294642571 0.48282354601803745 0.8341129167089957 0.059708728714542324 -0.5880897116325032
Ni 5.500025425469254 7.629856940877054 9.19691141115535 0.6880876268843956 0.4438657366827 1.082425689150613
Ni 3.826520165873919 3.996534788809168 10.10652903986501 1.6274563648101132 -0.36100576666267503 0.1958491553252627
Ni 0.21037189156145172 1.2697008321210808 0.8811922516183901 -0.0916521143903583 -1.0275529483721335 -1.40686059866779
Ni 0.5163231286921389 1.2539424296899198 7.600814205196424 -0.6042223555283077 0.25813695762089095 -1.5743646271914564
Ni 1.3751801622764808 7.019246655615035 13.208733704252442 1.012789931130346 0.627616566082532 0.1213853797887329
Ni 2.186478337323579 4.917057232001189 11.574309282686386 -1.5796438733125246 -0.1372118052980282 1.1951958164665093
Ni 6.729727724360652 3.91956889740568 6.536273868256326 -0.10500822398229012 -0.9531076847783649 -0.239266088858317
Ni 7.357329275302859 8.873815959144409 13.025130703597286 -1.1542152602890896 1.337137166029723 0.788723432830603
Ni 6.7681874959411745 6.33772355941279 2.1127049128596744 0.19696758520042207 0.1341460218885109 1.5356468989062844
Ni 1.2126276063748112 3.8445032839424207 3.9476772525186266 2.0740608405802154 -0.19584941243557882 1.2431864854131751
Ni 3.137266182831918 1.9180478563814858 4.290110118242301 -0.6498270407413003 0.4497635902243738 -0.0700839013012793
Ni 2.14011155558201 0.6022008601528727 12.549510601419989 -1.1065351806043073 1.4150570184356535 0.9026544132238196
Ni 0.14679137257596184 5.1724267782223965 13.261089605882699 -0.029228814958130307 -2.609887995363576 0.2444350346537661
Ni 4.421928227614112 4.227126564619496 3.9832773375403168 -1.1455552706212464 -0.6919625364587696 0.9624317903927683
Ni 8.064501488873939 6.816528712810882 8.786399466034515 0.3015762597514484 0.3989321093948033 0.9068334843021737
Ni 2.561055563112274 5.758834011279849 3.139487190609863 0.11598477759845185 -0.15418391437599252 -1.9299908747097727
Ni 7.556635987463089 2.648533235902195 13.326672368941797 0.01135039201581271 -0.18103625868214626 -0.4195775535592967
Ni 2.0594841530253998 8.92605969802795 8.231723166719476 0.1006201222169235 -0.8094184992861093 0.8112210997124868
Ni 0.088531631823111 5.145183281313466 9.976855000188682 2.0408596712378984 0.4129646762284694 -0.5156023430960539
P 1.1752431140190043 6.724861158903971 8.204901438816792 -0.20222600538588398 0.14243011627417407 -0.04249467882910101
Ni 3.9847437959312635 6.482812097561339 4.756206583562085 0.3950741691012938 0.7369974652112211 0.6287707342916332
P 6.308283155811987 8.5827304572954 1.755456367956163 -0.5454361386280349 -0.6199328242850292 -0.46384166558399464
Ni 3.5582750779016044 8.323476928357335 12.980413919286747 1.0033691520370784 -1.6131564032476733 0.5481807912527076
P 9.467370091186819 8.751299015066376 12.531615545012132 -0.03204597269195126 0.13452063161911026 -0.7496655475971927
P 8.825919685402168 0.04931731085559146 9.077114181943967 -0.6985944399529904 0.26407003527587425 0.16845842201713568
P 5.399459009012981 8.256234898218722 11.636215703154777 0.2862895087957069 -1.393356136423452 -0.9259203257302957
Ni 1.538094234469218 7.09408979751456 10.458947170940945 -0.9244781939671304 0.2660114752729612 -0.5427285098888847
