# total energy = -340868.78363191057 ev
CRYSTAL
PRIMVEC
9.20218909778216 0.00000000000000 0.00000000000000

0.00000000000000 9.20218909778216 0.00000000000000

0.00000000000000 0.00000000000000 13.46833391613341

PRIMCOORD
 96 1
Ni 6.905828729783134 6.607779030961824 2.190530474268092 -0.3699385503759306 -0.6141154462723037 -0.0076803993633932244
Ni 4.893843727168395 8.981014366301505 3.4858333555239875 0.6377341141325081 0.06382712175829007 -0.8928829356593526
Ni 4.080535860879687 0.4511060272234003 5.6328209119840995 0.40318574246483463 -0.07898608888691558 0.7140591112474928
Ni 6.593892927793423 4.764663398289654 3.7561025660384137 0.06446732644545027 -2.157238856061291 -0.6318907679778537
Ni 2.200712696372689 8.533861599463226 6.380326685544983 -0.7277016417315919 -1.987404122521919 0.026763127026457136
Ni 8.749110001856916 8.499086527313862 4.510463970388203 0.8464976635265937 1.0358468129498097 -0.5861901806169453
Ni 8.465434122219863 0.795450098357231 6.3288238742706895 1.4445303453044218 -0.17929562184195574 0.05880292907082131
Ni 0.26621932714503344 6.594141386895839 5.534299516124685 -1.3228120076563024 -0.2520311018334692 -1.486303572586466
Ni 8.567053895108304 1.332476964071927 12.060529668578852 0.4257443444916409 0.72998503844913 0.818013697154288
Ni 6.209158608795611 0.47391549304415365 12.064556546475798 -0.4859657511765437 -1.4959485518753979 0.14629834098032868
Ni 0.8328027036394434 5.263624489076311 10.018595221715021 -1.984187158246518 -0.7176069764997512 -2.223854596308312
Ni 6.898853470537508 6.743676957794795 8.51645841966728 -0.1006113804661751 0.4392472640740822 -0.06467481447056604
Ni 4.555258385897245 5.501896768293952 9.669293931378526 0.5886751518223282 -0.7631337572869568 1.4648484880364838
Ni 1.3879753658006408 2.916164485065121 10.881578344546911 -1.1497513109804651 0.7976415612558392 0.24276356048861417
Ni 4.822673997609471 5.725482353902072 0.7595376356501378 -1.552032025132527 1.1275876303992323 0.7613355277359533
Ni 1.5581238400112065 6.158298110312009 3.2421649126894145 -1.7172202610388232 -0.11392789506942315 0.4615981209654566
Ni 6.01319799450064 3.350222536987143 9.173336435074418 -0.8082573890984724 0.45547478167653815 -0.2988994842502336
Ni 6.769323458477588 6.944974841697236 4.62654774391289 -0.3137470907860274 0.4242801012412886 1.3199326292259783
Ni 8.94838340418411 8.004993394496777 2.024007662515015 -0.017544950862298816 -0.7254511551345183 0.6674023306209022
Ni 2.6171945673459716 5.055636613786576 8.374381222935314 -0.39659909038625246 -0.2684411677603764 -0.2752355649743905
Ni 3.9896918512849484 8.64412222780238 1.0866322035439628 -0.6446447252094124 -1.7825527636980463 0.5497442790850854
Ni 1.8848015487443102 5.147529672924851 1.2268616007290654 0.8117386627788536 1.0576304844838043 -1.1263948956427117
Ni 7.485373389453617 9.266420257466498 8.83323365284073 0.19813409470469748 -1.209865245553226 -0.9078488129405655
Ni 2.9468537853080763 1.4543783614687555 0.18128128243663083 0.7331778343548147 0.6027905081777877 -0.5303159951571448
P 6.751958927875354 7.888870971778381 10.457123697042746 1.3949288802272106 1.0802669909363978 0.3048004231157009
P 2.0376867164314025 4.128672511425682 6.493999485557329 -1.619377958677353 -0.40069228661901957 0.6582278632104858
P 5.214963313758547 4.5477770062578085 12.400591040962135 1.3221841442643165 -0.15884892395182965 -0.810379834758114
P 3.2108645870982944 7.339730344492523 10.6807792192871 0.5541822602517811 -1.1885767684880948 -0.8607035227133305
P 1.3165847837062348 3.894927709185413 12.752721084190588 1.1136311682191402 0.8241491206280644 1.9724865819801385
P 5.8886371644890545 5.176516568206803 7.528098232661417 -1.2342752989664743 -1.4926691097931775 -0.17337102882740466
P 1.4236430502809088 0.7383744414376198 4.8764525102181215 -0.9279026462676471 -0.61965051715792 0.7871985115456442
P 5.391682150899689 1.1691841206502671 7.27914957379104 2.9417857889167016 0.5293297199844754 -0.3491799776723406
Ni 5.354689351206531 2.2647691338513125 4.287913631040154 0.300277852654999 -0.34181968065252744 -0.4504266777296694
Ni 1.8408610963724632 7.371395076767188 8.881046386334686 0.8613550402544004 0.1934541727305249 0.036417876507401796
Ni 5.35997140768013 2.079685506928808 0.1817579558257118 0.07337594178898976 0.1827247021281627 -0.9042734368844815
Ni 8.221686540560077 8.210717531297826 12.419796929578949 -1.8850495341123923 -0.04307960479829355 -0.9060433843007105
Ni 0.38094393735761023 6.817726972503959 0.032664089997719 1.4255805436747964 -0.5384671635093694 0.2192716480142611
Ni 4.045282274903446 2.953387339482738 7.322140360260317 -0.04838816149540053 1.0298188615881747 0.46326265315207316
Ni 7.657905230609588 5.145431573837777 6.141129586335013 -0.6841615523571121 0.16581661351891444 -1.4389813904617348
Ni 2.7037043459318846 1.3310138160243616 9.975779276836333 1.2072869433030886 -0.5206064811788647 -0.012149490878340368
Ni 5.5905874656677454 1.0943795264448755 9.734413221684154 -0.30181794344860924 1.335149960396365 0.31403891099483333
Ni 0.8195561526050406 3.3693906966291443 4.069443542285126 -0.003673077976213029 2.0860943747059815 0.35930163948737476
Ni 1.9684678509358982 1.6577283335133788 6.847112322568674 -0.7662589331794997 1.970620475305677 -2.049943635817037
Ni 6.835441186287373 2.2030684567511587 2.296229577530657 0.15806576592890198 -0.896904912334552 0.14184647585656215
Ni 0.7491051140053288 1.4636357635810233 2.9931757641875323 -1.505368559637717 -3.006841897986086 -0.7332775931574727
Ni 6.625217179075887 2.7315225632135793 11.730150839438636 -0.7646432519529477 0.6606030483108817 -1.3884401871790732
Ni 8.747545629730588 5.117245268996946 1.309659216281093 -0.48480181277542966 -1.15867483872234 0.7333958639028918
Ni 1.0560156005939372 3.223508394754612 8.481171705810718 -0.29703543445830133 0.09749031833869017 0.2969451887373402
Ni 2.8020297351660592 7.805839620626302 4.114939164594323 -0.6840990745502927 2.403927976856557 0.0754204830228443
Ni 0.41518988364071574 5.799983275871176 7.632463938741013 0.6415943684188627 0.2961260352701545 0.159555463100551
Ni 9.079753854039708 3.1849972338800194 6.323059623094621 0.4583963261987073 0.6428017584634027 -1.050345777896933
Ni 4.262794415785823 2.6854748095656795 11.298571857227394 -0.014059820527175786 0.21334474100686482 0.3560088276687159
Ni 0.5260955854272577 0.44094312971565836 10.167420383624842 -1.93540767484997 0.28490368419177386 -2.572680018854711
Ni 0.8452919145209242 0.361176715213115 0.5004803721869909 0.10492620579144508 0.21931304277515778 -0.1828601992647625
Ni 4.977059122100042 5.104757898553261 5.414701426629149 -0.2112950575666877 0.31346581210018276 0.9579470151485372
Ni 1.715757337211152 2.8471112589712275 1.581950147714073 -0.33757761754672183 0.9049961739831188 -0.7705189940074343
P 1.8146532621619877 8.405445052269691 2.3522442220610595 -0.3505118091098867 0.7666991060407118 -1.356267973321903
P 3.335637067456383 3.357363435634379 9.449019293364834 0.3673877589296189 0.2751214079940294 0.4618364622285078
P 8.616101562363161 5.458342807859198 3.4558535440512674 0.3719383544147788 0.20990151965327075 0.8883760489279345
P 4.4525619568983315 7.3046423979178945 5.233134876334188 1.058217724445842 -0.4140903051924804 1.4658759008597337
P 2.9799264524964357 4.495665010073145 3.1388086867407496 -0.6765845113408026 0.40463815864064506 -0.2548251196388385
P 4.515118437573476 1.303158789986753 1.8801792892204612 -0.10947654416628887 0.7026344143503189 1.8438730598740825
P 8.78956282460595 6.08761609676894 11.480124604238888 -1.1952598369352254 0.261152347408447 1.5648127218369632
P 8.564707336918813 2.4222093850827116 0.6374411518469669 -0.3135493729529245 -0.12880352662967495 0.6895161318008061
Ni 6.564123846448308 4.001351024720577 0.9104388113934878 0.7055862978897912 -0.007913341309805727 -0.5479352509008047
Ni 4.888009539356091 8.22320490174151 9.474770699001981 -1.2084382832987124 -1.669214422583506 0.38772132828064837
Ni 5.341198942164201 7.08298006980626 11.748885575979754 -0.8360731257591603 -0.4980483933726906 0.7220706686980597
Ni 3.4068528079601994 4.005804884186122 13.410029762041914 0.3748187612863674 -1.4105336766440029 -0.7509241025946423
Ni 6.3384309595641355 2.9820521581504456 6.31508592634484 0.869074006165213 0.0914374272763909 0.49782059363260067
Ni 4.596870684457558 3.4434683179052423 2.262289143921634 -0.26007454096323596 0.5824389411046291 -0.06837951701566289
Ni 7.879549154343264 4.552322887613136 8.313544631380232 0.3063158313189628 -0.8656588098360769 1.8030560258577206
Ni 6.808672018549216 5.1516062426422815 10.775286620314139 -0.17766322844485533 0.5214575163252503 0.08225421811522607
Ni 5.654183793697449 8.083828547474706 7.0078165902307115 0.24588667949862814 0.7003849561945099 -0.14450293964280275
Ni 3.2632434467633313 3.3451521308600456 4.972616305261272 0.2871587987745377 2.047299770436287 0.6833028039012425
Ni 6.902819613987198 6.037132888033453 13.40041255434059 2.0789173973415678 0.6138205407397042 -2.495370032118638
Ni 2.417240203034377 5.31324269204783 11.378411889241764 2.634292906570502 0.11987691356400645 1.6183716289000256
Ni 3.6512445428484748 0.6449390954265651 8.163897713994638 0.1256518683745707 -1.9736266091218524 -0.8899382512087318
Ni 8.78624083438475 7.300050505617674 9.702601254385835 -0.9225105287177984 0.12400713368229611 -0.5696194207424577
Ni 3.0931961966315282 1.5707124345336543 3.8338693448759513 -0.4609116364213933 -1.3826672892510379 -2.686109634131477
Ni 4.555874932558798 6.402938304302701 3.112949615492556 0.027388419315281864 -1.0435848050240155 0.32249449796135427
Ni 7.620259075498964 0.3489157186182985 0.8924292073438664 -1.1576206864262126 0.30710130333473556 -0.16155141048465727
Ni 3.5665107867353925 8.824126246408811 12.17860571601736 -0.30470632073999776 0.20793771105868056 -0.2805353799207491
Ni 4.08045304117888 6.694233596413867 7.797761018922167 -0.32145422962229797 0.05993292891020646 -1.88673257824177
Ni 8.007027078261002 2.1600666276551084 8.050844221300538 -0.7045223754016511 0.6469808295417567 1.5941976027569835
Ni 6.474890219924789 0.14625222987146372 5.322712664725499 0.5956166161371678 1.4641195802902591 -1.1051259589616065
Ni 2.411792507159166 6.108955973009842 5.626086750089709 1.830759662420576 -1.3110358409569807 1.1519899705029966
Ni 1.0792603299533687 7.729157779869317 11.333010129260149 2.9129081866504025 -0.5295135538605074 1.2762737548854473
Ni 8.42371139739181 4.016313783999451 12.228411643644037 1.1775073980478106 0.23845259181808615 0.7938790088896134
P 7.063250576636576 8.527797356926461 3.1608700145975592 0.1197972093660066 1.4987957915162058 -0.7059490805458487
P 1.4404094385995485 0.19864121194437728 8.166793642866141 -1.0552316452343247 -0.6067849740491614 1.9970208196760768
P 8.03574711006258 7.8427127918627395 6.709600331788893 -0.6513000257424009 -0.2373868695577331 0.09678712162407849
P 1.6951904448444342 0.8849551894556122 11.822449715110858 0.38147766136378175 -0.3217213672407556 2.6676593978460894
P 5.9553346302044785 7.8917144481727055 0.5839423857832586 0.6284321200052919 0.42148736898749994 -1.1904295054261176
P 7.549843925436267 2.679428971406873 4.260841711284607 1.0391913039420104 0.7947966356078764 1.3634467504585293
P 2.5381109552656254 7.189320565640619 0.22839741022492274 -0.36821462570628843 -0.3936780600847155 -0.2527096159577325
P 8.338342690239218 2.493397519019593 10.152927856202766 -0.47947088748081934 0.2779082267105472 -0.007671914722960981
