# total energy = -340870.6305856785 ev
CRYSTAL
PRIMVEC
9.25793656190300 0.00000000000000 0.00000000000000
0.00000000000000 9.25793656190300 0.00000000000000
0.00000000000000 0.00000000000000 13.54992596491672
PRIMCOORD
 96 1
Ni 0.49627077309736095 5.703500055013604 3.411221031546231 -1.5280662583455489 -1.0432652169010677 1.8003465973463575
Ni 2.065288301533602 0.028388537216294547 5.172670329863444 0.3708345798276388 0.7400056559099255 1.6287861393651302
Ni 6.876064032684419 2.8536016148545906 4.375216655600096 -0.016719369637209918 1.0690117297375525 0.26587854923952275
Ni 6.182005773302608 2.5221767375371735 6.599260982126765 0.22705566283505413 -0.7611036142308053 1.5368164937343531
Ni 6.838291650789532 6.911188644671969 4.286166413695552 -0.4087472957130122 -1.0873192697974887 0.22123597082948349
Ni 1.3350500253760018 0.5349541359673601 10.712937221677029 -0.06781875941618642 2.4363850689439976 0.32575517099049706
Ni 8.352436462380384 4.465038083634995 12.311774564349406 -0.15625082420735023 -0.4025769052362422 -0.09263684690113078
Ni 6.4058719415869865 6.725585528929641 1.8355813009606243 1.5323797981192384 -1.74594591110829 -0.1550902282403458
Ni 3.4313524149850623 8.366999196870742 7.135621398684771 0.8263795526204799 -1.1051365004845677 -0.506368997423244
Ni 8.114581551683463 6.783216185129561 10.434608463144796 0.9851235755633292 1.6434432271566728 1.6505644115824865
Ni 8.173526834900313 9.035912900069585 11.744113989470709 -0.20196503841501345 -0.5894184577462559 -1.0839223283007977
Ni 0.061697667809337255 1.4701048065237008 12.796387743505088 0.7219901931691114 0.07859399565481949 1.0809843287183964
Ni 2.0635292935532026 3.9028683910361637 7.385048730305371 -0.6380061368469723 0.0668373693395236 0.790155280181123
Ni 3.3809151756313014 8.155436826512418 0.9308105498131245 -0.6603225409559854 1.4247567622219204 -1.1370235790011514
Ni 5.964610902798751 1.013429303065125 9.815078446098823 -1.998790767092306 1.17125138983577 0.13602652674067542
Ni 6.605935954515544 1.811009811061796 2.229165817130652 -2.152280226504435 0.3114955757476893 -0.783646789638644
Ni 9.284784755485846 1.420158237817104 4.729154983479275 -1.2316820843180014 -0.574946746492642 -0.3730562700693059
Ni 8.655291346921423 0.8803788652214068 2.3316715442915754 1.5555330963072502 0.2192071133249128 -0.15252606705759536
Ni 3.5039253810816358 5.932958017088304 6.280892572992279 -0.24749773273948988 0.4689676739566504 0.3176001459835304
Ni 0.3052276937272306 5.529358264954088 6.011912478979031 -0.018033460462943136 -0.6559200410129155 -0.6836599301303452
Ni 0.2724758909258722 6.410287977411462 8.180090712048223 -0.5966118901709015 0.7999331855034932 0.7628339666583508
Ni 0.7234531343216288 8.674362696603646 1.016651065050277 -0.1507275803962759 -0.16218261631075293 -2.168909864641316
Ni 5.467839275323813 8.734205999684173 2.186050679943721 0.0776578569937953 0.8981742659652789 0.4518536399841831
Ni 5.649887343358387 7.151811678453834 11.125316275220785 1.0414111944114643 -0.6222162210025671 -0.16456757160316174
P 2.1578121213025976 0.3924457899511379 12.83942233664239 -0.3755404699437403 -0.45906301324842874 0.27022551335430883
P 2.0248866656048548 1.6568188746747017 3.1330681738120387 -1.246808912657111 -0.5543429541993614 1.1010898412190198
P -0.46882376804741693 3.7478997879629983 4.852377195680932 1.5398046298283996 0.5785995127538809 -0.39072720498650776
P 5.2559621351163655 7.515556012926901 0.03456080364014779 -0.17623086687370296 -0.5088310858104914 -0.2471678602038969
P 2.751551378181223 4.7012543395291235 4.531136048776351 0.07310983261179667 0.7243304112665139 -0.27288326269213004
P 3.5672311525025275 4.0437001247089635 12.010654617153243 0.048723947568264474 0.3557599448827034 0.4572925516115673
P 9.229190845368494 3.219317889853053 0.71163815545539 -0.3709770189427741 0.7008297570414125 -0.855269753292269
P 8.053164399357316 4.724232538515179 7.656277577152507 1.2013559225306343 1.0374830630016518 -0.05425259069597753
Ni 7.184371841964697 8.563795158130452 9.435084581061563 -0.41969582430471586 -0.4749724853898336 -0.7901899900738004
Ni 7.133638348635289 0.24087947862953396 0.4385567954667908 0.2058039525451294 0.38218497184345146 0.26610789164150944
Ni 0.9240605881367612 5.480356005794864 11.475541244673972 1.6615255385796803 0.8377607978742282 0.4392765746501208
Ni 1.4472932503989455 3.2178458779115613 11.876103467764143 -0.17210758873394874 -1.7118361139087748 -1.0042492406491867
Ni 6.632163689296968 5.055962927744981 6.063185710020319 -0.3258700993018065 0.17538008883763345 -0.35293378828781796
Ni 8.359583589542849 3.3183778129597417 2.7040507563610547 0.7724635193283148 0.9040086132588689 -0.362765172555943
Ni 1.7427695593590475 6.476019328257957 1.6166283197036027 0.23074648142308 0.9067095571297997 -0.8336688871930417
Ni 2.6001285648790726 7.048419040953319 8.863358846160796 -0.8439034204368562 0.48748578736549597 -0.43462287792819343
Ni 1.0941122217450123 2.067362079363125 9.051905985786108 0.3394285547125316 1.1162835182403226 -1.9869878609201068
Ni 4.47261107588745 3.8507369492591765 5.509386118027167 0.08768824464660382 -0.9101322096581036 0.18714262869020026
Ni 7.213913918098663 2.1647092841731097 12.081846299088365 -0.4866391230944845 -0.11865101157670534 -0.6122213145733842
Ni 4.0247306123308695 1.436674396959378 2.346075042270023 0.08978755037779375 -0.06614137171376351 0.10476268363038732
Ni 6.948414808299258 4.053791275754411 0.4898476165878824 -0.512899342342594 -1.59345069728863 2.0083066770025413
Ni 7.533294219718716 7.433049280709442 7.185255049129591 -0.53550910932231 -0.41930013152819395 -0.12770129470443167
Ni 5.95148314850293 -0.018251096487152056 7.463394019958675 -0.34251953493302945 -0.08773452450350695 -0.3093163087081834
Ni 0.11988842918196292 0.3229733068684364 7.362094601954836 0.686098878589141 -1.5494020437088476 0.008277666627759937
Ni 3.5205248616545606 8.072763451433657 11.717420580471313 -0.3644165921164369 2.695558952469835 -0.7029735428572925
Ni 8.762257548003172 5.4429354254960565 1.4459128920311692 -0.7648237433948699 -0.18909486732056466 -1.5231531373146479
Ni 1.8202677478007385 4.6114153214144205 0.08377321796334662 -0.31602920195198475 0.22078499933499393 0.5736262279090056
Ni 6.25519902116069 4.187068533048233 8.637224483375377 1.625064210428853 0.3919896166386991 0.3518377270101618
Ni 3.0389269924947504 3.1832304524446533 10.018991909123432 -0.3523082388886771 0.007242540495026237 -0.7472237709249195
Ni 4.0444592755215565 1.1477712230839257 6.401974350219892 0.1111529034274473 2.3099307592727896 -0.5193484404020474
Ni 5.611226199536561 -0.07686587136242132 12.108850774762187 0.7332256568736145 1.6395577760593376 0.6392441230191314
Ni 2.2022409597127846 4.342861092491165 2.4392034053080716 -0.10806346586884615 -1.089043965798079 0.3128523468858999
P 0.16409507711041532 6.786623105849492 13.39395330563792 2.2666040714606965 -0.3629592908446201 -0.6002510295853856
P 8.033991212370966 8.042165970511451 2.5497570568761585 0.6707619911217545 0.01272310399362325 0.1126629123140705
P 3.5705269779815914 8.114239008024123 2.9982874275918125 -1.2653054287994014 -0.6389749285181446 1.1661258956837464
P 4.762810360906355 2.6196072637778087 8.435709751759829 -0.21210624061407338 -1.3840790819969002 0.21182059105285453
P 1.6219349690423646 5.25671202799222 9.398214847998723 0.9526718827925271 -1.9392337334642797 0.13565217412039218
P 5.5280251220636805 1.8410425578429268 -0.1370693081820932 0.27108734713397187 0.07593753186857889 0.8018877381267029
P 6.80634251110344 5.275663024496836 10.748221070176488 -3.236377646930517 -2.342456499814637 0.9240447059741376
P 6.619443284217661 4.837096045299632 3.263431958414116 -1.0768034578678294 0.4490979316159169 -0.4733208087190235
Ni 2.9760470861638497 0.6622859462874331 8.932504524076613 1.1733098150266954 0.5848454936635927 -0.20550724724031705
Ni 4.0133433501419695 4.644808699231788 8.455519884793818 -0.7642295614542968 -0.13423086829283334 -1.5596746292794492
Ni 6.984381892530052 0.04882820994853271 4.037755603528889 0.17760306463088124 1.2141548740675152 0.970408895060974
Ni 4.584382146136708 6.068142409350349 3.7651047375986497 -0.20457547945466706 0.3702483683068656 0.702866327855467
Ni 7.967519226585355 1.8015389417778571 8.497727744180333 -2.0347399314934056 -0.6394482686101375 2.255148521325587
Ni 4.2816013250895795 5.738319155088769 1.45054648936901 -0.32287245012606325 -0.6539161232090093 -0.1576765009102833
Ni 1.8189068311001142 2.797794772192243 5.273577211349552 0.7175257296398546 0.6189419211266696 -1.7293682092552667
Ni 8.651023438084772 4.731416697424599 9.878952654835487 0.9478790893895739 -2.9275701595379515 -1.9716769415946493
Ni 1.2619400989485696 7.759206392022401 11.3181720586044 -1.0245493856591195 -2.205890298520407 1.3348170025369788
Ni 2.1266313903658376 6.909735148603954 4.322047399114673 1.8272814740639884 -0.932313373740833 1.9905197853327654
Ni 5.469135386467265 3.18413773024507 10.636813836841071 -0.5519862810417268 0.9522836462151729 0.9518614710760899
Ni 1.2105307762372197 8.542168617908281 3.235735914865894 -1.1417623792377174 1.4601917059907628 -1.4801902605998767
Ni 3.408587148544002 6.328031209485955 12.903594650942049 -0.9470347391114077 -2.4251418919300103 0.31087748254771624
Ni 5.226521896286527 6.546259294296317 8.875865392901435 1.448723300339847 0.6523876023796249 -2.0219114122701694
Ni 8.778653353967838 7.774880078921431 5.139540803243136 1.6134839617904213 1.0812267837465055 0.06052531107856672
Ni 7.392656902717434 7.210155195782652 13.151016713464992 -0.7076187549387878 -0.7150327880146718 -0.7621004309264359
Ni 3.6518116625495103 5.709554745640874 10.44750847219684 -0.5652824839300007 -0.37906982325323746 2.106564983855508
Ni 4.414906356193619 3.7640548875724535 3.0119049267411238 1.4359842555066236 -0.4987821862149216 0.08668140064864427
Ni 1.8548461415206905 2.108356223243164 0.9800340736604101 0.04387973210208572 -0.5230526287265121 -0.020606620506758058
Ni 4.628746178989721 8.516968514104878 4.862784042369177 0.49935322822704326 -0.16202320791475322 0.2647812024102859
Ni 8.872473284880286 2.899928330296261 6.88417583685508 1.28293342629381 0.7817256613565312 -1.7563969312382848
Ni 3.9810886985434926 3.3456979842763626 0.5680716272699066 0.7434092822748358 0.09988530093342797 -0.2774713962834447
Ni 3.6626804802810287 1.3225888425253844 11.409159986668406 0.15125105699991373 0.20026271101192608 0.5054868519286069
Ni 5.537699665955876 5.197692681281459 12.72049488129393 -0.32892636962962707 -0.02870559546480863 -0.8841239585198
P 7.597849812599365 0.6608037506155283 6.185988537687701 0.06616965384853765 -0.23678754541083735 -0.2759295057176216
P 4.208445108978452 8.233286816550189 9.676381592638023 0.6509143602682079 1.2911265036275634 0.016341674582817017
P 1.5013225692074166 7.440150118188211 6.658189601057485 -0.1289505937305005 0.0389630115267587 -0.8728494140472453
P -0.015564443245510826 8.354649109260992 9.586450920949607 1.5587454325969605 1.0757801588096376 -0.5450792695092483
P 1.9060795634340006 1.5734326384670427 7.000189819511796 0.5241011245956845 -0.15084353714884988 0.7414745271459682
P 5.4733847794304396 6.966764038915843 6.481620379985018 -0.11363556063998495 0.6602073555343597 -0.16033656424094966
P 8.948258755025273 2.360088781111761 10.517506806086313 -1.1769574390816118 0.13931702456648912 1.8569442912357441
P 5.268951020361102 1.5412613082992161 4.369661893556731 -2.1764426826832515 -0.7967087650289247 -0.012837260973984342
