# total energy = -381172.3179014135 ev
CRYSTAL
PRIMVEC
9.18575110956648 0.00000000000000 0.00000000000000

0.00000000000000 9.18575110956648 0.00000000000000

0.00000000000000 0.00000000000000 13.44427525879805

PRIMCOORD
 96 1
Ni 1.8699249894465302 7.279028038233692 5.348818801161112 0.2524759026803716 0.5482723225252493 0.0036000586464325097
Ni 1.926720488787035 3.730498884225644 7.415445628514436 -0.7648857069810568 -0.49640237312883545 0.6197597890422746
Ni 1.1500652293272766 4.1084649866619625 13.62657957430432 2.3734056398979835 -0.36032159611145687 -0.8741794457125784
Ni 7.3539837675913695 2.8043455248521356 10.245331215855064 -0.3361293151359695 0.8928086307779916 -0.3971799025903869
Ni 7.935340771919561 7.830944710136473 4.004027588998713 -0.06960953276802205 0.6205252064533894 -1.399330608839332
Ni 8.506584264235155 7.439650082786185 6.196869392834059 0.6946544814686358 -0.8884976621074634 -0.7160108356572249
Ni 1.3993481439484348 3.4446750515426183 2.946487675247549 0.6478794300966262 -0.00437653180114085 0.5773345299985283
Ni 4.173279646753601 4.332340113611143 6.8938750041001375 2.8256392889294046 -3.8979350887348683 0.431970785017327
Ni 0.5305441847095814 5.253478052858513 4.218410160712818 -2.277489865135265 -0.023805587060029967 -0.7993883687436169
Ni 3.3480960639854342 1.7295207831680868 3.585978542858331 0.7316176889565463 1.159304244776223 -0.2564351444384358
Ni 2.5011973655062936 8.940464033901888 7.603207893405189 -0.1032354483525835 0.3309791383935977 0.14019068542069404
Ni 5.854409892880481 1.5338183549860622 6.468201784507934 -0.8901477961163765 1.9323483191983561 0.27422203610821155
Ni 4.299354081243077 8.066513298295497 11.158681475280197 0.410856371636215 -1.455269586098797 -0.8791671287351569
Ni 7.808375319568849 0.9510191877278265 5.56454524826799 1.509157337256188 -0.42245230400393047 -0.03155052111277147
Ni 4.709332526425903 0.2933736015505597 12.836002390406511 0.7099031800975903 1.6891564129230716 1.1446697826924996
Ni 8.861916675845823 9.129065876447456 1.9419311741109786 -2.6755411145870114 -1.066099441186764 -1.503700685016991
Ni 7.147928997866931 6.494702676566377 11.740307622116989 -0.8390244950780001 -0.8264132340718929 0.5496252370087179
Ni 3.5987017267717283 5.019489413896734 12.89679736579632 -0.18399662686205084 0.08942142528762664 -0.047998382256149594
Ni 5.615424205294857 1.1575608022630441 4.159335676512798 0.7892592507294149 -0.5470752168933546 -0.7114404426777232
Ni 4.597679721236863 2.6578327940610875 10.202457640952609 0.6073279910368251 0.007989188853063661 0.7790851384098905
Ni 2.637541469777863 5.6412086087638516 3.457934683322987 1.0165257440236943 0.20442095615467373 -0.04599420734192724
Ni 1.8945703597733254 1.7682662815051802 5.370961054300411 -0.768642860030644 -0.06132209594824923 1.0591286662958856
Ni 3.5544264062442767 7.460171050848079 0.5795373070260164 0.16676406503384827 0.5335404156317133 -2.3057352331342034
Ni 3.285880971468333 4.3753202432269 9.285947483132983 -0.9773971534533489 0.3720882497290818 -1.0363502349487894
P 4.310376982619206 6.958950539524344 5.270787682319495 -0.22656303946935172 0.26228774656447085 0.5722031223092339
Ni 1.2710966864371733 6.817444043108288 7.802183204720809 -1.6871542948913782 -0.40081595668107745 1.180659313413231
P 6.071625350248251 2.0376384338843336 11.804127465359432 -0.662855077569852 -1.0910036606276112 1.4940469639773108
Ni 8.259322214866287 7.171958922866891 9.675952431022262 0.9573142666605449 -0.11294547655149581 -1.1691317723896058
P 4.31036779686806 2.9600715640433983 5.123022015072026 0.12574031432331892 -1.1062135355988303 0.17740791790093965
P 3.4215361444038943 0.47686632930829176 9.653944289849706 0.7137197256302031 -1.6766847628186223 -0.7768752752427652
P 6.5081781734986945 9.15710078894741 2.4359142321061693 1.1146956049279124 0.5786154535934809 -0.4733894571734299
Ni 6.656500497265658 5.324502280725372 2.6851576479973964 1.2806957952125426 0.22620308502677175 1.199448421095276
Ni 5.922457937375785 7.481215606725338 0.9226425652852116 0.18399919796521214 -0.4594643624519054 0.8618342938836641
Ni 1.7757159256852142 4.097488014041567 11.177610552668353 1.2665130759542576 0.2595443794913788 1.3621372876184863
Ni 2.5360389196060082 1.0970083307035088 0.5248885177285126 0.19090132440168414 -0.2520043623605918 0.013765172104892422
Ni 6.676295790986956 4.255188989729387 6.959415338532372 0.3047312604406623 -0.3398702702356405 -0.14888101410584037
Ni 8.684999108758952 4.9349621318441175 8.216818825735048 0.5158013464807375 0.700489342982858 -0.6768125681912086
Ni 9.396655993104137 5.961607608763336 12.951905442651162 -0.6246245733337437 1.691108908663752 -0.8298826806777322
Ni 7.947511892189037 2.297567634084603 13.153301199393958 -1.3327817172745047 0.8635582185533063 -0.6920327275750726
Ni 6.798493838492494 5.297588029865323 9.64728921314387 -0.6693211449101698 -1.2449613179254106 -1.1114485587455245
Ni 5.520324123672304 6.418773257587142 7.388826240266199 0.2679110062885192 -0.28326769125024764 -0.4620889445589461
Ni 2.4174876153057405 6.49352690041959 11.404146791724756 -0.6800956098178546 0.1415659685016659 0.047389287917240966
Ni 0.36057471979013045 3.0249229671396245 9.140615121364295 1.2841899244087303 -0.535766990969387 1.409184104594644
Ni 3.186968803119868 8.030918512601747 2.7163616446429883 -0.4198236081318318 -0.09133792558404914 1.740379472764106
Ni 5.016660202543528 8.854163901877945 7.5832839991678345 -2.002303922451887 -1.510910829612185 -0.04721393868164126
Ni 6.5858620709469635 8.977179481235545 11.1957064824275 -0.11094155874758957 0.7091863565362237 1.0647370136215986
Ni 5.768817063694839 7.666198263319077 9.468211157387277 0.6457086476975524 -1.2274587902652732 -0.27190187261546717
Ni 2.4413338252827663 4.438270195835743 5.291384892115906 0.04262554798001046 -1.1104787386330874 -0.02268998539834802
Ni 3.4848259698051685 4.005602945320385 1.5668493975347477 -1.8237729466900976 -0.05412506397917776 0.8319696451137478
Ni 3.229214072643883 7.045801816617096 9.130410670415344 0.6583489621693822 0.46559670060188846 0.692719212119136
Ni 7.191708287832456 5.492601526711339 5.077835468030814 1.1544309758443214 1.7157945843358902 -0.024818087484944355
Ni 8.347652397893668 6.66492383106725 1.548444826537071 -0.2054954201657751 0.6098736402768142 0.052972695542289415
Ni 8.783892905605121 1.6883594322793913 3.5678017784890943 0.042722735679507066 0.854070333667529 1.0456694554671864
Ni 6.969146723297264 3.2670226243640053 4.4849292187857825 0.00864019217350125 -1.1245946092091794 1.5172737957157354
Ni 0.2609772944061165 0.4598019594029294 12.782883947250058 0.07352712265487338 -2.138086451502556 1.1521077270277835
Ni 6.3193558729256045 8.321702650904031 5.824086809769865 -0.5243291814460905 -0.6248487735294078 -0.797952921848671
P 5.819595896034207 3.111195541910128 8.45952749826046 -0.40171815678037265 0.06404052332067682 -0.08659578291337346
Ni 6.0597298025131785 0.9894523705259297 8.962383991863435 0.04070261992568474 0.48775369631490195 1.1966600597168615
P 8.335279191098964 3.833122096037406 3.016223142228515 0.8999850939217726 0.1304207505181238 0.15555482658159017
Ni 1.3205252133579655 8.514327852451887 10.21168013510397 -1.5628820804731536 -0.5521911979636813 -1.493113653529764
P 1.302594627119462 5.511717074847777 9.64805530478951 0.36414765472576643 0.6063265463555041 -0.45105428401133935
P 0.9373967187771604 1.577083242887369 7.586214253783656 0.7025778500807706 1.0176685993788859 -0.6288167570382203
P 0.6232431109823681 -0.023724039486773724 5.009928884103171 -0.1948572237256386 -0.5519765108497139 -0.9918218135191114
Ni 8.212135011225309 0.6929106034048476 9.826138543696906 1.8587538336406568 -0.9420524554054679 0.4094489497657271
Ni 3.5877063826490394 2.6615989520312646 12.506255051464954 -0.8471543232739862 -0.43311184060030566 -1.08581028935213
Ni 5.928842034422792 5.066814403804914 0.5391705236115172 -0.16397698920701437 1.46695267886368 0.7412593258113686
Ni 0.6449912953974706 2.254725290736048 1.1784501189459236 -1.5615001125239623 -1.261569101685421 -0.10798633277400757
Ni 8.20253590127693 4.364361642108798 0.9879844874926752 -0.4964303981532934 -0.2975529975246682 -0.567096654320604
Ni 4.734427998558891 5.615102704004721 10.52857477104096 -0.13103113040861306 0.4176600248216098 1.2728708998514853
Ni 2.605216811492365 0.04628148857790713 11.797203246144994 -0.7071400155301563 1.4807343060288047 1.9694976745551436
Ni 3.909758817854943 9.201458781235184 5.432266757453982 -0.5431141753630776 -0.7133458872305521 -0.05411477956653261
Ni -0.18478240721873918 3.1730799473859457 6.1276988495486195 0.4846557741158686 1.1352502891508125 -0.7625647721573641
Ni 4.370442609367963 0.5836819179434409 1.9003344186179263 1.7118739091252453 0.33938613151037034 -0.5881449903504709
Ni 5.5479273058683605 7.645025106925763 3.5292565295270006 -0.0988152077977008 -0.2324089567271675 0.7670657453515113
Ni 4.5280884705489015 6.006535117622208 2.3038516064441112 -0.758767767008777 -0.34855134294940615 -0.9152042248643721
Ni 3.1616988017150924 6.098778430638115 7.038911584681899 0.13038269819133674 2.2197194910940157 -1.0107029666943304
Ni 5.366573020977597 3.210502697557904 2.8402379288830413 -2.045391754780297 0.7219649963581308 0.27545796539784173
Ni 1.818144910232164 6.1727512846230885 1.4161929744013892 -0.4169930806615721 -1.1126968293303288 -1.7678514529321294
Ni 7.942331128542256 2.0519039054152737 7.835982176065364 -1.0619028866069133 -0.3865062249266247 -0.531638056402678
Ni 0.3451601107907286 2.2093293085686905 11.51199669593903 -0.5315917765457748 1.3794693511390306 -0.7095815350921134
Ni 1.4781251457831703 0.7546930470429362 2.757488089677326 2.449158823669898 -0.5900013268329194 1.2721782446598349
Ni 6.405196717392209 4.2262446878659015 12.020943342552318 -0.04620220958767527 -0.832082259432212 -1.0069170172893367
Ni 5.182738583277206 3.009821592254328 0.5916367784365473 1.539563460351871 -2.33920405431561 -1.2869731435808223
Ni 2.235040226028511 2.018017669434824 10.377273508177097 0.61453607874949 -0.01588401822010813 -0.7434337077548681
Ni 0.9462517828826505 7.312096742362079 3.1379077062449476 -0.7718639380711029 1.7557952930985437 0.4321299363030106
Ni 8.814022169366542 4.839549734682574 10.876660543571935 -0.8270693795986531 -0.22679135343007392 -0.04989302817570117
Ni 3.8484714862036653 1.794675316052156 7.837622751220178 -0.514102618622076 1.0541242711027587 0.2700470787949156
Ni 7.100089605894531 2.0966752565046516 1.9651095799796339 0.6334033479676382 -0.4492845937054262 -0.3578703063574869
P 8.546000322405964 7.978403573295639 11.602759265870079 2.1624440544113144 2.226227724526179 0.8099412045587987
Ni 6.990512780464662 0.18709446078238223 0.27449596436882406 0.6250819725861364 0.7901632506009231 -0.6412326142040699
P 0.44794774754801725 5.5615589605701725 6.240092944855204 -0.16556850206385035 -1.4275605502193027 1.1833296611565427
Ni 9.285600261739635 -0.41379788050965477 7.8710993026994815 -0.8534532689088205 1.7820051187246921 0.8984809985724204
P 5.156265248472201 6.544746648814003 12.556160318870264 -1.0510862556073832 0.062437440499615054 -0.11640695273753501
P 7.216904803228058 7.893729319224675 7.852236362719581 -0.8181823615216683 0.2806418235916263 0.20952613859172303
P 1.4554914549575189 8.337364356609282 0.9200723921143442 0.08996804181971603 0.06980005151227334 0.24416738281467623
Ni 4.939279434883102 4.902931417595315 4.505848848447447 -0.4479599613567317 1.2002896860496488 0.3612991295333777
