# total energy = -340860.04893510754 ev
CRYSTAL
PRIMVEC
9.26871532629376 0.00000000000000 0.00000000000000

0.00000000000000 9.26871532629376 0.00000000000000

0.00000000000000 0.00000000000000 13.56570177613610

PRIMCOORD
 96 1
Ni 6.538105231760501 5.401723695408862 5.837837128288088 -1.6921445490171179 -1.6051942109778032 0.3367345528201362
Ni 7.291864943358201 1.1801947522527043 2.2680768103890028 0.7378194468918842 -0.7878397446740689 -0.4170578724612366
Ni 4.268094967418259 6.810670334363129 5.443685022048867 1.2212341495118 0.6838836161053771 1.006883335837924
Ni 6.5579032070439105 6.361934765369228 3.2458650715139092 -0.7771416415302744 -1.0012158531395015 -0.78988917100393
Ni -0.015204400119337286 2.865617891548176 8.507295642632164 1.11966940399342 5.054255825402734 0.5212176324003024
Ni 1.9583404530688726 6.625249690381575 0.253250027371778 0.31293642195927396 -1.9416662541651721 0.025335650551311206
Ni 4.124624527618684 6.169942602438264 9.509054654542627 -2.530482302440739 3.5434627523153366 1.7799353806798572
Ni 5.379321211204742 8.620544510236474 2.160649622688957 3.314251219479544 -1.5028398796785924 1.0264712852721805
Ni 0.8898244480960361 4.516579948398088 3.4054797591358814 -0.8266672590642279 -0.7887193190655448 -1.4382671380035295
Ni 5.391157360285694 6.235055325456032 7.71701163262538 0.5018052893119616 -1.6663936653052593 -2.3438994029087503
Ni 3.672422459207182 3.429183570928855 2.2658384157115954 0.3095145407619186 0.9176557717286583 -1.2494430078458483
Ni 3.585769242482186 4.195381898083827 8.6597335642139 1.2060389298286005 -1.2685951552942667 -0.9563573020639142
Ni 5.401862726134167 4.52120503719323 10.085732785062557 0.5720840802328664 -0.6370671699724706 1.1324066490544302
Ni 3.328914611839004 0.21107737402930993 11.441515928403259 -0.383997599572158 0.5651068775840848 0.5895282438512428
Ni 7.413674396155281 0.414834316935569 4.813571822565276 -0.23152552568094964 -0.01365821421338293 -1.8565542548861769
Ni 3.2052606847528797 4.7750380667397865 11.562169572437304 0.8428132726964711 -0.9270361845022937 -0.4900525196514076
Ni 8.47625842351511 1.134138507316721 8.945956118398973 -2.3706874696358717 -4.415376799032506 1.1719083066934783
Ni 8.260408588121836 5.022049322031385 4.5703663016610205 0.5782778677484041 -0.919244713482333 -0.4550857737682356
Ni 1.0605171039102983 8.549518347035741 13.219558556282308 -0.3279778896734287 1.2778994634143281 -0.8173087006674633
Ni 3.3757772349817556 1.6644943807795833 6.026142196383967 0.42248392857281436 -0.030657062764224623 0.7872537902636119
Ni 7.373494516542182 3.573988705691356 7.325858882566736 0.037092276866607085 -0.4861560128104788 -1.0612205158279078
Ni 7.02588062842 7.589705831821249 0.6084911410841825 -1.7696710226393715 -0.3833959614324171 0.04973901909634015
Ni 6.366179836848536 7.662771112326452 9.150580613031135 -1.6173159339420016 1.501633775185633 -0.265667204559665
Ni 6.562667326564356 7.562224091785993 5.32318153119815 0.588834817328644 0.6989325400186995 0.36053551189447586
P 8.861280845459314 3.411174457644368 11.277846177959894 -0.44700222542915274 -0.5485098924573522 0.8223966567133322
P 1.3648831677476536 5.859366499537293 5.875264199540151 -3.3803051736858234 0.47695352037560435 0.48391529640541825
P 7.695841887518964 8.796900350928153 7.805053302860421 -0.23784272614822907 -0.5630096287354239 -0.7778250407505444
P 3.322519198474982 2.455143578158167 11.209827712783257 0.05749115223793324 -1.2760521257929442 0.4804952149802757
P 5.330345321037357 8.024510522139604 10.997008747201628 -1.2288703259008191 0.6395678249071373 1.5222331966035396
P 9.256869602526685 9.203973045905704 10.496718731521687 -0.10589396902135312 -0.8534753803960076 1.576821316262065
P 7.761195597127259 7.985711681064535 3.3176280975587575 0.5167945636319423 2.4241584449708187 0.27887007640318423
P -0.38080144912394825 7.1537796269854335 0.8484387086587935 4.277722249770104 -0.8825712693206994 -0.6020849974703308
Ni 1.7151386396506263 2.8959265896646316 4.752797785048522 -2.0163231195491145 1.9170314863356275 1.3063078393536922
Ni 7.774088379720527 2.800690542830816 0.4002277489350425 -0.8804321114905095 0.45281343279429115 -0.08569075460060081
Ni 1.4891024864500177 0.8119487044952851 7.592573572248537 0.060751311046443754 -1.131782128096554 -3.5490672429863075
Ni 7.769129617184655 5.00839650480645 12.895772680734373 0.8233973300637045 -0.25701827063541544 -0.3633711815710581
Ni 2.960056828890244 5.006830091968015 6.671272567943485 2.8856730050835333 -1.769985982776629 -1.5540727097116398
Ni 0.04999915630562854 6.403236159499786 11.971975611474349 0.8255807108682686 1.896413810085276 1.4635439102924472
Ni 4.8303352205510315 7.555467198536177 13.337444562011287 1.94198918472223 -1.6016430032914353 -0.29592291812041294
Ni 1.3622137778218006 0.630481167469898 4.720375819907433 -1.6699345885789822 -0.5916725438877551 -0.1331368638977062
Ni 2.907577364445177 2.4297380302874627 -0.15005586182151365 0.08798366439983557 -0.26850570244972466 0.22585084389367557
Ni 3.8236971570538687 0.7745846605053605 1.813029246466262 -3.5921177943188782 0.836946786613365 -0.3473503806627696
Ni 0.45922590065390234 3.7055766528348766 6.416006595054786 -0.4079140011784394 0.6577313831900414 -0.9505190981155822
Ni 8.574998044626607 7.362779881978689 9.166412505157348 2.073510367393384 0.054021448521777926 1.0100355083136605
Ni 1.4916699205106472 1.7352424825297064 2.5243873674604913 0.16666919132719682 1.5969114021437207 -0.4893490658264799
Ni 5.9503111313167 0.28851099992359147 0.10577364894042014 0.31625108815480374 1.6468885053927957 -1.4388165827490962
Ni 3.5205545635991955 7.298306700297325 2.1687217466001565 -0.3584297784053827 -0.5980972164671764 0.04241677440331404
Ni 6.133219953527746 0.8594026716563331 7.51284779312973 0.2556435017750759 1.243128121371414 0.04263634661328786
Ni 0.14431296599492174 8.012581685908449 6.992264852784295 1.7283701070080557 0.3754026588142954 0.9468709598400338
Ni 9.088280945022037 7.149200881765394 5.059558884847129 -0.05779454241096498 0.11894797399183384 -2.488572035360198
Ni 4.299237849886542 3.7614484669773818 5.035303584510446 -0.10533115453934762 1.3789031942229155 -2.670651647705194
Ni 3.9460163891770663 0.582107743778834 8.185571129304748 -0.6488104265513278 0.7651803554033403 0.8232255803725306
Ni 7.172595118476689 3.0140841687437048 9.669604555510151 1.4318247248122953 0.33891947628659697 0.045822200540437216
Ni 7.594562638491897 1.3424250712534116 11.442832085936143 2.087623152645682 0.006682297116182039 -1.8075595701550289
Ni 6.524378264815404 3.224715717580537 11.906290081868326 -0.8745175457782873 0.4899231931623949 0.5361441718031477
Ni 1.0331280510252447 1.4557721872369376 11.878223485915287 -0.2657525651846197 0.8966367462748299 0.1551917868152166
P 5.692149611855652 5.089627523244558 12.62070131759025 -1.3026717852630016 0.8259740896519452 -1.294884685118415
P 3.9541172461048286 7.811645212982875 7.730998123591047 -0.5681279237985958 -0.7118973277094837 -0.020638502185958002
P 1.7908176977915609 6.236973949465238 10.480915572412039 0.1823629479133698 -0.024234704177648586 -0.09942738746040296
P 4.530872306959426 5.5191490460013295 3.0585230229086418 0.266810831245805 -0.9189143267261077 0.14363159278144294
P 1.8705842592564577 2.8515387134323062 7.75846874116828 3.1597741993431647 0.6457796101448039 -1.0710197613065167
P 5.129251279956438 2.0735783869165445 0.9242466019385104 1.356635641073967 2.216426422165041 0.06971469088731864
P 8.748350821651703 2.895110942742843 2.257875662637636 0.5291263457244177 1.1883132304140631 0.9736847375987683
P 3.2545887860910367 2.1388486780896563 3.910611751542438 2.1683802173900912 -2.41210382779913 -1.5398311121909611
Ni 3.8247537905661857 9.056303878201923 4.038835155133582 1.1651542757990965 0.769176878157243 0.5207689748986579
Ni -0.1351360112533003 5.25284959475244 10.09946160575066 -0.4852746386467901 -2.1162107344753878 -1.6316426349773188
Ni 8.521499021529305 2.3699455496913613 4.39798673971306 0.272871178507272 1.427469276057077 -0.4022837994758556
Ni 5.6853000314556335 4.800156284444861 1.1606192261297827 -0.36814726280346277 0.613594283661511 -0.961583069239228
Ni 5.0758727501543985 3.1897911993839614 7.009641839704396 0.3084719584300171 -0.3193536383395274 0.5895611539717073
Ni 0.34444676819973674 8.960428290031706 2.3314145744803776 -1.223859502949789 0.09567229129334491 -0.3899486749492704
Ni 2.36989920611626 8.19182009697145 9.431323502896195 0.27882611053912626 -2.083261790353193 -0.7212607712022546
Ni 8.72783915531173 1.0460579084785948 6.492720968663491 0.11862041544908604 0.9511330775504975 0.49102799619079945
Ni 8.28348768852244 0.6262360959905902 13.31765214795689 -0.03695266596494926 -2.0820369168071564 1.9661102461401494
Ni 6.252267329248771 4.017904542874689 3.1470253482801924 0.7339777045482908 -1.190902588407794 1.8429425776400132
Ni 8.316586269860013 5.119899146500932 1.5188161330621683 0.12965713287922184 -0.1491080425149819 1.7681167907783744
Ni 6.817501377333108 6.225842222725831 10.932747819094228 -0.24973664937233764 -1.9002306127282047 0.207608609854036
Ni 0.8459760110778937 3.8391759111378074 0.3125633154013288 -1.574860335880952 -0.5580988216973678 0.15648068082996922
Ni 1.6157316710576661 0.9755322558889596 9.62350845509958 0.7137192114095708 1.7549190611411776 3.0289608413723124
Ni 3.2683806340412773 7.140970262827348 11.821491535018897 -0.8083291228766725 0.1591667123025646 -1.2267159985619775
Ni 1.098426148343418 6.722459973514718 2.4547950744734033 -1.3810937741163312 -2.3207314494327194 -0.24074858694111437
Ni 8.66667490489262 5.638817425628716 7.159299146780036 -0.3053809782095192 0.9501457739365637 0.09062984377343102
Ni 2.6806977581777187 5.781954191687558 4.275353298150673 -0.26145368069894975 -0.30270497403925284 -1.8248234994417991
Ni 5.474844588204188 1.0726127770118192 10.87976042906605 -0.8435678914743086 0.38849677299409224 -1.0586992920679508
Ni 1.9766647026640507 3.409348520785364 9.866674120529247 -2.3984065328176953 0.005951075377112332 1.7252608719551126
Ni 5.291500136387185 1.6743192187011255 3.34562795876365 0.8526634260176734 0.41675422517788874 1.4566016746466592
Ni 1.6443349256103819 5.684864401849678 8.281697899652016 -1.1971192587414674 0.9983691277193256 1.7541826971957857
Ni 2.6821622151509303 8.68937398797739 6.043166972133296 0.3048718997835846 -2.2678677686644684 1.8404203254387916
Ni 7.537087336650877 8.193126985789315 11.549200786380869 0.5278359090477684 1.517968764900231 0.788567623979029
P 3.2313243113900274 8.60379594219475 0.3717329383480646 -2.1137129077541985 -0.03935947563422899 -0.8332184299191843
P 5.259411844986827 2.6011258397282493 9.065931292493532 -1.3687072275265202 -1.5963244192919992 -0.4463836180085474
P 7.211254928826454 5.28072988953357 8.806202433322548 -0.33731819323774814 0.2147249091838431 0.18108639519379133
P 6.394208431069992 2.8757022534902874 5.118922223937789 0.7331541802057309 0.5954597788443293 0.5229968357879121
P 0.7782272655083473 1.376672973253504 0.5163610406536773 1.1026181049380883 0.5523521490215778 0.26962310388361954
P 2.029996888890987 8.055838778908296 3.6221100203338668 -0.27728447708361925 1.0697390948218803 1.645533534026798
P 2.7344655740106107 4.60795094106843 0.07771446795939736 1.3035770706860905 0.393950854130128 1.2696426227221747
P 5.468347218974942 0.16619640215790354 5.562995629276468 -1.604351917582166 -0.49680963586958315 -0.3959776547521696
