# total energy = -381167.60144258983 ev
CRYSTAL
PRIMVEC
9.27521169704114 0.00000000000000 0.00000000000000
0.00000000000000 9.27521169704114 0.00000000000000
0.00000000000000 0.00000000000000 13.57520987138595
PRIMCOORD
 96 1
Ni 4.561038991632658 6.004595844273235 8.600574566201509 -0.9629375263845933 -0.09563681006971916 0.5987011685997624
Ni 8.869059482512391 6.065144426439557 12.27604880519893 -1.3743921937264394 -2.0865260629267617 -0.35173616843529104
Ni 2.8093503301459752 0.4450988604469146 13.488735435174043 0.213225184709865 -1.724693943708049 -0.517669767148044
Ni 9.019410664638016 3.7299707455106277 1.0663080210329818 -0.054783266388466936 0.29240102101008353 1.4107311373667897
Ni 1.5961433607928686 8.779256882553089 11.28758299860082 -0.8612668514159683 -0.6582317198652277 0.4202005318552763
Ni 4.180328651007835 7.383662149762703 4.708262572363295 -1.4650708884599348 -0.15913097396862272 0.488153759966798
Ni 8.152642128571411 8.965493858857865 3.456329738999645 0.4141957204220931 0.2897743820205138 -0.38724258887201696
Ni 4.7729961300617 8.400809693590118 2.8248111805768947 0.6355954705229505 2.15808037812598 -0.46810146930161317
Ni 4.572224896977723 5.814889938781847 13.063383500497977 0.8672276969850936 -0.11700961931854041 0.9159277332939582
Ni 3.1278332752815445 7.578682751574757 12.295705761416006 0.8560691092651127 -0.2586727755197029 0.1481503065874029
Ni 8.441008461223213 5.878239634890299 9.685722397298251 -0.5878068902847619 -0.3842415972621641 -0.4370651688210989
Ni 0.2192316869880263 4.2949331671302415 5.097368834645128 -0.7377618541810714 0.9127470215731313 -1.3953549120210356
Ni 0.7384654597417696 6.1654743917111725 6.488977081434427 0.9701890657406839 -0.46909160112902437 -0.04888849817058677
Ni 0.5871273950881888 4.055651254947831 10.073674823241008 1.2838361406137373 -0.42619454465518214 -0.24223545589928605
Ni 7.767201429964845 6.490116077434737 6.263642305128779 -2.2432790235815108 -1.4936888093069438 0.7671955860611561
Ni 7.4553038851568 0.509939083080203 9.277149320639785 -1.1127006859850705 0.21097315545089473 -1.1179465077650423
Ni 5.2006390420348065 0.22955128755761114 12.453626443833596 0.12314427146136855 -0.7755272458553031 0.3842837633540091
Ni 6.16234864535853 2.504019635242 8.220305725654981 -1.15053266923118 -0.10252916631417826 0.8878538578758772
Ni 7.20879658303757 1.2838562570922112 5.0296421661218025 1.0525561552846905 1.5547111146265868 1.3379738029984054
Ni 5.261994567621544 7.113169150112513 10.743611308644903 0.5342870639897508 0.24954278819397668 0.932573055160123
Ni 7.014360319564438 9.397180763144776 0.8774637827112091 0.13834797578500047 -0.41918108945182647 -0.33847518966032675
Ni 6.66907201253232 7.620356277872747 8.77249061559685 -0.6235855905462679 -1.1424005270423487 0.23600875826328385
Ni 7.670405320361944 8.571028379239067 6.8835677764115655 -3.277473645639878 3.1796066606880595 0.44383462633444853
Ni 1.7163037287408929 0.3070846374419124 9.193797630437937 0.19671227465650637 0.11428039331283543 -0.5659085475497738
P 2.4281855041464344 0.47344483501163526 2.0969899538152217 0.26557155952206524 0.26391782596872615 0.2931044748350114
Ni 5.045344172057674 2.6381020959951167 4.73758522672307 -0.24556991958915772 0.1363934231617909 -0.06809438167507628
P 9.14859581359827 1.588927246067777 10.302227170495415 0.43629718030682274 0.24075655736091442 -0.5700133137467667
Ni 2.1922797690333478 4.2053809978876195 6.467298129060447 -1.171721644603969 -1.2109145127533467 -0.7400930734174093
P 2.5190918543014775 2.3948874940396494 5.505059838668177 0.9637188846353081 -0.9317472168247178 0.5375657347410225
P 8.641492162743592 4.882953765107924 3.0746631240455704 -0.2626757260315089 0.4921291996747782 -0.6159748680785456
P 5.546029376395943 5.872665232641224 6.752471933835156 0.07254316147504926 0.15218873832283467 -1.9629220782201549
Ni 9.024521306300645 7.867883853282158 8.568903428231975 1.62798986871608 0.09957522589217689 -0.3763218281944551
Ni 3.4117938823621126 5.43352105812427 11.029152411804075 -0.3517577657018458 0.3057069940903703 -0.03178706260360977
Ni 2.006608580644035 2.426488140400044 0.4690632249908983 -0.12016976221407692 2.233271004526205 0.12311059000995574
Ni 6.537438207675635 7.137553681747816 3.8157200779443974 -0.5512589159573991 -1.3453484981959218 -1.1188859888601763
Ni 3.3528591870366204 7.4702184256168875 1.2490241269654638 -1.478114094797138 1.2217589116670187 -2.2779827456112836
Ni 7.2292113240529 0.45893376626175614 11.439245695664914 1.2707973051519084 0.3153704853220633 2.966823962832252
Ni 3.727271658897515 0.7081976613068189 4.551157181056678 0.9650080357603766 -1.1270708386638137 0.16806247213029765
Ni 8.671506747898345 7.957324719984034 10.859041318611181 -0.9412695544928564 0.5747698545951456 -0.7275851707583856
Ni 4.633005359437268 7.881685368334776 7.1018172184775 0.370251196520343 0.779126276060471 0.38746961728115853
Ni 4.2542057124285995 3.708109071465588 1.0257039266473342 1.1587236896824045 2.5063234458063484 1.2753764398821585
Ni 4.836113945876931 1.3209385535843914 0.8649236964537234 0.026267932557593472 -1.3682734824232112 -0.470604438229125
Ni 8.941062951163916 4.567967574794154 7.501878433332347 0.4736126289278294 -2.0693148412547977 0.7460084104605798
Ni 6.524666241124925 2.731484927681779 1.2071957046316 1.7324902998240164 -0.21038514415790863 -0.32699778514834654
Ni 3.1997068909688653 7.768453583548247 9.761485109263504 -0.1953465046572313 -0.29166054329963315 -0.3372706278292643
Ni 1.4783759974709034 0.9895166880869933 4.278580041331001 -1.507406158893036 -1.1842704278032572 -2.750995279061269
Ni 3.7473153914436885 1.6123286052598158 9.029510442689626 0.6342448700323271 1.0617159674070877 -0.7203567713307465
Ni 5.942683805982763 8.748917664987825 5.23606664075455 -0.42295752577512313 0.7803524351580884 0.1963219811966232
Ni 6.256965080205137 1.0890489851499223 2.933806048645657 -0.775107384709065 0.39146768269695803 0.4774700550007068
Ni 9.243230798868334 1.0796624708802658 7.98939098197322 -0.40591419713959126 0.45778980296295996 -0.7891625772505505
Ni 8.690817738717936 6.74928404356393 4.2836164812997986 1.9014873679534412 -0.9860095777127084 -1.8012007178165368
Ni 6.946354467168073 7.222273465679676 12.985366912082599 -1.7633119131905632 -0.08666674536062494 -0.1561379527785698
Ni 2.1930125107599316 4.8046431524807405 1.6486280738820767 -0.33811934898280477 1.7226856550287686 -0.9499411141249252
Ni 6.168998972168158 4.137022687445555 3.0300549207565526 -0.3241921973787513 -0.0833443658556113 0.968435573384687
Ni 3.541832350801425 2.154390529120752 2.428115940058468 0.48243356965356915 -1.406594746600913 2.0227791595871034
Ni 4.595255247700606 0.9900824760024568 6.904257063694071 0.23210813765729704 0.49251563647991947 -0.6419003296950558
P 6.900182463181561 5.689238645490308 11.161646028788033 -0.3729462268540029 -0.46166496964765 0.7409330528202014
Ni 2.0309467362206934 5.771036737727561 4.095423362841395 0.3368047439364393 0.22714796543854426 0.1662724701094104
P 8.136271379869887 1.823812707890684 13.327733527420111 -0.9480125296436446 0.1607163161778716 0.3782056754807293
Ni 2.4764073299250358 3.1634779139557443 11.403746677814858 -0.8100167949917405 -0.772879780930127 -0.36240958898873715
P 2.0679826566542294 8.012298899901282 5.054267853262057 1.643875429598085 -0.8565419351364731 -1.7243435023471658
P 5.564876606629087 7.359991809430525 1.1086178268555757 1.2655391420767623 -0.16336686642684123 -1.0835677731748565
P 2.5900564992393655 4.5203579129896605 13.06427948595099 0.2645279487488993 0.747730535358009 0.30246174768019524
Ni 5.458452827251579 4.328527984012352 9.909590762629561 1.844714067718139 -0.3127147928667711 1.9503506693130475
Ni 1.2322675294560157 8.194213627540385 1.7777826146436242 -1.8564794357841834 -1.230947520144822 0.19305539463020946
Ni 3.507560443463104 0.8932650334125795 11.146455087018422 -0.6214266352217362 -0.4301031356809689 0.40308135567648645
Ni 0.2566256305942983 2.1515337639082475 5.83480196332147 -0.5239874818359557 -0.12330367985736829 0.4533271392059161
Ni 1.3103184361547902 6.546277484453285 0.0032157159064129634 1.5571888867431183 -0.7225720338145104 0.49308847826425395
Ni 4.470290320077006 2.9311338601465584 12.664204358278548 0.30169221650402234 -1.2806227758827622 -2.668072317013792
Ni 1.195509865374347 6.3992653785500675 10.648761138462726 0.9152944705853333 0.6484286177318768 0.8349336128380783
Ni 4.502948340574497 3.833955144203433 6.935818754165203 0.27240580883507926 -0.1704327721346871 0.7997028146602421
Ni 8.542265947667719 6.880389161352068 1.5088710385932125 0.03709047709439419 -0.06771462973815434 0.8044251598365759
Ni 1.7575505952993538 2.824357622723351 8.20468070397646 0.17433210718909334 -0.4924930107721002 0.7799983942527792
Ni 0.1938862434176079 1.0752010940386603 1.3572129791349843 -0.46347399783193083 0.15715559540980675 0.5149899063230357
Ni 2.078241040826404 5.515671608407223 8.714986157919956 0.026157375121658177 -0.9829725906585975 -0.3413046886893219
Ni 7.75430888566166 3.4065904885821943 10.487691521663173 -1.253149510163158 -0.21282460683733667 -0.41221494254663843
Ni 1.8304259338533966 0.3474392286320524 6.517336041295568 2.5234300235796474 1.3735681551632473 2.165804229132799
Ni 0.7469680463336611 1.2493246438254806 12.339906782910125 -0.7156763351359416 0.7642856115032127 -0.11837410376623486
Ni 6.821491566873492 5.02384423127006 8.156108275194505 -0.08122860506418914 -0.5759800728531629 0.1415659685016659
Ni 4.4324938322817 6.046844433698418 2.3947214677497017 1.0012135391466563 -2.484207073523283 1.7232564399305739
Ni 1.4004549437363338 3.147060789195574 2.9034111798100204 -0.4087575801256574 -0.5208877598647094 1.4184788996330087
Ni 3.0394497827167646 6.1512462169190245 6.531753430406986 1.5220943570328302 2.249931238790706 -0.11262588842854798
Ni 7.004333815685487 4.083254285053066 5.483393871590617 -0.0677025455532963 -0.24251647747481458 0.5570256432378471
Ni 8.975594564430647 8.201383366206832 13.097728682008956 1.3494591779301857 2.334500221082038 1.2602205580773265
Ni 5.719179028951228 1.9981403123355403 10.57369035729245 -0.7440037213257251 -0.3722862246725008 0.18437843568150183
Ni 9.157629869822227 3.6172954734278338 12.429720513123502 0.7370136631611371 -0.20354780952110108 -1.0769595238297194
Ni 8.345195524063575 2.7537268854077044 3.2384475953181746 -0.7769359532773716 -0.8727434845970001 0.7300742557288264
Ni 6.9410490460591365 5.256735522571253 1.1764928987665635 -0.7965380437790153 0.43849367373750936 -0.3042476359360244
P 7.821470693790694 2.5455262077288703 7.120836040127628 1.0436848209369896 0.540141722998315 -1.4121485865396068
Ni 6.616101278348517 3.958818044498015 12.77153061575728 0.5101747443225795 0.2718823322314415 -1.2184815264673272
P 3.6765548011638374 4.056179942016379 3.179844025051405 -0.22270792738931966 1.6340998382685599 0.46700155136921506
Ni 4.531951927650797 5.082435743761583 4.837661978714485 0.6651693275253254 0.10965060785030795 0.06996048834953758
P 1.8292108811169097 7.553231570590628 7.8701330921264185 0.496791381037138 1.0149044063701875 0.5264626828493256
P 4.957563568255273 8.986780469775711 9.174371626992908 0.2878761365565365 0.417038846297843 -0.3262321106269156
P 3.526787957377134 3.8811195958449387 9.532457871168576 -2.3551402659298923 -1.2898707768435915 -1.4462437284511027
Ni 0.2345719596664699 8.209786708033224 5.978820958399767 -0.3507938591266797 1.1779442284749133 -1.2810922593200131
