# total energy = -340861.06621623045 ev
CRYSTAL
PRIMVEC
9.38873415667721 0.00000000000000 0.00000000000000
0.00000000000000 9.38873415667721 0.00000000000000
0.00000000000000 0.00000000000000 13.74136146608865
PRIMCOORD
 96 1
Ni 1.7596740809740103 7.522591674189496 4.73874942271313 0.9016622245138795 -0.8077182287655508 -2.5295641615018436
Ni 3.154060688260255 0.9902579410458201 11.437291913835947 1.365659956059764 2.57615615032877 0.10020514616669193
Ni 7.070909070245611 5.256517447527126 9.154508557276076 0.06306273278843978 0.11868623569001496 -0.7530555471153483
Ni 0.7296651790510568 4.214471249744427 4.7171478235289 0.3412504384126187 0.8718310000850598 -0.6921756809108401
Ni 1.3293132919411932 9.12081708532171 11.111512232814748 -0.9801950279134604 -1.4002099261204917 -0.3303664445102633
Ni 5.912696066696888 1.698769363524386 9.867451462202034 -0.23141548246564664 1.5272391344585632 -0.07080535284833613
Ni 8.61426671988937 7.321165774981196 8.31684852653147 0.9015388115621378 0.003539637722142291 1.0812524947781186
Ni 3.7403871264796233 5.413750575803503 12.502193106791703 0.3796688902898171 -0.3413918490864895 -1.4233277430848779
Ni 0.16568580549541498 6.27234091125143 5.871504874024353 1.061530590869159 -3.0537059095274763 1.1494173246798138
Ni 2.6124527900767367 5.877441370531736 2.9212764174962675 1.8993721213826518 2.4504271488593607 0.27392944456845725
Ni 5.341720208565408 9.466003279518239 11.468828671337612 0.9538597324530411 -0.3044191285168822 0.5170511597274385
Ni 1.4146474952554582 7.833396324482754 6.9221699296178665 0.6667089040983034 1.0700602256067249 1.955045246575239
Ni 6.466847313502681 7.097225691643993 7.744672788194956 -2.2905880930801197 0.03712492987675541 -0.13863285401527095
Ni 2.4102288484785466 6.532127180995705 9.382752436278288 0.7233374512256252 0.67394810215922 -0.36813389306702404
Ni 2.1079867235921106 3.8089530508721943 2.359721215059092 -0.41441966350744114 -2.0015130511194754 0.3068999859572069
Ni 8.915156867079991 5.705251988995417 10.961689632283553 0.7312261099450826 0.9018440015073823 -1.635265576441887
Ni 6.97558525395672 8.574909146966782 3.5661444288177853 -0.5187444882694614 0.3358968874101893 -0.15200156201269308
Ni 6.032684087200388 4.6197077865967 -0.2931153365662909 -1.9285448862918655 -1.2386829411158666 0.7724354943038568
Ni 5.037722390421215 8.191858188553459 1.989048363549667 -0.38899839522085905 0.491690826585779 -1.6578794571866609
Ni 7.462400500523774 5.3689287596936675 4.877235126940884 0.7152428471429488 -0.6305478807967141 0.08883032867084702
Ni 0.4631302873085105 1.9207472014558598 4.180438027872508 0.1089633519752962 -1.609477925954822 0.7171395499450295
Ni 7.48046442473729 1.2810551991878298 2.260797758155096 -0.9674572686318176 1.5329377275052374 0.033796379724154696
Ni 9.222309299847751 0.17572517876023436 7.935169262155359 -0.470696483722299 0.5049890863565819 0.01031526588307901
Ni 4.901322862887972 1.650426772165034 5.951246208495586 -0.036908185880259015 1.7401125922559646 -1.2616089537844208
P 5.778174285963388 1.123484076487499 3.5417806640911356 -0.6631481833302386 -0.5647839470270273 0.9353279921974409
P 3.7914430619646025 3.26019093738166 11.630962718761316 -0.03995211491290539 -0.04867612504946456 -0.5108673995142299
P 6.264294766214537 5.554177870222191 11.423852879990196 0.6201531678259513 -0.12848908071304968 -0.5745160867131266
P 2.770268019861034 6.062803145868246 7.10306078982419 -2.599105560036092 -0.558037115221497 1.5795119757203506
P 0.6234523090704631 5.559398006325473 2.919846513308264 -0.6496228951502941 -1.3839937213719455 0.012932134680635792
P 2.0074146049979413 6.7221082134595775 11.614075202917837 -2.369309872562055 -2.1522177486976157 1.213394084642091
P 6.92453870720574 0.10756390880300785 7.181771241302366 1.1513819046053526 -0.664644565370107 1.2685751006896089
P 4.807257136954909 6.144194080903053 0.6435329333469015 -0.9410183577139987 0.2900777721935456 0.7130196142393849
Ni 6.566189507943021 7.108126011816493 0.05837445363697237 2.3823595066571617 -0.5922896086464637 -0.9225771202896755
Ni 6.742876093064723 3.122045105324658 6.744342613315321 1.1865872488618918 0.5201279988805494 -0.16898601238583155
Ni -0.15932399933788985 -0.024565622507621745 2.560386626813497 0.4709535940384276 -0.6076300956582761 3.083747707305205
Ni 4.561431914666714 4.894046594038972 9.760241508670775 0.1940056743586207 0.26337840852548833 0.7408813736466595
Ni 1.2845102532993546 4.957523824604243 13.265580740619322 -0.6965470705056584 -0.8702484860892884 -0.5362027929552249
Ni 0.4512188004843486 5.268225198823516 8.655972415185033 -0.3989537066613581 -0.0897070748488455 -0.9324812667772651
Ni 2.129965749883088 0.36256849632173976 4.860264051364818 0.535435318661581 1.4525719846619758 -0.6479506496541938
Ni 6.624934816572941 4.025616865360399 2.2821101843321654 0.26188434047846515 -1.0664226288541374 0.03198323777481588
Ni 5.527373034655878 8.90527053017935 5.698542799679939 2.250386324050253 0.4258217346967957 0.06508259143194597
Ni 7.276738285699306 1.153312084401397 5.310197534164744 1.1231411645921043 0.5544748517915354 -1.1039699909802922
Ni 4.592039187502505 5.017930939151936 6.836052705888109 2.5111810310089657 -1.1782064809973645 1.4801912890411413
Ni 7.858623852737285 7.533773656381959 5.938163946541786 -1.693454268967477 2.4474865781737978 -0.20557203903998142
Ni 9.190631711336108 3.011164156799906 2.2709385297471014 -0.8034759085494292 1.0952873756046297 -1.0254197040792146
Ni 4.24332282932246 4.5499494929862925 1.7710964147568395 1.0044947810010894 0.38623343088121226 1.6641156679043598
Ni 1.8182222261899588 4.474482849104671 10.673986900867517 1.2848134169253422 0.18399482708983797 0.4081798532453164
Ni 1.2470492046445063 7.641265271933177 1.7889331316075867 -0.8821375242173903 0.7623680827655258 1.3707916208593747
Ni 6.5753623010597595 7.574980809902292 10.325121261816895 0.4556953823277765 -0.9542824218127565 0.17696388838498553
Ni 4.123250310212972 7.6258114157713015 6.677160588314159 -1.2773898707677613 0.43782930068063314 1.5432493938438905
Ni 3.4471206312959533 5.835952554991442 5.15672083836125 -0.059851424939993694 -0.18253058383948564 -3.041001317476614
Ni 1.0561105213127642 1.8967308198871624 12.330645914660893 0.11977072700344535 1.0340974343588707 -0.724932563626887
Ni 8.747220582045085 3.0960383121482344 8.750292575809464 -1.6435195889205632 1.2511815878035097 0.8181008575514557
Ni 5.514369638067667 9.196274340469332 8.817529055467817 -0.691573528550467 -0.1029927362141581 -0.8012691307060974
Ni 1.6198664429992367 1.284529030767352 1.9559868756466134 1.6948925440759004 0.2269286503388866 0.2927468343852765
Ni 7.1854046813598655 3.488027345328328 10.561362464439206 0.21000384955908996 0.32051860518190606 1.7736791153575002
P 5.607346270856881 5.787647518568085 3.9053772267857343 -1.611054526413322 0.008679015831236666 0.3014988695462936
P 9.392207830288386 8.935502253655192 5.1240846601083385 0.0889632547042855 0.661871373500344 -0.4550927157467711
P 6.878928237440013 2.630141164930304 0.6247122771730899 0.29757330923964237 -0.04085637189472963 -0.542515108326498
P 1.210583361793521 2.9428517282253 0.4572041184085255 -0.2520560415341337 -0.10817248064288468 0.7256072210964084
P -0.04164185190447343 3.5461529975143344 11.081610992775662 -0.9413238047695595 -0.9268433517651974 0.1261884576043311
P 2.7727560343706914 8.777527415392917 2.853091675704044 0.22008360239259517 -0.4015052694386182 0.045160398586722224
P 3.367119228892955 2.8945654692699407 4.227681198480611 0.26796139991048046 -0.06131078309433958 -1.1197370240065618
P 8.382505821131241 8.12545167298059 1.0759967987954293 -0.8875944335669036 -0.44358985731349415 -0.5857512933073138
Ni 8.892483074473109 7.14014159475209 3.7192784358303266 -0.4567330795636715 0.415349374410562 -0.2137597170570964
Ni 5.666298131634773 3.662704741374306 4.624614338984425 -0.6351730382735512 0.04643052354839746 -0.5171845999815093
Ni 8.831202807663537 5.995917804861444 1.1700916298038895 0.6005734459218107 -0.8966092354710042 -0.11709163750938544
Ni -0.15953994021986012 0.6210872869761883 0.4045596091309651 -0.6521706012728123 0.5812631756289731 -1.3693178645273256
Ni 1.8137062451365797 2.117769784418765 9.510011092390387 -0.12032582817596695 0.1311162339232516 0.7114952071750585
Ni 2.6253529105909625 9.306160083190221 8.788754463508575 0.2688000937616919 -0.32868442882215004 -0.2077397361152616
Ni 6.593341726667287 0.038069438617964704 14.109766880366431 -0.6530853997775978 1.2339605959395328 -0.30418284413636004
Ni 1.9921109685800458 9.464594969418433 -0.33681144346968184 1.6398755644100724 -1.137778197778989 0.809356278589606
Ni 0.4194107085701228 7.340534733220533 13.138583091312388 -0.13084266854689078 0.39982068264734366 -1.084170696866178
Ni 6.844002146964816 6.328128768671758 2.2568676341032363 -0.6765803975757445 1.0863671902968643 0.9453673787113138
Ni 4.542062956427377 7.895840794308167 4.075096432406995 -1.8166185950335039 -1.9253127525078133 0.44652862822684386
Ni 5.898904016452785 2.3285186964877833 12.39212428375784 -2.562662229607393 -0.19742678422502774 0.18969110614366685
Ni 3.488938052526203 3.243375714789972 13.850329871526908 -1.5735207911339224 -0.2381733700147704 -2.043575270396848
Ni 7.6750553255945295 8.615449700373206 12.16183272187051 0.849197321845944 0.45511148479984853 -0.13967929300191428
Ni 8.074236129017635 1.869137330664957 12.440164557882433 0.17740457546682997 0.43977228333961677 0.16536435647284423
Ni 2.616696497844153 4.186680597108249 8.228670475688997 -0.10911093329675403 0.15065250418396636 1.3383635822376563
Ni 3.416964017692101 8.077888346543132 11.258641205561716 1.8846458709160703 0.2583891828410131 -1.3185550321521613
Ni 2.542356502042376 6.6252352560609005 0.4453452084947563 1.9491713042929655 -0.33653066433944623 -0.7447359715060594
Ni 4.644418934481301 2.1908986335347085 1.7031041420115898 1.6288023373150464 -1.564518587635312 1.281162450436316
Ni 8.035301049124989 5.160123315562382 12.862161862669202 1.394629860929553 -0.3823657203956899 0.47095307981779533
Ni 2.6542044901689947 3.6227087345398066 6.031770563382313 -0.4128536045719019 -0.6719871217781072 -0.005590092493267792
Ni 9.004011845643772 1.176107930550262 10.335784985892627 -0.5966072621852112 2.031066082186244 -0.351716113830633
Ni 3.887395923431407 1.9443129237926189 8.1406576665649 -0.4012077928028574 0.22136555442881228 0.8356260109194125
Ni 4.486875977982967 7.912637239431857 13.354198184212937 -1.2082950728526287 2.0295943827367235 -0.8467558022839868
P 5.344583772435015 3.5147758484906495 8.27271208800354 0.10751376401296321 -0.4510658539755651 1.073991442340331
P 8.225188194248876 3.188207513813559 4.656988571558773 -1.4725486848942189 0.05429321412592585 -0.369407360462809
P 7.944624656165459 5.0183252659798825 7.078697025097541 0.6119883726269719 1.15309220242824 0.907135846033941
P 8.813636486351951 8.55055477097413 10.27045817472961 -0.7812325237701965 -2.2323094119438847 -0.9756981684843713
P 4.59629228400392 7.333033134755564 9.38353545669378 -0.6499334844121775 -0.567158875017107 -0.32099168816358264
P 3.2664344454908014 9.90905763691731 6.640924769446143 -0.23152449723968513 -1.8202155683561427 1.2615228218285177
P 4.134751509361391 0.6108516891707959 0.2122849089512067 0.13360840421748604 0.03673643618908512 -0.4700074280750744
P 0.728616457463401 2.173736027785069 7.662045356892519 2.0790665213249224 -0.6185606265278508 -1.5019878160909423
