# total energy = -340864.5372538249 ev
CRYSTAL
PRIMVEC
9.35107676834948 0.00000000000000 0.00000000000000
0.00000000000000 9.35107676834948 0.00000000000000
0.00000000000000 0.00000000000000 13.68624607180464
PRIMCOORD
 96 1
Ni 5.32258609668295 3.24571196378775 2.9903349944858384 -1.8933192303203523 -0.41349843724475244 0.5841656939877488
Ni 5.6918694662559535 6.711052665798416 0.49572301793198326 -0.27195612289217036 0.19368325802219546 -2.096356161643306
Ni 8.762622785169912 1.3878493980539124 6.024110415736037 -0.6719300432879267 1.5404301792275406 -2.3262994304388
Ni 3.1149932627353323 9.403162187372471 12.892156437871018 -1.6510454649839628 -0.8549437374114179 1.5275193847031436
Ni 0.635969531024054 8.661266464924749 0.5828685069310388 -1.239843279972555 -0.5604758065699766 -0.9794915740885325
Ni 2.46484095369524 8.876668516483688 10.739816310762832 -0.6182855184895932 0.6580836243231376 0.12269561395972417
Ni 5.117881676857606 9.186292016773166 11.88204284761039 0.4277423487582762 -0.6574719588810677 -2.4317997635661603
Ni 0.9282177957154559 9.15272165145532 8.849868330689553 0.36667942000868464 -1.717755564717003 -0.4320602594073397
Ni 1.1389985451740967 1.559114367635072 13.55017767794592 0.1055700100230311 -0.4340330668629944 -0.4581554138324948
Ni 6.911736122646969 3.881575827645205 4.75142700798339 0.1651311574161156 0.6882066689607631 -0.10821721783789105
Ni 8.242197963053076 0.0854940888555648 7.674890582842211 -0.6109419336403284 1.1407953873387577 3.42341048951573
Ni 3.503577254596926 6.767982020688402 11.232493683016815 1.5891047616151084 -0.2671160211910496 -0.9184211891397731
Ni 5.478580758029 4.126031674480623 11.760372248363417 1.6174997678180336 0.7359821365728292 1.8409278612028297
Ni 6.533531825911507 1.9003819114442135 11.619198108463678 -0.7174663371568288 0.3239199175539712 1.1411448002583766
Ni 0.32555960518493 2.457135666502509 2.098142221719409 0.4611445783678058 -1.4252807530461906 -0.9775835584325422
Ni 4.813307757980841 6.8699835652251915 2.449619271058919 -0.6149482265862442 1.6483995427206835 2.2913949052521314
Ni 2.987089235766667 2.510072111645776 8.882414753109822 -1.4879722185381405 0.8132353019290383 0.6724090398068742
Ni 4.8730798401846505 3.600950016172062 9.767997249763944 0.32421276620404166 0.04030487026663382 -1.8933277149607846
Ni 8.480295077739152 5.128738276894937 8.025025752676678 -1.1201555996012194 2.9706829315670253 2.291352739160286
Ni 1.2276654543506493 5.55006038824895 6.232935855058757 1.6925584966260852 -0.1109857817219637 0.3280187702136932
Ni 4.262735064614773 0.8620168482871283 3.6028492198478435 0.2000516234423845 -0.47530184370479434 -0.620202533006648
Ni 9.03816161092358 7.386368722211858 11.442098067027828 0.838686137901975 -0.336344259360253 -0.004830588619423939
Ni 6.55118665870262 6.142834490717926 5.602821033150441 0.26385791926506813 -0.06459202494877261 -0.4470179091584366
Ni 7.418171734035256 3.8088899085322176 2.0664037323251736 0.038706158320946246 -0.8896978530631516 -0.4120372793181936
P 3.0280656538231585 0.06611959306112282 5.210805196143541 -0.4821864866397696 -0.8717006451547825 0.32938633998518113
P 6.006991399639274 9.31321418068936 7.6437131580493896 -1.8756716924419181 0.13943992329759855 0.06946555099099004
P 0.3088436204935141 0.33274497251368584 2.836898787722229 -0.5683307838380213 -1.1650442325837935 -1.0411916222014908
P 6.378640591614901 5.333741931174368 8.364526878099038 -1.2781738001216374 0.06517489403543614 0.9930091489589931
P 8.576022049816812 2.245240268702395 8.220999072196374 0.30991691840665975 0.07339188262858974 -0.26242607191454803
P 0.43136049218095046 0.34588136504809003 11.528869512959275 1.3998998510792406 0.04175111579485713 0.6873121821709518
P 8.710958086456513 4.62173224982855 11.16584201369202 0.8949038227441233 0.9653919014623568 1.149951085696097
P 2.8914090190724586 2.9436254313105805 0.04979728869836473 -0.11317713294632767 0.5838998419208719 1.8981626744555824
Ni 4.8159821659142406 8.128002614512255 5.296399341519691 -0.5767017815105359 -0.47985603873438004 0.9113015473758564
Ni 3.2385864433498117 2.1665416072776043 5.365446756692518 -0.3476843669634206 1.9210046120507627 -1.3112986077000643
Ni 1.1323405785706686 4.109873013959943 0.3698201213750225 -0.9254482711898835 0.8252462103469853 0.6844364032850535
Ni 8.23789646777558 1.0691647044516233 10.18941006656185 -0.06150130183859086 0.8696501903836571 -0.7712101065371879
Ni 2.219758584721578 6.972013162992051 13.102377057835916 -0.07409173690909175 1.0347201555445342 -0.3902991163101536
Ni 5.884146305160011 9.217552666148531 0.29000213607041403 -0.07121621513350959 0.024818344595260482 -0.4958143618358493
Ni 1.0107298262145135 8.772179585547304 4.773050437721826 -0.17140773445344673 0.3532963138335593 -0.8134569310215408
Ni 7.782601894806042 9.12298522758046 12.047112728884287 -0.8807781819760185 1.5020695771714712 2.8658860522645933
Ni 3.552876130907703 8.564997130399057 7.475002902619995 0.2841680915773299 0.27066234378141124 -1.314093396836382
Ni 2.1874599658335994 8.680529682906576 2.1909628791617513 1.0920614124681645 0.46636494622648067 0.9910206577740547
Ni 0.034549423047311546 7.857550774478059 6.679613410858267 1.0296342563811947 -0.6774070072420979 0.4253080282851708
Ni 7.220340355577215 6.100193581010577 10.471388043724398 -0.943366289120885 -0.3085040972195332 -0.6274088209471002
Ni 3.9581798478913885 4.803629393606475 4.495138308704183 0.17571021848354257 0.27124187043396514 0.28843458016316775
Ni 8.050369975830149 1.6664834301920406 0.2734937452815208 -0.9603749078637395 0.1503624837473733 0.9792162089399588
Ni 4.87977521109484 4.789743044721517 6.902384110849093 -0.8857280697821261 0.5550579779885151 -0.00940920912904186
Ni 7.500732390133102 3.50194081617614 9.817705703233752 -0.02937485361769135 0.3125754390754294 0.764242159859787
Ni 4.2500830578529225 1.6701864565613629 7.329531942981105 2.5195286316427126 -1.3269789945497985 0.28306920208619635
Ni 8.83938577371983 4.017063577809629 6.318857288119063 0.38803397442506077 -2.5687477736798408 -2.878188266670714
Ni 2.973006514271214 7.319976077711381 4.019910045554128 -0.16496172171778686 -0.8503401772011355 0.7946842783997281
Ni 2.9218280715457055 3.1052494408241356 2.4986432257150035 -0.283802223597479 0.6393361685123055 -0.2973038576283396
Ni 5.0464862063278675 7.240735053838558 9.176340600959447 -0.754566584443236 -0.596780811648598 0.3756335438781789
Ni 7.770305228958419 4.577931806611615 13.50963889027853 0.32461205852498937 0.26134646569712405 -0.6202755523364286
Ni 7.721240129564897 8.984813718405945 1.4067273516761043 2.020616861828462 -0.6578892489241445 1.823877590588762
Ni 2.7103441211199613 5.250470593248065 8.3180763397481 0.8501985094169486 0.7525089305832589 0.04847763588541328
P 3.9818661251476857 8.580753694622057 1.0054296359465036 -0.12046235375383126 -1.0602051871895162 0.10095822228263258
P 8.885103187658258 7.1307570408850225 8.890872801976116 0.5933964685573974 1.1583020287639536 0.8103523239542882
P 6.011853959518182 5.270341631214757 3.007566223502885 0.939383136103421 -0.46250752015360347 0.4600040370054594
P 2.150523212907278 5.2464870345780374 3.3263462980874134 0.47792591159120273 -1.1696570487654565 -0.2459753825576925
P 3.3055308013750104 6.415857876841929 6.265357908159046 0.8975520590002477 -0.21631745048194356 -0.2578464229636656
P 2.982890602332764 4.556742266831604 10.450215335882428 -0.2968652274290242 -0.07390790303305982 0.4449366011493756
P 1.930211846085977 3.2195383001318576 6.792949395451258 -0.13106918273540005 0.3254065294018267 -0.9292324208226642
P 8.745949815431272 6.26305193264724 5.474402696963815 -1.235978140590194 -0.4124142030416381 -1.7268436430612002
Ni 1.2777778743334738 6.343564702949932 10.22697895227243 0.359678048990187 -1.4069439024102155 -0.7155961167173095
Ni 6.136933961326404 1.3801534619378713 9.2790556326477 -1.7932745209909244 0.310261189119956 -0.5031929136881076
Ni 0.05121023638625516 4.525210436232222 3.118411081265603 -0.05386126879482982 1.542820276726272 0.1390185194894638
Ni 0.7554893826322786 6.855601609275651 3.242203439813584 -0.775027166290433 0.3044890625228691 -0.3234979995252042
Ni 8.855778211157764 2.726661749944374 12.13974168925448 0.021109785395421708 0.21437575337454048 -1.4302023587175239
Ni 3.5577480418633014 4.860886036180619 12.728906276121036 -1.552699740623513 0.037549419008683714 -0.6600286638646504
Ni 6.260564546247645 1.2888214959046096 2.3294401685440347 1.2689129436450017 -0.44231613280739307 -0.4119169516902454
Ni 6.615531417407941 3.2620015393820925 7.678326168418194 -0.044147126830859446 -0.5532579486652988 -1.623857077494629
Ni 7.7321154317556084 7.282927111864777 13.526746685083266 1.5015463576781496 -0.9802263953720279 -0.6427405662081641
Ni 7.076146753014207 8.500521456620072 5.939105388191371 -0.010351004217020883 1.421518714900597 -3.3919545849992936
Ni 4.2501391643130635 1.4716069919681056 0.9586321726503576 -0.1759740136678905 0.9984997397599191 0.5517132298859981
Ni 0.9114326130565327 1.8748160677731849 9.849881823017089 1.2170566210953426 0.3500173859719714 0.80092228888964
Ni 8.004203710210591 6.183231142019625 2.153722216242998 -0.8603741643983698 0.6324479260329043 -0.8849225431616953
Ni 0.9083467577487639 3.791412746198219 8.527899538953664 -0.709720631773139 -0.13781832853377554 0.5881748151471419
Ni 2.977270605241949 5.91734262741025 1.3456984847651308 -1.2464317318233502 -0.311030977406445 0.4853281175925448
Ni 6.868440637571307 8.640871766663404 10.085449471458464 -0.8579868951131159 -1.913100012491705 -0.9986972004827058
Ni 6.953862723136358 7.412458226177538 7.806949293184337 0.6774561153124784 -2.450703799559515 1.7057991636860752
Ni 3.899707565347518 2.0508968418498017 12.087583253691838 2.03091361576878 0.7787292977323684 0.23846056223788611
Ni 1.5491274177299301 1.0157045990137041 6.613919291786549 0.9033570957177991 -0.5735763485076767 1.012462372587598
Ni 4.855677486464173 4.585655795957726 0.8366829113180168 1.4893688417753512 -1.579258464948648 1.1492882553011174
Ni 1.8470527210799572 3.1684627192499417 11.834004496437453 -0.4110000963029309 0.8733782899675218 -1.5217326028180373
Ni 6.470206334565418 1.5226358174665706 4.844273848440465 0.7259175532479757 -1.072206068305134 -0.585065837204515
Ni 8.086567993697944 8.189729071744319 3.708356483035791 0.6486024243055798 -0.06093720180500473 0.32229472324572234
Ni 1.2566257388602233 3.095758097983574 4.357208057308275 0.37579603759797214 -0.31400625798468507 1.632278468789105
P 2.696130484550845 7.5167507845034285 9.061334514069586 0.26100887985204724 -0.5128458633968394 0.528370955615632
P 5.190530191663832 2.937060975474054 5.744992932933026 0.19038170445278826 0.9202728976365312 0.1578842460457152
P 6.1101992330691 2.7674885507738223 0.3988477336367663 0.5576774178892331 -0.10036352612142715 -0.43989929583578435
P 5.999117793066119 8.561939328321358 3.5868635542459333 0.15762559306768983 0.9610349100452417 -0.5500661812008785
P 0.48156642293067736 6.279846466382854 0.3321857781276114 -1.8160820058037432 0.1456175128632202 0.5847981853654252
P 8.45504717067559 2.5812712095650197 3.7994799200588614 -0.7805563236387784 0.020316085849532754 1.7583728240177332
P 5.706494550199439 6.967954795708501 11.9147117691353 -0.04605617092811423 0.20542522904947202 -0.2508231975682971
P 4.01935459159873 1.148536643398109 10.23361634650714 0.5894297706001655 -0.5191514938998929 -1.0250636062913765
