# total energy = -340885.5062884075 ev
CRYSTAL
PRIMVEC
9.11174639559022 0.00000000000000 0.00000000000000
0.00000000000000 9.11174639559022 0.00000000000000
0.00000000000000 0.00000000000000 13.33596187938712
PRIMCOORD
 96 1
Ni 5.109867293278063 3.0959071328537457 9.924969595583327 -0.4372191779004599 0.39691096519971647 -0.9329528070970449
Ni 4.562697819617862 0.550812349808298 6.36406727256515 0.1855166630510031 -1.0427880201543331 0.8433547470222379
Ni 3.4974982367837337 2.981500047022078 3.008539153999258 -0.47029693429103525 -0.19861951898154825 0.21008946729436076
Ni 5.132145512843086 4.640384568088776 3.201764667185266 -0.8566818031484472 -0.39078479769732055 -0.4047888252858964
Ni 4.511662928908784 4.582497644204689 12.208832436180803 1.9431695781835758 1.6633903597025612 -0.8561482992424804
Ni 5.953168519847567 5.814077713442629 5.090576815306238 0.0244812729708159 0.31396152078967865 1.0784127113364783
Ni 3.456349590748706 2.923348882496934 7.5802001983967155 0.9402578253988902 -1.1267317101568404 1.264690678033538
Ni 5.331136939051894 8.244891152754567 13.213924562571334 1.0855994588929045 0.013712721600402189 1.0090044959459847
Ni 1.970588248305908 5.418172339168499 11.851322138226955 2.3873878131096884 0.11828488648653822 0.6293366340974322
Ni 7.968276760298547 7.749795308875185 9.495004513851507 0.36989227051902746 -1.997195654691044 1.2794747783212481
Ni 7.955465645080379 8.941721058462008 7.374547174509385 -0.2330473616421148 0.7582993120127908 -0.1739083893881134
Ni 8.419681780941001 2.5308968600490394 1.7192051923723861 1.832176854483077 1.495323259586573 0.18177519373069986
Ni 1.4934698797646828 1.36227895735274 2.9860686765885003 -1.51745942936398 0.7036109193309753 0.794345921223703
Ni 1.809027875664836 6.737361848536374 0.8153327214755011 0.2983685514474281 -0.9335066227179859 0.7042863481314452
Ni 7.697885690526745 4.220114384359893 4.136561493657501 0.8580637710976383 -0.6833004899083974 0.873438968002128
Ni 7.3319579613932815 4.095520366228145 13.18943947806617 0.857015532338782 -0.4560087998031372 -0.12968567212431215
Ni 4.773516292450554 0.5080582140851894 11.170161702534225 -1.815832094576466 -0.3366998429274588 -1.0347129564556825
Ni 0.4646307203146962 0.46988181967474635 0.9435869280732079 -0.36540363862005454 0.4062965201796745 -0.8472633380480247
Ni 2.9502740926460724 4.68046713981333 9.584248601257501 2.441508763323808 -2.2048592861527316 0.7021165941736359
Ni 0.017161062874750183 5.0590693079713125 1.5893400290388526 -0.0624451538090989 -0.6927603497697167 0.7979686055779548
Ni 6.505477018389025 2.0762480577439475 7.436958991577925 -1.6651831899369256 -0.7635304785047431 1.8329098759943594
Ni 3.1490377251987964 4.687382955212043 0.8333174862106513 -0.10731347507669906 -0.9239868561530087 0.7896500584099304
Ni 0.4239932432439208 0.44786237370303494 5.593475958668436 -0.5438821638773536 -1.626863982641753 -2.6807553117980993
Ni 6.877263600356972 1.029235520411573 1.028105663877396 -0.8748749291177061 -0.8375900766243187 -1.7747700344288335
P 0.1891543849644733 5.91324084780915 12.945097979629518 -0.6421278723248296 -0.05259422915694813 2.371853464919515
P 4.046362495245201 6.487526878289599 13.317117822301295 -1.1576996192932643 -0.8366652508172043 -0.673760411628446
P 2.1681582421007515 8.61396243434199 1.8585392824020228 0.4295182097117764 0.1580850492026116 0.3473894614308211
P 6.2716149393068665 7.980559394234601 6.1925942311859234 -1.50771340572081 1.5881156582289617 0.4460879411449995
P 4.948680502232968 1.219115200377018 13.21929867050567 -0.6345120076507846 0.9045814550432034 0.28408530205553656
P 3.9632633695057287 6.535837356871911 8.498448271341754 0.47749345203947446 -1.1172715931852049 0.9328751597815741
P 4.746417959122793 1.3311532321854114 4.290085306111927 -0.28061559833938127 0.28606659415162344 -1.2180696357408893
P 0.2673377236056509 5.673948167965946 4.234460828820068 -0.4979422068121296 0.45778183254315996 -0.5126502024462655
Ni 2.836431935081493 1.8682633379929399 5.254902602932172 -0.8660002523358956 -0.06030393909638 0.07558631917674724
Ni 1.665563431063083 6.900270759621464 5.4608900279066335 0.17811111461555132 -1.20881366436026 -1.3418348286157085
Ni 7.062787865618089 0.5828911636326823 9.727010530223893 -0.5242793020447616 3.01943541838038 -0.7638040438811039
Ni 8.620495556398483 2.963659247877573 10.899428031103675 0.29179244089180717 0.4952394631689858 -1.0573430351503725
Ni 3.3410768890239186 4.599190363322531 5.474678833496715 1.1190536247862921 -0.017966097560117446 -1.6553746884869363
Ni 1.9790530605659926 6.628239575525856 9.590984004080596 -1.446333974172064 2.3662163212383955 0.460978999324219
Ni 1.368001133993572 1.1795975569195518 12.091609820759935 0.4490169418663364 -0.16468429968668413 -1.0691539117423714
Ni 4.125352223428917 7.2186260616183295 2.2242647307688848 -0.5004158651636027 -0.8171634333388508 -1.3683557577243723
Ni 5.622047661363749 8.076824993295732 8.7219985872003 -1.0166242172747717 0.9701682398050777 -0.14343104673486265
Ni 6.740760529885149 0.9623917499702609 5.072520067775765 0.22224898547503014 -0.9511353915433426 1.211082920010411
Ni 7.911902386290859 7.364778471361875 5.148534810811023 2.199019025321871 -0.10730421910531844 -0.8980336266223565
Ni 4.838018344107323 4.77212219527532 7.489902793124987 1.2346311396439964 0.5808525704541156 -0.0277440028824877
Ni 0.8043321102358886 7.330381629293179 7.524683239710528 -0.43262615921313885 1.3368823697064396 0.39176695910493176
Ni 6.396974344123056 2.0280560318628 11.549129251716566 1.3623612307038344 1.3780588439447492 1.9767929226649763
Ni 0.7979620884371534 7.677630278627749 3.241491880806329 -1.067500949519981 -0.26714944553214637 0.24980838315053752
Ni 6.969110002490073 6.521741485433428 7.559090104700092 0.3585256805532987 -1.742879356367824 -0.8417946016239696
Ni 2.2162044800420055 5.5499555250862596 3.124082474587473 -0.09900109855626175 -0.20067048797330603 -0.42394071562399893
Ni 1.3086289954718175 1.288865617869963 7.38312132772439 1.064589689410457 1.715438229437736 1.3498852097240108
Ni 1.1953699896668135 3.5787112310508298 4.210443176897187 -0.6346361919334748 -0.27771410842187005 0.2825742647276488
Ni 0.6346914410262019 7.896230182752275 12.05366850940257 1.149543308734717 0.27544562410266754 -0.26046509153343533
Ni 2.2742554153584726 5.380349480512298 7.4562959394555905 -0.11191163597034275 0.5017731505224455 -0.025397099916865933
Ni 6.427954281350491 2.3742386068868964 3.079113273352603 -0.7813821619741833 -0.3030875541896522 0.6431334307712084
Ni 4.0575334961395635 7.0067506262214065 6.2463107088144225 0.15816372495934697 0.8902732659506475 0.7801634590757338
Ni 8.62958907914936 7.503595925379513 1.1433710762051885 -1.620615944849512 -0.4694656966389915 0.035091701496810526
P 8.805035753065317 5.933104454619681 8.728320316743945 0.7982236590115543 -0.5890559322005146 0.1051833161075737
P 8.549697288087552 2.1011595719733025 8.56830165156725 -0.47864016404940796 -2.270177904854884 0.462510605477397
P 1.8150689634241857 3.473698355596069 10.955212875129416 -0.348914896936412 -1.0205091541514748 -0.40467363986427085
P 3.9276820004253956 6.243149844042599 4.1819307005524555 -0.005594463368641978 0.25552188859554703 -0.28006306827002087
P 6.788897885288836 4.3613920098632395 11.176096182862528 -1.5689691672074977 -0.03575221789894488 -1.99336393964978
P 6.133171066885206 8.03617749330409 11.177135833108897 -0.6394235860197891 -0.8930068628317266 -3.5961140599624644
P 2.438303294723983 8.730228316407306 6.099935972462538 -0.08489319839996992 1.488443501747604 1.151822591687197
P 6.870147326540906 4.222665673308034 1.959840032437237 0.18621497466960832 0.0778853996235691 -0.07734906750412485
Ni 2.9952405603570695 1.4462710342240617 1.103513564612845 -0.4708000991796989 0.5429136293164972 -1.6638349034391475
Ni 0.8329284146460596 3.7423490818353886 8.763620132865357 0.5136349349570379 0.15429010093655363 0.05097571971691865
Ni 0.7879646804589354 9.098333752892934 9.257304567251643 0.1516598624025582 0.2781223996038823 1.248372914710121
Ni 2.8837856803082516 1.6449617728068389 10.053594650253139 -0.15877667595299752 0.34959443950193986 -1.6407373981897353
Ni 5.122168150706603 2.99838411281103 1.0302469242445862 -0.10252865209354602 0.7462421237379406 -0.15744407318450304
Ni 4.097524950401685 6.953966280233603 10.923752748874955 -0.045591829697186 0.6940597853074305 0.39311473138207775
Ni 7.309051031337466 6.886457352316525 12.3487004745403 1.0670620622103495 -3.0333170614584795 0.5865285377929705
Ni 7.472515758943401 4.0417063929148425 8.645530990376749 -0.31178482485333403 0.5657056875103483 0.14865115748322144
Ni 2.9136448727477524 8.47207432184034 13.132014519716622 0.6278597924415897 0.5070775934544944 -1.4966679465399255
Ni 9.066151065161375 5.896147211856601 10.929100432745186 -1.556610902752461 -0.8654261249999804 -2.7470494070396434
Ni 8.325985694320499 2.4471781355650184 6.283331733801207 1.715552386418097 1.7909864962876962 -0.4829878994951424
Ni 3.511184079641265 2.60754486944821 12.19454977394433 -0.34737043526742756 -0.6437229847260914 0.33904777433434513
Ni 0.8909583929461666 3.3694053080945343 13.010630569786409 0.06818282762382451 1.6430493341523638 -0.44909741739528464
Ni 3.1397437440305658 8.522908754132063 8.436396368249827 -0.18980757711687313 1.2637331992162752 -0.2977111203690873
Ni 5.255682568410603 7.995958245385885 4.1755160311971276 1.1937130612733957 1.0679604056549028 0.22025612341471748
Ni 2.9171164480664737 8.834175117551592 3.8757368462666064 0.921420123867097 -0.36139168924718407 1.2062402472061289
Ni 5.274799012029179 3.0080425638289947 5.611878952556156 -0.10388310923891142 0.7826378887581553 -0.521208890649554
Ni 5.917022222500145 5.762614570660112 9.587222675231336 -0.4178718837220997 -0.20959607259771 1.4383342437960391
Ni 7.911346569770014 0.2713541813497254 3.0591230132692884 1.2474863983401097 -1.2639771969062812 -0.08691768502916644
Ni 4.657469092295082 0.4577495295517083 2.2593385755834627 1.4629080764806612 0.09041130000472171 0.11403536718156489
Ni 6.032987416939428 6.074618985525355 0.8062738233603494 -0.7381971419462771 -0.5570086739569826 -0.35721441794104286
Ni 7.729394109036295 -0.05068317730408327 12.012887977915774 1.2876737691922728 2.153860169397045 0.9131190602005693
Ni 9.00482901294354 5.216155813206894 6.64186892555668 0.04783486009509181 -0.9125313060178993 -1.0588291327775958
Ni 6.987779970542724 6.171513295077278 2.8841683736504726 1.5270650707745443 1.5802010313675754 1.1718201178550465
P 8.604632006188787 1.9274714650823137 4.1774896354334405 0.27944626062162836 0.815458534832602 -0.35546401090883945
P 1.6926526526446015 3.0913512597320643 1.568669121511159 0.09683391570161388 0.7331035294734536 2.2809847656624007
P 4.7091418052411935 1.2431155399820364 8.567555399549919 0.13881257412624481 0.06086983890217904 0.7435272959099388
P 8.48643443391988 1.8985143355209055 12.754287079198003 -1.496710883962719 -1.2374007319693334 1.213754296194987
P 6.530716555483141 8.140734781446682 1.9309539744965272 -0.8076225837279509 -1.0342357597089478 0.04088259714697475
P 1.8478803616465365 3.5104551399417967 6.459192992171237 -2.8183355561791394 -0.8379685430096601 -0.3052115425111905
P 6.890247838753765 4.455425231094747 6.4344281770564 -0.30016780943969595 -1.4129481996227666 0.43636582876122915
P 2.5660226418172045 8.731267055479048 10.810423582623878 -1.4850182781161392 -0.44821038680464104 -0.007460570043103281
