# total energy = -381167.713949553 ev
CRYSTAL
PRIMVEC
9.31382053458591 0.00000000000000 0.00000000000000

0.00000000000000 9.31382053458591 0.00000000000000

0.00000000000000 0.00000000000000 13.63171780777097

PRIMCOORD
 96 1
Ni 4.376331406512358 0.33839252048061497 1.3351398939209558 -0.3372035220367547 0.1837055779841933 0.1324452371473203
Ni 6.418302726321192 8.915738496124742 4.051142157969752 0.99491870727688 -2.4056264476049023 0.20109754820839562
Ni 7.989795717492484 0.23841145158040064 10.640836877713664 -0.16227774712772053 -0.01980263654822396 0.6247235608054531
Ni 7.3648663035360915 2.660241352109134 5.186527612287386 -1.232768889624277 -1.7784940202476403 -1.5218246483112114
Ni -0.2503322104358306 4.197869291949584 14.051574708969545 -0.231658194604072 -1.3792184114704893 0.16416673662031725
Ni 3.47630899032612 -0.10430920128564938 5.373868591930933 -1.493667469150705 1.801868947528155 1.1153293818571695
Ni 4.803053406450151 0.940975284916081 3.843462588504655 -2.0732072343306682 1.8567121206202797 -1.8177964173916887
Ni 8.232662900799143 6.518240020265066 7.32173213804561 -2.07126322323042 1.0839598664069525 -1.3022596374262476
Ni 6.445582906559926 -0.1771609738391988 0.18300446481966348 -0.3265799808846375 -0.37988177763157155 1.3349774393742428
Ni 6.060670646837795 7.214802027671816 8.324658300004346 -1.7747065281807501 -0.24152865964024853 0.9360738692245298
Ni 6.13950282353313 7.933260827069436 10.863865623359516 -0.36120579848862305 -0.08072029796920291 -1.5010051404626987
Ni 3.4134313881439122 3.679154686952739 8.54422416718903 0.5782662977841783 -1.7359018966087265 -0.03126101489681068
Ni 0.13779518012222056 5.376831318231356 8.664960153687057 0.8758555478634207 -0.9420141459683647 1.9346448285420164
Ni 3.7311071776907565 3.796508825227931 1.6791551678362324 0.41359819604741027 -0.3898861971424511 -1.0197396229753017
Ni 2.7552423211890513 5.812233798873314 2.2244514165344587 -0.015342801004657448 0.8553391730776237 -1.3945596698132499
Ni 5.080176821548568 7.576858171891778 2.136131250897779 0.2940737807268161 -0.2338613729029779 -0.8167124618443611
Ni 1.1579686748792093 3.841354870925951 2.4884432761127018 0.6331644924839547 0.22158538374910225 0.45366189683751545
Ni 3.420565774645404 3.000633549850676 4.235865022671303 -0.6475922378735105 0.548457699063178 0.13934787780442454
Ni 6.814643043794408 4.626034934064572 0.8200353257491473 -0.7230114353447742 0.41854962651541466 0.8216718627321655
Ni 7.971186704137418 5.860488702873613 12.561382988307615 -1.0164375551852625 -0.5002173759995514 0.5902239843666868
Ni 5.645646805445529 3.09640756603193 3.0268957295089742 -0.26865199821960184 -0.007409147979877562 0.8837701747248069
Ni 6.18330572133537 5.355903163572281 11.02519682788026 0.20495985937727929 0.22764933055499503 -0.6981570953052557
Ni 5.403841397675647 4.892754811666688 8.156265356781992 0.1846075209731724 1.1970647513544481 0.7067625775860796
Ni 5.778080019107033 0.8673728184303904 11.992817090477109 0.4281292997840498 1.9021586829888533 -1.6018453491102285
P 1.134795889480108 5.016311954393569 6.664165234300018 0.08322532377924376 -0.18681301326492342 0.10820899030777495
Ni 3.9494138163441077 8.814217852696205 10.39582099601811 1.1865108870980015 -0.49868628406700566 -0.5679898555588346
P 8.607162309204474 5.782550652946088 2.0716526029719597 -0.15774797757816703 -0.6699844895257816 0.46981973754430056
Ni 4.1353549287668 0.9363742575900537 7.712240141122958 1.385034503931634 -0.1679837963735623 0.23710944752663038
P 8.443052792029167 7.706562436147358 5.414327828174379 0.6101479769841234 -1.0469022994330228 -0.9273783983330609
P 7.542769588868984 4.154718361582207 9.160310108582541 0.46247898090851325 0.2924056489957738 -0.17404851451040348
P 2.257325477364309 1.3111903358923187 8.45722656406307 -1.2179518792161026 0.3556077355755553 1.4839065331091992
Ni 0.9256177262968776 0.767808077306438 6.798464937589328 0.1461152784352451 -0.0807588645166222 0.3208590192404603
Ni 1.1586206423140715 8.717614906490626 5.002499558594989 0.43137583174580546 -0.5567266239401896 -0.23425706567949978
Ni 1.9695004825136544 4.270628857680204 -0.23137765434028756 1.4943182153608265 0.2427990417122399 0.3319744124273315
Ni 3.6577049583457737 2.2981665802481754 13.393462946724817 -0.2890542160250376 -0.9422925964407319 -0.477696569189216
Ni 1.3400259241542232 2.1046160764785915 0.5819871131681699 -0.19773660215596267 0.12126273816793955 0.12782959275217987
Ni 5.92445602205409 0.7144473369091182 9.426919151720732 0.3976383302840442 -0.1630393078840934 -0.1148861452176344
Ni 9.534651182039406 1.89993555721386 12.177703878419424 -0.11887675443426622 -1.1197730194508198 -0.3292495572970007
Ni 1.0780933502880947 3.306834712543946 8.25202819637865 -0.015451558668379842 -0.5781020042921722 -0.45834053326010743
Ni 4.010680127580156 2.123755977602045 10.557411124748699 2.038069252976954 0.6439019335061169 -0.5528375732984285
Ni 2.8724846936182664 7.520621323724666 0.7233355158103894 0.261328210864679 1.2823770395697076 -0.5619035401554388
Ni 1.0031357229199405 7.299427400716925 6.863788349034318 1.05582634139553 -0.503977614372932 0.03589182880060271
Ni 6.078208570835587 2.7088594951088565 8.142320704732342 0.20473745895382803 -0.9560120029093535 0.4084400488852385
Ni 5.017988442083214 3.403232754698568 6.17304189114654 -0.09277774335436925 -0.4344593557671357 -0.5821301516149587
Ni 0.8999916805785948 6.137705256177011 0.5396744266456146 0.4745351407420989 1.4195986150597488 1.3405917002372267
Ni 2.2032028664502503 0.8938603925447409 10.669776780765146 -2.1652365295547873 -0.4941128057637104 0.08482583549714423
Ni 3.4297119463744705 6.958904809488411 11.903461228001047 -0.5160070347336403 -0.4149174290794661 -0.2968631705464952
Ni 1.3451485254281401 1.6239763696776968 4.41809457762553 0.860970146111156 0.18087427918298526 0.03162868264887456
Ni 7.408268707056917 4.249411974585689 6.67933744789131 0.6180471772265421 1.0668869700850658 2.1090566399291095
Ni 5.864586783892746 2.170446159758675 0.8880625392847166 0.21822109526255967 -0.030922914831101583 -0.7444276962370212
Ni 5.083967546491267 4.123042058068403 12.895113941628967 -0.34897840318449574 0.26408186235041614 -0.27417189959656657
Ni 0.16452491356951998 3.0497173838753002 5.900938625296562 0.975767845380042 0.7439415006292219 0.4320695153787204
Ni 6.688878525609494 6.284258221713529 3.4836259277093733 0.9470259973606593 0.39020141439002476 -0.18126071598812654
Ni 5.880690379533842 6.216006545103957 6.003845165215207 -0.44235187114133495 0.8419522102477565 0.39146716847632584
Ni 0.6317517874711999 8.517004526783534 11.733637681950198 -1.1595888658961773 -1.1166632701772445 -1.3721409357984173
Ni 8.999311407453575 5.201815317252854 4.295381267035771 0.34718942960487303 0.7914171776126822 0.6834694113860939
P 7.603309422106187 7.951627681091552 12.377599888094316 1.8609922360528723 1.1456881966546848 -0.09389977277395442
Ni 8.967253237299353 4.057109522762841 11.158146958579406 -0.5763703663130461 -0.4489914879450397 -0.702172387112236
P 4.69383023346974 6.4822979869631645 9.923604708475633 -0.8301639593635769 -0.5310518448819048 0.1426715428610188
Ni 3.449094006830873 5.2044883837357885 6.267986045921419 -0.892757980045714 -0.3640779778300956 -1.05712603404356
P 1.7020168716306994 0.12994269806033054 13.098022040852923 2.1826575532447117 1.484609986934127 2.2421454241977
P 6.364208056868629 4.543123303991099 4.765539200248181 0.19876067254510285 -0.5801863976250267 -0.958604189116562
P 4.900895090781967 5.869793209551146 0.7912751794332771 -1.5950987744150142 -1.915458742531869 1.609338829273796
Ni 4.3213891793944725 7.337194942836442 4.2562175832236 0.821017002756986 -0.8689932735259487 1.6599558800997154
Ni 4.0376156964604615 -0.32872011789340966 12.730661675859333 -1.3539120714952166 0.7789329291027424 0.8697558627235861
Ni 8.394388079926955 7.630179794243006 0.8114349439012654 -0.23338314771497873 0.551165070692012 0.4442367468688737
Ni 8.555535802183888 8.75690991517182 3.214672595951829 -0.05825888364189321 -0.45677781675867785 -1.3763773424772683
Ni 2.7893122765708487 1.67405678249561 2.3440287637625303 -0.46275640293961595 0.2952588021738528 0.4408657735141117
Ni 8.67052423005258 7.156953888558544 10.209652626375263 -0.31353446055458906 -0.6517936775493678 0.13499011505636108
Ni 6.508115897383706 3.086693251252483 10.683013582456947 -0.3657702779308539 -1.5564769482777583 0.0036427389589098556
Ni 4.551785157054268 5.078975338704322 3.5556701920257434 0.5603017428859576 0.2888698679283735 0.48324758091443226
Ni 2.85794581982084 5.892155692566918 8.394439305939695 -0.4751285513517236 -0.12886369044364904 0.9506075440643305
Ni 8.455849981393461 0.5218924805507736 5.209074508949019 -0.5029165200982693 1.7541346175666694 0.6662173091738656
Ni 6.926306437745302 8.58566601149502 6.7369583297844295 0.5345266908043826 0.026872913131444045 -0.6822589360177606
Ni 2.5519216197170325 2.3505847620110942 6.524672144701006 1.0125572462942498 1.1978743917399368 -1.186229865522473
Ni 2.794732920100703 8.150114509725093 8.425628496641451 1.301234281485527 0.9003064818169334 -1.0104502272535758
Ni 7.907098305290467 3.591576832809753 2.958273362843581 -0.09775539907461875 1.5204732764896394 -0.6536204463454615
Ni 2.912236079503863 5.020782588232623 10.731610303669525 0.38470568138277617 -0.12812809782920515 -0.745355350257613
Ni 2.1472268052570835 3.043318789193153 11.560937096747507 -0.5200274687469432 0.15697664662978125 -0.3914370865693388
Ni 8.18897176884288 1.5505927779737099 7.495331506926362 -0.9398438777899233 -0.08244036598410319 0.08522718470062096
Ni 5.731399150770902 0.9189872174843292 5.924072292649571 -0.3126895960557905 1.6388877465755065 0.6796232981671263
Ni 9.1292857725036 1.791206016719845 2.6800779270058404 0.3473997458434662 -0.8879315051913483 0.5146530918089072
Ni 0.7475169879694273 5.94432240117639 11.860507750628228 2.4049664454234003 0.15898827774317134 -0.7508333426530488
Ni 9.124340133819144 2.0250201665024177 9.741389124252153 0.06866953745225593 0.4046073054027096 0.19916176463826346
Ni 7.501164752704279 2.8033854593433736 12.816295735664378 -0.7773349884880032 0.443205734501198 -0.027836562596293996
Ni 5.721153948223067 7.077842297248268 13.032221761798432 -0.6903080315744822 -0.37791668348540075 -0.3356577748161897
Ni 0.7516364907757066 8.961944359615474 8.967952705218755 -1.730398450291994 0.042975218009945346 0.7010457297069603
Ni 2.9583860600716076 8.728605214678302 3.221611392222862 -1.204956495397699 0.20021206027964872 -1.825719014672875
P 4.5825393923387665 8.161859237373111 6.70332891811219 1.1292655323222875 -1.0373007717875167 0.8744193296375263
Ni 0.9862777078185042 7.273181054553474 3.3392933769795845 0.3168920641729123 -2.060646366946522 -1.4499309474947029
P 6.789039351245321 1.2685237241908385 2.658580697914335 1.183068437075356 -0.3309544558032494 -0.33394002079413454
Ni 0.9807173569811797 9.244507045884744 1.5789207630184714 0.9458949690800098 -0.8121477252918142 -0.1485727388368022
P 2.467501150722879 5.317884148299317 4.170555581957059 -0.9482308163020379 -0.47791974094361567 1.3200858669743911
P 1.7361706513969792 7.0159240185773575 10.105724360347983 -0.4926593611466354 -0.02987313341034855 0.34449337082994863
P 7.813401271080274 8.405629861268078 8.696586162570172 0.37344270687444714 1.4441454511611773 0.41738980187935854
Ni 8.244631160139113 1.054473501505088 0.7147481733112047 0.3990997453209191 0.4160762252742576 -0.13505439263539323
