# total energy = -381165.2731193052 ev
CRYSTAL
PRIMVEC
9.22148149182867 0.00000000000000 0.00000000000000

0.00000000000000 9.22148149182867 0.00000000000000

0.00000000000000 0.00000000000000 13.49657028493024

PRIMCOORD
 96 1
Ni 3.4457355480834817 5.312034240583758 2.849315042591757 -0.0562415961015483 -1.0380841869207607 -2.450402209158696
Ni 3.3644942987829993 1.5869892486793562 6.384363402462975 0.6531424782677784 -0.2674155547093395 0.4895308428199827
Ni 0.38619839876038536 3.143981019041519 8.390939266854165 -1.3954346162190354 2.6770369824062477 -1.072951688221907
Ni 8.751370080720074 6.834851201648806 3.1804261570080765 1.623457270953049 0.6463403677442804 -0.17514354734679513
Ni 4.013446816180519 2.9759932961690008 10.23847132298084 -0.647513047896143 -0.6846305215737306 -0.6886897792447688
Ni 8.115862482900319 7.240716253347119 5.36418448316821 -0.25576382940302406 0.9574302234131189 1.1069468142204293
Ni 2.901824922942692 5.126544146409047 10.697043594727598 -1.2334116654145983 0.030336960420644526 1.7792617516516003
Ni 4.658249667041693 6.837875847479743 11.510954578426102 -0.03796156684543784 -0.7610413935343022 -0.32938839686771015
Ni 8.908559449116899 5.534677682480563 9.133668715084411 0.9709475411732634 -1.2259266698914628 0.7982678819859285
Ni 1.0336634912416547 0.39695894516319274 13.004025807610494 -0.5636351781345649 0.32733819920690077 0.5147021998792878
Ni 6.194972621744099 2.3904569049280546 10.82630017444609 0.8819045822709779 1.0716411969405997 -1.8202196821212007
Ni 7.832652352535232 0.8493952433248682 13.235397381455416 0.03624355571306661 0.5973012029284424 0.4063281447485582
Ni 7.566114660165067 2.665146386671843 6.824445682271887 0.9756799136519261 -0.15533602570256475 0.6148104154567993
Ni 1.172262353555645 7.421715486181383 10.095232211331098 1.1569948799167558 -1.4665634138450614 -0.36317577773080034
Ni 4.541939124768482 4.7067546581109925 6.075872581410343 1.039124455259817 0.8303305668484281 -0.27941257917021556
Ni 5.558312338775357 2.757711614875957 8.210070979052825 -0.38916885936045237 -0.21874765718999103 0.049011911122328486
Ni 7.299374095208681 3.3727844103745013 12.656624024520598 -3.051463650460519 1.4958300240196625 -1.2518122794089732
Ni 3.4137554513100343 5.571259298368759 13.43768440362114 0.28817207053040045 -0.5587516247900184 -1.2156934221992288
Ni 6.075019594400094 7.534337435977841 9.2067932166398 -2.8110523922541653 0.24770676342650244 -0.9303637062136298
Ni 5.917562803048705 7.014605534522167 6.3384210610168985 -0.1975165157253566 0.37778478589322684 0.48841549826861685
Ni 2.387930219081479 4.243956181533999 6.161696906863191 -1.7125853333699732 -0.06131258286655247 0.557101490781105
Ni 1.2108173664189044 1.5049641734775638 7.194737948124394 1.1858621977704094 -0.44394775487354504 -0.6910690781102227
Ni 0.04976556754823083 5.439447446211996 6.830695080075626 2.3950471294271587 -0.5357042560522516 1.4904489622134074
Ni 1.4238612463949594 4.298473578340407 3.70385033953298 -0.25322126548682844 -0.21012906228304457 0.4338044957919562
P 4.647534305896725 8.915595439266305 7.208828371385589 0.3856621317587745 -0.469898670411352 -0.08996058562054829
Ni 7.857504244347354 2.6442505102910374 4.48681311020341 -0.19931808771046963 -0.6746695537062768 -1.1606545881565302
P 4.807185809771782 8.823085539949343 12.017008256829858 -0.7082234784023222 2.6564421889740313 0.5293716289660044
Ni 4.111757027167175 0.6533668404440741 4.1680375711774715 0.33547934025679643 1.6612136637662165 -1.2345254673040673
P 3.230681385207596 -0.028128284079598366 2.1726104775472677 0.34915555219230837 1.262622996871232 0.8942343074809245
P 6.453303195853487 1.335648557313414 3.245075195200005 -0.3077335376020958 0.22475761082949677 -0.5816696670387724
P 1.1574065473555226 5.644330315333234 2.021165169784866 1.0753597834427675 -0.38142058287360114 1.1658636431612952
Ni 3.911494120123069 6.632347474675072 7.93640139312886 1.2611759800120603 0.397037977695884 -0.9958602452545429
Ni 5.391329757352754 1.8477174078986343 12.896620449724285 -0.5037377304479841 -0.5298614241182295 -0.46208354524230744
Ni 6.534138699981527 4.760774094933039 7.258482359011399 0.13124401775036754 0.8647201000718914 1.3257793178147423
Ni 3.336931291500463 3.1847676303532144 12.544089678795462 0.41067048087765406 -0.14975981716636788 0.7930061193663569
Ni 4.3412059221835895 2.095572379374045 2.1874432300444098 -0.13285892764597118 -0.29917124985438154 0.08566581489993633
Ni 2.768251767878278 7.323091744834203 1.1807719363995135 -1.8523011360367776 -0.24450008356374667 1.3937286892715224
Ni 4.5259675193441415 7.4702020342883 2.734607193749696 -0.5088508833048334 -0.10762329300763401 -0.6162114095693839
Ni 7.826898148271496 7.291443621383663 10.381372928418964 1.688381225319944 -0.412845891262418 1.2482633857154501
Ni 7.213217796432926 7.594083412620045 1.3891479025962379 -0.6023469928824658 -1.4458737467061937 1.0846792610714804
Ni 0.20988644481595467 7.160931998074954 1.0195177390933075 2.1183681471380225 3.0332977781847696 -2.4208108686548244
Ni 8.736837026361666 0.4499686297947277 6.112178475010903 1.3140057222185824 -0.0852086727578597 2.302910362090899
Ni 6.820788442831185 0.20695216950069778 11.007667344379911 -0.1036617372567247 0.918818681688508 -2.1345658399438077
Ni 6.629811567347304 5.881792677505394 12.786691172435857 1.106550607223275 -0.5301172488827773 0.6514548061527103
Ni 1.8985277692659055 3.734497010126082 1.333973014180849 0.4852455851810675 -0.365454546462648 -0.17576061210550376
Ni 6.736633205474068 8.146671451562398 12.695575561075108 1.694745991195707 -1.5814896682720119 -0.2148475508046364
Ni 8.498738381987268 1.154142143013596 8.617748973953463 1.0710177044239877 1.9660662802760913 2.9677392755576695
Ni 3.0478655205785308 0.25240392814736606 10.885293678223038 -0.022977691842095912 0.33762415451394107 0.64507589920956
Ni 1.6457208623904542 8.156713644580357 3.2085931713086806 -0.20317268556986945 0.5302368051797771 1.0658459304150611
Ni 6.2312960361589225 8.195443865586261 3.9056642997135613 1.5017957546847942 2.403966543403976 0.7686292331838892
Ni 6.798288028722993 0.41445762787290846 7.826795789830267 -2.3026871903364987 -1.9752682584903338 -2.155908824395958
Ni 2.8656490522269378 8.889646191192348 8.500423146601024 -0.14410133332900987 0.3574869548761392 0.0007654174111148108
Ni 1.7463825510810405 6.965704019761615 7.443533510681377 -0.8124626854290717 1.28099018652451 -1.3629189029795172
Ni 5.205756669847316 4.440945462754987 11.723997536254037 -1.4732277132391143 -0.7778381533766668 1.0916230393791653
Ni 6.796037987312174 0.7523078007442553 5.429360067936196 -2.8903130749587063 -1.2787795520264362 -0.9845944425327366
Ni 3.5488132648463413 3.0998746745007466 4.371835994110545 -0.0035985159845357386 -0.13425606510381394 -0.5629340383024821
P 1.6540570813879156 2.1247399243839684 11.84193105921702 -0.6610085112794164 -0.347751215645614 -0.5217423945555207
Ni 8.549668622610035 5.049185140690347 11.427680914670928 -0.39408557993577936 -0.1434888965559916 1.556075341963965
P 6.816067044460942 6.3030944887189175 3.520445222255754 -1.2805667258338462 -3.2054596171954213 -0.1875108106628964
Ni 2.0171990107242377 5.082290258169205 8.498897913611888 0.6283364749676921 -1.9104584611038 0.8993284341743801
P 7.500024304462847 3.6543992244933925 9.030676758096638 0.21329640426743268 -0.7890229663488928 -0.19174413201795362
P 0.3430695312259522 3.675101449769168 5.592506513182975 -0.5749611446703453 0.4941243757279361 1.0481881081239819
P 3.335179210074006 3.1477249404054235 8.105203372790621 -0.7499810219550825 -0.24093627747188825 -0.311382961429225
Ni 5.850919158474973 0.11884921604533574 0.9577015399235249 -0.5621832761793867 2.2370091314123988 2.0772492656105257
Ni 7.825173731288615 6.8226880679567135 7.818184770693287 -1.1965777844157004 2.2725885711789053 -0.8736870794571922
Ni 6.35954839657562 2.977330410941824 1.1973032857322008 -0.06628226816700199 0.4036850506987564 1.1667511879725712
Ni 5.47939490273523 2.496688368258538 5.6695851858734425 -0.730658924587703 0.5605279999641508 0.2933081062053852
Ni 1.1365752213430604 6.484564017093968 4.995795531033707 0.9076153567735207 -0.09031385519490898 0.09644079402825326
Ni 5.670823630797512 5.5465180643309395 1.5546836336198353 0.6883272536990275 -0.623675579156913 0.8430654979165931
Ni -0.04570627152756427 9.074490781683627 10.871810950572387 0.7177591858068993 0.4072989933022599 0.4931854088534345
Ni 5.1419809059242585 0.6409879240920914 9.324442717982073 -1.6550530434814592 -0.019964101826752713 0.7493703849542772
Ni 1.8191769236097588 1.8539050217783872 9.566894823627157 0.598004399643054 -0.9373349953251406 -0.015951381122933816
Ni 0.9696387473264164 2.025719659345537 4.666830255290739 1.5283429090457032 -1.9456123832971137 -0.8735783217934697
Ni 1.383111521008032 4.549362417127947 12.62883509094886 0.22558807715059215 0.7030028534333311 -0.34058477980416185
Ni 4.903301308234771 7.396937366218796 0.3168593152342653 -0.9245087900947496 -0.057710981558223184 0.21736337524795468
Ni 7.835806099102855 4.890077704205611 5.372687610975245 -2.351398796609589 0.05286856586425733 -2.758613971948791
Ni 9.026972489101858 9.10522597849617 1.814911066410394 -0.6594015718036127 2.0625842073991834 -1.1664776225962106
Ni 8.852972360492231 5.2014779025742826 0.5774214877920897 -2.1555712385508814 -3.3544455323102422 -1.187849146293451
Ni 0.41907390135756467 8.64346952929386 8.119752103667054 0.15206198293698328 -1.17019543776743 0.13644510233533275
Ni 0.8213158330955868 3.8216492288705606 10.482920801452092 1.9459065174987649 -0.3302114069896377 -0.2765393713874786
Ni 4.191043322454979 7.90775209536192 5.043641186197788 -0.9834230479324547 -1.1078855239846146 2.1662104634322823
Ni 8.571311438967381 2.4485614579181045 1.9975867645253425 -0.25222701989435914 -1.4590506504077838 0.7700397403781706
Ni -0.09545155181717296 2.807756593304301 13.313664703071515 3.908480468350882 -1.0150139353648584 0.7391569347563851
Ni 2.435051987971997 7.7558650786504275 12.505692353260583 -0.4141782369205964 -0.621174152891298 -1.5245366479257356
Ni 3.2730909772090624 0.736394290651424 0.21639957698178108 0.6125774123612224 -0.18234109353649885 -1.0793352231507478
Ni 8.639126211652483 1.9939700996018865 11.041921458415278 -0.4245274413654044 1.0093371966950553 -0.03196395450110624
Ni 8.267076331484803 4.4675033285876085 2.8484509898040775 -0.673446222822137 1.011450386383316 0.24825466551017247
Ni 6.654755673971346 5.209334604549766 10.279081804001772 -0.794462135086593 0.31534066052539234 -2.068864641091256
P 8.978273846927529 6.875444161855471 12.282999115365342 0.6311618602316291 1.4381846055920522 0.41394735185671294
Ni 8.635022652522096 0.05189665185167481 3.961769635581211 -0.018314739148787812 0.17430691037811272 -0.856181466473261
P 4.531989146562441 5.729951768199861 9.698742639560571 1.790672307481387 0.02146871139673722 -0.9662429366087424
Ni 1.471268881202426 1.4935110938372458 2.1657810485765596 1.4071223369696089 -0.5044702377386344 0.14218329037069063
P 3.3004787763489527 5.993455593257896 4.729063265410395 -0.03257022062653745 -0.4304260662380265 2.041646428805252
P 1.2976468333216675 8.583234814148485 5.748107942518558 0.25794746731790413 -0.15683369329401378 0.027406159927094737
P 4.203446214658061 3.995852230066408 1.0534776878786523 0.7524703640358397 -1.6591961191155555 0.2867265963331255
Ni 5.878943239817102 4.123689623829471 4.086895913873861 -0.16917318869597317 1.0564629465382644 -1.5011930881037887
