# total energy = -340860.16204507503 ev
CRYSTAL
PRIMVEC
9.40067793973283 0.00000000000000 0.00000000000000
0.00000000000000 9.40067793973283 0.00000000000000
0.00000000000000 0.00000000000000 13.75884239989030
PRIMCOORD
 96 1
Ni 3.8738502152819025 4.718736155697793 1.1582124202072643 1.2271008927052223 -1.9920449637280402 0.9126596040656475
Ni 9.043414688582198 5.660947316042759 11.065562583221027 0.9829913597116748 -1.8046552520240404 -0.6476279762074524
Ni 8.653577970216617 8.980467748309321 2.093793282318291 0.9649321882171188 0.9205143242233759 0.07283035369816489
Ni 2.754878105422166 8.055328219316735 3.551693678591139 0.9419799502963196 -1.82847215193798 -1.9398160883303108
Ni -0.0014947078111390997 5.502019452803026 2.997515246492523 -0.7573886272730634 -0.7795592498328316 0.5373222512716488
Ni 5.4468656746398 6.6015979638301845 8.47818481935921 0.07578583678206303 0.48691140291926466 0.05770609646221675
Ni 8.160578210848266 3.4782132785548576 3.9404088960644623 -0.5379313456105574 -1.4772890277926816 -1.470143674997152
Ni 1.9296677841805778 4.381355220892943 10.267137613968613 -3.308073629913922 1.7384215777067866 2.6237241299157197
Ni 5.911146362542553 8.921422089430298 8.20563566077776 -1.2845699334559681 0.24532952144357748 -0.9671505360246763
Ni 7.387861275879638 1.5804607963794197 8.057852301375169 0.20849744021689254 -0.10397901138682737 -0.44335742958771385
Ni 1.2355593191285867 5.089245079977198 7.558227884179712 -0.3579692938291964 -0.5781454559355979 2.1869800918794655
Ni 0.8536031891785905 0.5392971587336274 7.218149894840172 0.12221276078603467 -0.09913171059685508 0.43473549224665775
Ni 4.843135328432408 7.350333769074184 5.33013463499667 -0.1531601010971685 -0.26069906192111236 0.9719736684449325
Ni 2.3031661240822605 4.634007844365739 3.269018109606175 0.3937297392582574 3.3969988322914206 -1.890271958853596
Ni 4.505867201764247 3.659533556927505 5.872287719724159 -0.2230259728503707 -0.46426898292940044 1.7313546435576763
Ni 6.370388287006499 8.837267219459749 12.384636586144447 0.19318472111922214 -0.19384215219756293 -0.15069389894486307
Ni 2.2146399388149844 2.749698331812495 12.67397159546533 -0.4221892801505309 -0.14469628660053144 -0.15603767975527966
Ni 8.124677021346754 6.672197056041849 1.1511788328846586 0.03758155779819979 -0.7766757576374494 -0.7470149973482232
Ni 7.8395544558634285 0.6138727377636052 10.591915059701801 1.0103034172630665 -0.036701469186091636 -0.4000507963802788
Ni 8.75933559836325 3.4836468704720804 9.018879858919984 -0.4588287857504356 0.9056875436231887 -1.9729383248055765
Ni 4.069327914809112 0.3186237618767629 11.963300075743868 0.05434823573357736 1.3437767828334277 0.6800626996973901
Ni 1.4753518150187512 6.496507783825631 4.953596115811199 0.13264064098757802 -0.09619242546287304 -0.011508514860231793
Ni 9.042540425522851 2.883084552770059 11.106894544436344 0.035117412528423396 0.4693577103062175 1.3384450862078692
Ni 4.829758163556615 0.13033570092791225 2.1864726871513613 -1.976428340236706 -0.5454927028975831 1.0470632504909194
P 2.312783017735061 4.68642602521424 5.834492293594066 1.302768972962498 -1.2958455063697876 -1.3418631107504826
P 7.180378910473029 8.790489445445736 6.262970499114913 -0.35509428627424655 -0.11459895299451875 0.3693279133751252
P 0.7228030947546387 4.351564472128794 12.384457973261355 0.6264346299592888 -0.5154758448205187 0.49078554116269024
P 7.392702625079241 6.583699072808746 12.655355432708106 0.5029052072443597 -0.30848481394582355 0.9801873146039763
P 2.466606312789584 8.498100155823979 5.601664760076688 0.32741250408826195 -0.06963498668931878 2.3013293907570236
P 0.9153872655757572 3.2776968155888384 2.1269381930133493 -2.0910306356653345 0.5107105622213914 -1.4128394419590442
P 5.070359117759723 2.581839824418157 0.8413108625506314 -0.3019305577670736 0.28114550270092226 -0.02535313405280795
P 2.5566742092582864 7.076266400986452 13.455308952212667 -2.3212430989618156 -0.1075685285102986 0.8941065236538085
Ni 7.960061747882247 6.547882489409751 6.626354649494555 -0.11331545829640484 -0.31671362961351907 0.22155170229768942
Ni 2.479710858001709 0.914392673837276 10.395397645181434 0.3710099290632385 2.7468917984158563 -0.3747596259136578
Ni 1.217237397594561 0.3359727132318397 4.3072882185458745 0.009891033861466838 1.6175861568842531 -0.3830946281419144
Ni 0.11119122006385705 4.438614750941046 5.446479306771637 0.4419291817816195 -0.1391290769253991 0.6108825411573028
Ni 5.952415339214885 9.067800047463297 4.292359941790599 0.5081397161704216 0.2344342146873124 2.526395533965875
Ni 1.7465049729086646 9.102629559666255 0.1023376614693237 -0.6922702975071754 0.1261897431559117 -0.6491441557416626
Ni 3.123281277816695 5.036056043527983 12.892764856710698 -0.7357813334159329 0.6399594039186011 -2.3407629141622976
Ni 1.604451326782105 2.888095114174695 4.058418427923408 -1.591747341444278 -3.7262622735454918 3.2964424734328968
Ni 3.4205119166380538 1.2788024381929883 0.4365327064804942 0.7941608017960904 -1.346628907570242 -1.1943843763088076
Ni 6.9162104563798215 4.80781698097046 8.427455940357637 -0.32679209689544364 0.9054489452498213 1.6906353114614434
Ni 5.2284127179401105 2.9443205696364747 8.490581493513607 -0.4049600607564381 0.04958475290666299 -0.28240637169121685
Ni 0.5745703829408987 0.9928714143967189 12.018266780413752 1.1668943984186548 -0.8520643589810939 -0.5531875004386796
Ni 7.131833808984208 3.3365356595505973 1.1173533130982392 -0.5669033073628753 -1.0803626359739975 0.4215691300680288
Ni 3.6569671718178136 8.075492673750027 7.615766614366121 1.6479102617890913 1.4836190837757675 0.1425663847417222
Ni 0.6144819017017299 5.100648102460919 0.7215659655222746 0.5783912533978168 -0.9600990284945335 -0.6016216846806671
Ni 4.101769654785472 2.7913527362851824 11.173294353759733 -0.4895735231324601 0.5331578354813141 -0.12239042401447953
Ni 5.512482407481 0.9173322658658495 9.967992057026946 -1.5904628183048997 -0.6469561469514084 -0.22116603682349653
Ni 3.697352484752742 5.743748488373031 7.230877472862192 -0.694248761389785 -0.8818359338165717 -0.3943779143652175
Ni 7.8972276157460595 8.068103740796849 8.493869850698113 2.298890699408544 -0.3605992752528758 0.8190922749304476
Ni 6.954800239805771 4.690289703895863 11.057349210802206 -2.8874231550054206 -0.33952574241202815 -2.383292302884076
Ni 7.174522288043219 5.4821276180334015 4.60401122075213 -0.8999568117869984 0.6893762637888321 -0.867466552468777
Ni 2.2651685833739323 2.421078828957215 6.394490685478067 -0.5187344609671324 0.570569700470869 0.1815471368802938
Ni 5.154871213496456 1.250055164693219 6.597777528267626 -0.10876589125250946 -0.33538652343267406 0.2473424381085482
Ni 4.17238754835325 7.345671032757675 12.159666139347511 0.7051525527864824 -2.0613472496682888 0.17177745908803965
P 8.878413987317332 5.836805800464012 8.672377446195963 -0.48254824085456244 0.05030569023308755 0.03954948015784802
P 4.449726352404985 8.665864656437742 0.08667895202898157 0.5239864533946912 1.847995309572572 0.8684865090928592
P 0.4904023520210697 9.331338656126652 9.533914807655066 -0.31659407331651923 0.10294774190883559 -0.09672232982441407
P 9.108768202437789 2.362117776180709 6.521374457423274 0.06342962920955528 0.28264856960901 0.13538837893604427
P 6.85235165033537 5.091050010164233 2.221530635831116 0.8140703962358237 1.7094948673701076 1.319337675954457
P 3.3155157434140747 6.336216822267564 2.199076176223023 -0.3247131028792279 1.9480577595138129 1.5594586566139015
P 1.803181660917203 0.1821682195334321 2.2080604042425556 0.13704416937191238 0.5743114269014883 -0.11930484311062033
P 3.166862821291166 3.314707285101132 9.284810940148967 3.5618196575559686 -2.3795482624606112 -2.524321939266298
Ni 1.650467645873463 7.380265528009197 7.44071282798659 -1.917392469219472 0.23121467930875017 -0.8970938884169067
Ni 3.19697319310927 6.252616592302407 9.84991390021818 1.4585338586723653 1.0293239242296273 -0.6746932078553606
Ni 5.403293531843386 4.063922524926062 13.062218659171393 0.099143537671397 0.4691921312626307 -0.4218372961277509
Ni 8.467679561629977 7.7530306150223955 11.123501782292685 1.677448380457524 2.935327434885867 0.4702794507895384
Ni 4.195522617052705 5.333145672178481 4.231683265268603 1.0284003839740934 0.9409656500991923 -0.10949017101304369
Ni 0.38771874559923075 7.18205223116726 13.159301341606584 -0.23798053727767401 -0.07003402189995035 -0.6573356904135195
Ni 2.9562970334817025 2.5269210632063666 2.154373131856295 0.9391399097443632 -0.027278633210294955 0.6853352609502391
Ni 8.141541837781872 0.8136174050611051 4.588023487579776 0.777570501537577 0.5572894384221951 1.3285926188938217
Ni 1.2351738913282302 7.340453656435773 1.7787709202053483 -0.00899526152007483 -0.26688102236210814 -0.20688150188002435
Ni 6.543783793776691 0.26444859429931944 0.850413539113688 2.2652462718812214 1.0179298234600729 -1.0328188247567631
Ni 9.389199829570433 8.31861300967254 5.575275176633735 -0.9665018466970839 -0.551062997896509 1.696496912448543
Ni 3.297673256460981 1.083775971212537 8.26184137481562 1.1925717485801008 0.23918561332936872 -0.7781158325180857
Ni 5.7826672955309935 7.219457529157967 0.8694198300102982 -0.13616510920106872 -0.9453095288901848 -0.2192449085413837
Ni 1.9102553839918843 8.433921726725572 11.096465432199377 0.2517364534111858 -1.9286952958268009 2.852004923407127
Ni 6.938988299313093 7.5833577767629645 3.029766152704315 0.20125927059724047 -1.4540886784168185 -0.07011886830427279
Ni 1.0046222619685672 7.067608376495515 9.671737208587954 -1.4514417277122744 -0.8050900471140844 -1.3606956700759534
Ni 9.100956238972024 2.082203186341226 0.43940367355924814 0.5954996309433293 0.15345089286470992 -0.07654636909717139
Ni 5.9693647617525185 2.223166353813118 4.617852779123961 1.404723497720129 -0.2973141420409848 -0.509965970745883
Ni 7.919535424776457 4.296438895999739 12.908078561266333 1.5654272154925104 0.2550164097140382 2.1125258294246327
Ni 6.162783712785141 2.0647555278665455 11.92622004121395 1.094035762585716 -0.3098043040881955 1.950297961698241
Ni 3.8674483535247597 0.3655980100621778 4.422036655186682 -0.8534267865462591 2.299956164558581 1.5129772252229106
Ni 1.3639725813937447 2.358019080547648 8.942986304826348 -1.3099336090317373 -0.6091331625663639 -1.0204947559737716
Ni 7.354911899288176 3.9242848530602754 6.463643013336686 0.06634783129761476 -1.8701664463529726 -1.3029479217425237
Ni 6.3974810411681515 7.172002906323815 10.699412753356874 -2.5291126757867217 -0.8333431284225067 -0.9309707436700094
P 4.261740993289585 8.31979749510778 10.338146575743584 0.3448124447322642 0.6573542023562808 -3.1217290716449853
P 8.282693018814914 0.38541651954295425 12.988099953095007 -1.4783262108079442 -0.21623543229109854 0.6228929353546175
P 9.11279169264639 7.489322794154005 3.6831320790551936 -0.6500116459482805 -0.2339418484319261 -1.1392928346513025
P 4.723041666248117 5.404355808463881 11.200509316736131 0.6542765918722215 -1.0001141354348906 0.08735322990468826
P 5.746578092468332 5.458202892377118 6.464908344603222 0.24755224012650912 0.6510454865294336 -0.3370667393485743
P 4.262248629904689 3.1011802837035627 3.831439056225588 -1.373503363363583 0.17021602813819073 -0.7304555503276453
P 6.818988643909378 0.9196467128036008 2.936591332137616 0.9363556621310068 1.1001570449921054 -1.7931786188430086
P 6.901112967419511 2.5858163112364703 10.038148377302102 0.6437170711888204 1.3193495030289986 -1.1253268593895136
