# total energy = -381166.191855626 ev
CRYSTAL
PRIMVEC
9.27783911502746 0.00000000000000 0.00000000000000

0.00000000000000 9.27783911502746 0.00000000000000

0.00000000000000 0.00000000000000 13.57905536319384

PRIMCOORD
 96 1
Ni 9.017317371996617 1.1603886132942924 9.449556123047927 1.088565483499764 0.13973225772703676 -0.9296463684316312
Ni 4.346240834823136 5.051004048062505 0.6616500227546258 0.06387365872550935 -0.6937075441743343 1.0320395233885775
Ni 0.7298811070178753 4.490594733282779 8.85039327437361 1.3182315873744717 1.5621745128831677 0.6914639995557963
Ni 4.077508225472694 0.12127434593003186 0.08777670788205076 -0.1701959735335327 -0.24649320273437544 0.42424847667240484
Ni 0.8059556764509803 7.766738884871988 0.9697559256511206 -0.5787167550580357 -0.7518964938102406 0.12500137927476535
Ni 6.951949777819849 3.823861382488688 2.6523968848842774 -0.4428781759584502 -0.7616072933401012 -1.8248147576910507
Ni 3.766793394223037 6.898444479766199 2.7312232613925884 0.5893446670855269 -0.43225900568170716 -0.8834706412065173
Ni 7.658132500440562 6.523369278723204 6.349403301228043 -0.8360607844639859 2.4181068394601 -1.1499924804569934
Ni 3.4623782157180356 1.5663868520367528 2.635857281131851 -0.04028378722071126 0.15557822362035786 -0.4860367136237953
Ni 5.119326055148874 5.185755383060116 4.418108832011136 0.0536003018239593 -1.2611649242684668 1.4672411566383765
Ni 4.762147805717721 8.80608880934923 11.356964795517978 -0.640331442546039 0.3295902284658711 0.0872879238843916
Ni 5.482442121600026 2.6503539047158338 10.865307979558569 1.2256114526438893 0.2541458341836268 -1.0234960046939405
Ni 0.9748782206147795 6.6013216827888845 11.85937648255486 0.5943266936811507 -0.3769797734934282 1.5508236066467227
Ni 6.04512450695772 1.7218277682134249 3.225405505153315 -1.7705207722341767 1.1698982182419853 1.1768214277243796
Ni 3.451152030414599 7.80841493808111 6.415913346339402 1.0899129986665936 0.10260218564395876 -0.20212393259038092
Ni 1.2955760067293103 2.8047649807531 2.483948438298169 -0.6957361445685889 -0.9425759320091057 -1.2892989635005216
Ni 6.233371862169889 6.819490069078394 8.415415705221825 0.028525618243518614 0.8000087759364352 -0.5457073900115504
Ni 1.1052504155601417 0.808877267981602 0.3718826966108354 -0.40653820387683537 1.13638877363063 1.2282635455547555
Ni 7.22970972460851 8.938613462964343 2.8624378841276634 2.6535710380738236 -1.0756276923921733 0.01360859192237011
Ni 0.022612877223194657 1.6314801711184963 6.78057881191921 0.14419877813882262 -0.3387968346658037 -0.9945615810477775
Ni 2.3758597572881732 0.7312987608314002 5.857040441713601 -0.24249153777415014 0.8641063777472925 -0.4826580269595494
Ni 5.882539654678861 5.873363871815143 2.404497663218849 -0.3754360831553921 -0.8286061279581535 1.989208779830826
Ni 6.7415654985299955 5.039592305977193 0.4087973627970443 0.14944382858784586 -1.3049924629763785 -0.8913122487381231
Ni 7.030338240322935 1.770341588834639 5.764838204583831 -1.1208443981381278 1.3416556227253669 0.5580175748374712
P 5.404805164063533 6.433754630916682 12.221461781082695 0.43807021304684557 0.05596700228392297 0.6891618337851808
Ni 9.306878730112526 8.755079250011798 10.963158565128614 -0.6981514388783009 -1.2784525077043207 0.32025532421819036
P 0.8171679449957762 1.6565767258670876 4.430533714125485 0.7953627925239916 0.34371021280702097 2.1009669209424398
Ni 1.0210169144279937 7.994194388094341 5.58678997788742 -0.4919870176699591 0.4273214591707737 -0.5631207003919915
P 5.467634690406402 6.4139278887733395 6.51622163148538 -1.4880125848577728 0.7319779005094426 -1.6287784260556464
P 8.291280073715281 9.033210310364208 0.6598798110555385 -0.44269485630305044 -0.5697281784061801 0.5865444786325704
P 7.310612481506002 9.381194221253455 9.363275002827788 -1.7901262051699298 -0.7117286633421033 -1.5984779752998923
Ni 5.002369615533072 5.762252470828404 9.973083244078271 -1.236472306617793 -0.6527794385014049 -0.33757298956103154
Ni 6.745248800650214 4.87006763005621 11.309914090121847 0.23152218324683999 0.1753965438978657 2.164432031375621
Ni 6.787360912296741 7.841842992335887 10.709026491160003 0.5432614995742192 -2.378017684748698 -2.0703926477000083
Ni 8.118925656870704 6.365998572015032 12.610325706586819 -1.7202078829122374 2.222003402032186 -1.257682365036505
Ni 3.5285292084564666 6.874387042996108 11.219449592254337 -1.6924710791186013 0.26612537514300616 0.8653453923607161
Ni 4.065289311386226 8.049360419345772 8.819989795663394 0.061565322307306866 -1.0430687846195457 -0.16722686360287975
Ni 5.070905012918597 9.038674957590427 2.7812076195101616 -1.0298260606770264 -1.8070312084553848 -0.9913523300818605
Ni 1.5151267910437891 7.171686118916203 3.230973136393474 -0.18236320502368591 -0.6388988238645706 0.2950346019781887
Ni 2.8045237569366623 6.707961165332436 0.06311806713868444 0.2593335490321534 0.8753091884416474 0.32004732197244234
Ni 6.889203752028824 0.7875688549349884 11.452181402569305 0.7340352972591035 0.6342839508003786 -2.532672625223838
Ni 8.567768956548097 8.405267604821082 7.473980383404373 0.15053397632823107 0.7549838744863127 0.9273033221207513
Ni 1.4571217410296697 6.693413513633438 9.747521347814954 -0.492662446470429 1.0420136038821537 -1.160048579141415
Ni 9.129198833628136 4.7701081916601575 2.760214652992736 -0.6630674506909742 0.5437014153251153 0.04483875358124536
Ni 4.74754448698416 0.9670291687414677 9.509154178034443 -1.0272971236075856 -0.9050941330135639 -0.23398401452377124
Ni 4.074196036916226 2.04253483216705 7.167229045015566 0.29253214727130905 -0.6329402922882905 -2.062436111857093
Ni 0.5557889509110393 9.499208334525944 2.999206221344256 0.9801718879850086 -1.9837791241748224 -1.346271267120507
Ni 3.0726069175505426 5.72920480797647 4.804092916260561 -2.9199141856545903 0.7962557366519061 0.5343567408854216
Ni 1.903821859876407 8.532206999301758 12.486104718960615 1.316522317992849 -0.43291540831878345 0.661325528299203
Ni 8.558351949867943 6.965903647816848 4.008591508900417 -0.49089764126052227 -0.13113140343190322 0.3859477813199934
Ni 6.274611856941604 0.6306601846136851 1.061357886591524 0.2235193675470215 1.1310568198947553 -1.5072881452579332
Ni 7.780043306132425 6.736100851303777 1.6927649372522557 1.689113732610594 1.2929013361397992 -0.5158103453418019
Ni 6.031365471581689 2.3953061080286715 8.408300530420828 0.9752569671818945 1.1244506274321473 -0.34801115417522
Ni 4.310818045163202 3.9839041068558596 12.117297626009355 0.4656815470062109 0.7795862464160251 0.8729975095893351
Ni 8.292077967877344 1.9231754322259678 3.2788801863379566 -0.3102987272261108 0.6533101141938943 -0.5647839470270273
Ni 3.7337550092101965 4.595684816697674 7.0804858884085595 0.6764960653920543 0.2767689708997814 -0.4925228355687711
P 4.612329260031861 2.7110866394235154 5.018330282126049 0.014561699864258794 2.828213477414484e-06 0.11855613787005388
Ni 8.318965145571028 3.0529935657063567 8.362403060424052 -1.03808290136918 -0.2609489731483893 -0.12337695629746494
P 5.0414385959568495 2.9876683006472695 1.4032054347041656 0.26408520478452585 -0.7658879229933261 -0.24010478270952845
Ni 3.495138265558064 1.669686312506555 11.713645752773704 -0.12146611242799726 -0.5598350876621843 -1.479399132157149
P 2.91850201020337 5.5114724801243655 8.845858266624585 1.13226986636625 -1.4692751563492696 0.4260101965585179
P 1.3408518615068061 1.1164951565417656 11.695219036549611 -0.4246979055049976 0.7269156554951868 -0.45543981467354466
P 6.594140635330322 4.506766006823184 9.29231066716752 1.0303914462621933 -1.400716690553581 -2.1905377273237367
Ni 5.495737265021367 7.252013649789883 0.782091218734039 -1.0733023866931064 0.7738380310783383 -0.704176304916142
Ni 6.56367221174645 8.42835086848633 12.753828827201566 0.9401449539701099 -0.774679553143027 3.7227694299008856
Ni 0.13903676887501448 2.727295024320295 12.555140191873292 0.40457028151718716 0.28034177585270426 0.7712358175688008
Ni 6.856267423246016 2.3323374140993964 12.955885318120872 -0.15429421470161167 2.2817239578212702 1.4825587608320534
Ni 2.5864667047162775 9.022206793199022 10.375688577064148 -0.8739873843064303 0.42316629935181954 -1.511502697559913
Ni 0.014688674853223562 4.623870891864484 11.111645740904521 -0.25646111258036475 1.5074809779950296 0.35379407940558427
Ni 9.499301112916882 5.218608211291082 0.16453041513681826 0.5127317064164783 -1.4041185171462784 0.4841592940954243
Ni 1.5303795585139126 3.839717209499905 6.791550784431478 0.3802692428779773 -0.860434328212344 -0.43436473917080026
Ni 5.0803869644724085 0.06675961898298095 5.305092516187374 0.38242794109219297 2.024090422199359 0.44750590453844863
Ni 3.313088506860519 2.9510208362269608 9.052070301673982 0.1303976105896722 0.7905198626093933 0.6901437380824759
Ni 2.3441017140702702 3.3318575753471733 4.44992439783142 0.1982125133511167 -0.7509433858683519 2.285083618322122
Ni 8.179008942841824 6.239059177534357 9.363383553545185 1.2757212248160867 -0.7079931075590711 0.300775618227024
Ni 1.8402037172105696 5.003733457879854 1.7168001072085222 2.2707628308240766 0.5108712561689717 0.4570061307194
Ni 3.1321428110151306 2.4369079385250423 0.18375038660342888 -0.18293270437391076 1.3651933008359907 1.624084620124403
Ni 8.096204228930112 9.267967472953341 4.984491219599418 0.5835118624538337 -0.9341992779096362 0.5673581355121068
Ni 9.076537818932017 3.5332794620724663 4.97064033361636 0.8679550620694214 -0.14635259125703182 0.7402280563333768
Ni 3.7537580302963196 4.01449314234795 2.9101408216120834 0.9629462681353416 0.602541111171143 -1.0967788725484917
Ni 1.6689626410572425 6.437400821680525 7.195418831318014 -0.12458408923168865 -2.505249496015879 0.03971865874586063
Ni 7.30907236021644 4.835971571386683 4.565794402489343 0.7851696540410736 1.2155702663578032 0.40758387153253034
Ni 6.013765410820849 9.061025271967269 7.44024987159514 0.2822256231389785 0.6263204729789279 0.5887042052880506
Ni 1.2176978253763806 2.785791799806383 10.206548003681645 -1.0438324022584473 -2.981842804838587 0.5152357037852545
Ni 1.826797239720102 1.1433545007181691 8.216577696684142 1.0342244468550383 -0.3487153793310962 0.2825310701945392
Ni 2.4726276190359764 4.384159363199289 10.83691408079606 0.49132161617181835 2.7575680471827804 0.36017838566537325
Ni 5.902023116775734 7.41909825402921 4.495075001781149 0.82869868767196 -0.5787046708731775 -0.10216329833432729
Ni 6.219315935942859 4.403596436100694 6.6748392797677525 0.11370883708008159 -0.9633558448689346 0.7613542967890308
P 8.412986766947082 3.35409655565489 0.8443881971129267 0.03433451161581184 0.22786196078643337 0.9999500990532005
Ni 3.330762790334111 8.838023131509914 4.015014556905019 -3.077978408921596 -1.0176781124605827 0.6744579519161029
P 1.4344467022845468 8.233998695150474 8.14987745587136 0.14414709896528077 2.4596206424331704 0.33844665041523647
Ni 8.6676541722314 4.831666654047183 7.0656710349436604 0.5446740636510298 -0.4290824077259385 -0.8817662569209007
P 2.4021717089580457 4.658792678213356 13.141334477062365 -0.6730003935339699 -0.6825522988884631 -0.44157051289062016
P 0.7174738527978046 5.6613188593275074 5.232241068055437 -0.04806445960739464 -0.06786066839771537 -0.43799925059959405
P 2.732110222809951 8.819189118149604 1.7377114287419233 -0.367429925021464 -0.3789813773044892 0.5139982318337277
Ni 7.943908500206221 2.893173509477435 10.737651408115946 -0.9850495277922842 -0.8050581654348844 -0.8852806978320624
