# total energy = -340887.5592331677 ev
CRYSTAL
PRIMVEC
9.11209501636499 0.00000000000000 0.00000000000000

0.00000000000000 9.11209501636499 0.00000000000000

0.00000000000000 0.00000000000000 13.33647212113419

PRIMCOORD
 96 1
Ni 6.928299402454196 2.20648468516742 11.376904353802184 -0.8923646012620374 -0.6130255556422345 -1.4602737241816077
Ni 5.0854419792052274 0.5871141480187044 5.729588729648319 -1.5680641388947252 -0.7246908799297261 0.7975654566022651
Ni 2.868897541189665 1.8570905155938946 4.62479550850052 0.5082387036421312 -0.7094432097420362 0.30562240479636393
Ni 3.834770496035902 4.649355338076243 5.1811927843715 -2.023799373321502 0.2275184614040856 -0.1783142317652929
Ni 3.7508754376365836 2.6972438961232648 2.634246516330767 -0.5141010759601792 0.6793800718080687 -1.5236120792289372
Ni 5.248858290417714 4.396695168716377 3.2535527846730243 0.7222917835699302 -0.8831744501223372 -2.4055966228082313
Ni 6.160477831805763 3.0983856530379135 -0.02027532252029133 -0.10032778778748529 0.793985966781123 1.5188215998188295
Ni 5.771573618437359 8.288817190500655 12.23371919998629 -0.29230511886216753 0.24515134399450042 0.7577028160793725
Ni 2.3963716322710784 6.525499244254799 0.13792158069272464 -0.19698969668760913 0.29837009410932486 -0.05875844898613106
Ni 0.7262549270185681 0.26701171893941705 0.017390433252427312 0.18897145436882296 0.8417784036740535 1.3256373929202396
Ni 8.133738446186765 9.092066586396895 6.833367774625829 0.21099758093092696 -0.38348826403590724 -0.6373926716326894
Ni 8.873886584407837 2.3982122754552493 1.1685751523173116 0.6664399667076328 1.0920842952862997 -1.1011392063997165
Ni 7.018153770964642 1.0394804580231334 4.585332847599492 0.7783603444287239 -0.5413863940386934 -0.5430020752652455
Ni 0.9494620718032072 7.7788314591556995 2.5689109729686743 1.236624258814625 -1.9287567451923557 -0.13419975794458178
Ni 7.66688026034023 4.080040756374171 3.639416291949557 1.116608248569593 -0.7239339471590435 -0.2730899793862975
Ni 8.01424243273519 4.337174964364868 12.31107086298683 -0.02595965728855529 -0.5566749447666478 0.2442051780311472
Ni 8.505293230730112 7.66400995042432 9.215929115758643 -0.36459785488930757 -1.2559913504873272 -0.41115179138944674
Ni 7.194080988572509 0.639641730689358 0.3903676158207689 -0.4463134268922442 0.009241058982293762 -0.3868237561670435
Ni 2.0139005579523026 6.765411592750036 9.240401469222641 -0.6490240852240307 1.4375575135310146 0.10597598721219813
Ni 0.2501853243657035 5.080885931719656 0.850272361994825 0.04509020747041912 0.2565125346435905 1.6472188921490212
Ni 6.557099989614724 2.0808926801801495 7.218231685084027 0.606738179971626 0.34963763403504944 -0.6166906631986476
Ni 4.3617320603121 4.516254966832751 0.6992649017140411 -0.6677424875691402 0.3830043824209533 0.1707616162290156
Ni 5.95566527313937 5.7081078769633455 5.02606301232577 1.2669889871494115 1.6955314632114802 0.15998663710069866
Ni 5.55116115318037 3.2127697812106772 9.412975435881128 -0.20030359155219052 -0.3679981388201082 -0.4198626888998833
P 0.21360755273253942 6.114899132760103 12.239334072907507 1.604464017679998 -0.01823117829604602 0.2397350580749355
P 4.4918436644050574 6.380726279353271 12.597551484041592 -1.9649861598380354 -0.04695837102740945 -0.9879497321582146
P 2.405055458778578 8.542279224217983 1.0866073020043905 0.9052671682563183 0.25652050506339047 0.16901018075554763
P 6.737309891859028 7.933536607575772 5.544878363697767 -0.7889491756881638 0.26352084764062356 0.41188609845231
P 5.03438691108191 1.4428455661107416 12.687652790325755 -0.40762578051405923 -0.9750039706308242 -1.1571787137927878
P 4.562918005179977 6.534647787605827 7.973129571434888 -0.7392152987981462 -0.6520055364498577 -0.0854189889964529
P 4.93787160114756 1.226806906439901 3.549395172101139 0.3788834182740442 -0.45137464346523554 0.20817939475584146
P 0.476471446041092 5.678511792497071 3.5014236369160576 0.9283978407365108 -0.44885239126401405 -0.8294538206704295
Ni 0.5878595173873439 9.478492309933149 4.522224300248347 -0.05482466114936364 -0.9634913420055343 0.22736496654535682
Ni 2.1468642477712283 6.658262467984359 4.735408140564728 -0.432884555080848 -0.4523704317196016 -1.3114623869714381
Ni 6.340633061480241 5.8353127227605075 9.166984408830642 -0.6749438904135859 0.8648437701339493 -0.599766119529167
Ni 0.059106515239819225 2.687393721459459 10.04481721327519 -1.6451584100755667 -0.5759211945907694 -1.3868844126561792
Ni 2.2909538055499197 5.535661479634455 7.23402294566902 3.0593443387601758 -0.40535343954011477 -1.5289041808658121
Ni 0.8639887985548871 0.015358436073862315 8.458377787352186 0.6055737273498796 0.743895477882635 2.287530022980086
Ni 1.682958380695343 1.5180932463824441 11.30358023677889 0.9123235608824675 -1.1560890802730346 -0.1803780562728571
Ni 4.422509733769627 7.089009421460253 1.4645314409325658 0.49370708568485944 -0.14232778636835489 0.2788842174705713
Ni 5.8746405246559625 8.21202956617883 7.803917056611256 0.649222831498398 0.8078035893905056 0.005513730729377601
Ni 5.521182360725308 3.0013418415952358 5.197330304565395 -0.4061677079112941 -0.9188590480081401 -0.846330284710794
Ni 1.3522895662875176 7.685022441427777 6.749574771690188 -0.9316310029618278 0.15031337567699274 -0.341078945831761
Ni 5.524326033490353 4.543008077668028 7.151416337498621 0.8395232890912897 1.048302265104343 0.738816777808147
Ni 1.2810147594232333 7.940425351373957 11.575564425944059 -0.2347507174864667 -1.0384485122387148 -0.8103194138338238
Ni 5.039990849489164 0.6730484932725643 9.949021758843557 -0.9971005454195474 -0.22882252492748978 0.7549892738029513
Ni 8.606510381669572 7.196869289633679 4.607391407105636 1.334017646564135 2.1565220324999244 3.3110684508761876
Ni 7.576178466997468 6.316522458186594 6.897223513764608 -0.2236636064343696 0.470142668101358 -0.0001969465021544995
Ni 2.544197148987939 5.512361852793242 2.3261337818145105 -0.4945249536004645 -0.16543480469946348 0.6186051066125411
Ni 2.2264675094391375 5.533583921981035 11.273759994776325 2.0740420715271375 0.2374444622685459 0.24254835915401454
Ni 1.3676981188837214 3.5084208146443987 3.404334264998524 -1.2296090038390566 0.28356799609948585 0.282612574164752
Ni 1.604020301960327 1.1490989605259894 2.452857508997197 -0.694304811438701 0.45175696650531877 -0.10492594868112896
Ni 1.205083672028695 3.504311259812413 7.8533283028017795 -0.38880093449807235 -0.198672997927303 0.1890868969007647
Ni 3.7074107446242293 3.268790941093268 6.9676928114334435 -1.6397935462192275 -1.4046952155853552 0.9768759908425565
Ni 4.072814865062053 7.246183947617507 5.89181317883858 0.9477248231998968 0.09985701879865383 0.25826756966148423
Ni 8.487069040787825 7.452855373658012 0.5392218880598715 0.8280631109704899 -0.6081785119625783 -1.0553370604639372
P 0.4061032926264366 5.948056673838467 7.902592844263266 -1.6051713281596678 0.32024735379839037 1.5313112476454078
P 8.768714784250898 1.833235050959441 7.888376153689288 0.28465068764070334 0.2866080684773903 -0.27884205137872625
P 2.0552876933112363 3.457119719956861 9.99257848401512 0.7087700949344117 2.7045153903321744 2.005107196228637
P 4.204156601976116 6.155958232700075 3.6800525906828687 -0.6368931062884515 2.1016755169736903 -0.460806992522729
P 7.358044025483264 4.2376344389000975 10.283953211278883 -0.9134682160098719 -0.3351798067385066 -0.589706678410636
P 6.729309472474365 8.290794515109393 10.296969838945161 -1.0074124688685167 0.23835926077333142 -0.8266621168579054
P 2.580663753062455 8.873002711195635 5.3898552031632 0.3390058653528161 -0.12062587591488903 0.27439892800570803
P 6.8009943236123505 4.548475334650714 1.5385754134585805 -0.22746292557580178 -1.277135331554794 1.1460589497305422
Ni 2.611453521969949 1.7466610366386068 0.3923139593066051 0.6610331938697648 1.1111012027084346 -0.6624547568076397
Ni 1.6168136832998126 1.21811396783743 6.701790945661512 0.5284840841547285 1.0661686038618026 -0.5907736862225695
Ni 7.294951879903067 0.9305544747380845 9.16809061716014 0.4733735163338299 -0.0584476026139316 0.588369190546135
Ni 2.7509870322630685 1.8551769756499545 8.984780780206652 0.6236907486655646 -2.175067913822912 -0.5344112482724409
Ni 6.592801177711665 2.024024095465243 2.228871280092525 -0.6967766700179613 0.8724516643881942 0.7468638164823395
Ni 4.303569558111291 7.042346383113028 10.42018540956396 0.1143169029777257 0.9844509749763368 0.1753944870153366
Ni 7.500958123010679 6.5188383028308925 11.14576968639265 0.1359951592821077 -0.44715520606724923 0.9038016394543855
Ni 7.906665039505871 4.223774942448988 8.146903601001073 0.5195757259215051 -0.6877963208962219 -0.6058622051245759
Ni 3.31463389089309 8.960979988142025 12.297227768306668 0.7663612630853188 -0.08218299855765845 -0.16565771934354695
Ni 0.3515564697101775 5.041785932198479 10.107138475620825 -1.1285692775862113 0.8872730456717429 -1.0686682303552044
Ni 8.868565120944687 2.332924114987007 5.565242984748775 -0.5580003484462907 1.6756982305356365 0.21856767996870102
Ni 3.81363954779782 2.8305447334561227 11.44371970138759 0.38194560213913575 0.375329896594831 -0.1442399157894032
Ni 1.2762764700382387 3.7005493371109583 12.365896516009206 0.2920636922753228 -0.5560779346125971 0.7381837722098384
Ni 3.356677097089946 8.5366843979057 8.016500409869039 0.506662617404263 0.41623177701551545 -0.13719689289969272
Ni 5.61538319853699 8.159580347524928 3.5806159431007685 0.25848997008493546 -0.5721378162889372 -0.17699602717450164
Ni 3.1455134082286675 8.615996072534534 3.259100228091457 1.1159631587864265 -0.18312322311816204 0.2641577098936741
Ni 3.6961117468600118 5.023406836641683 9.22962550570977 0.29402492976675165 -1.6413524060659153 0.17406471246031957
Ni 5.490638618382036 4.763320309880334 11.396362321403563 -0.7354530035422366 -0.3248545135530986 -0.41945594037976797
Ni 8.186980417103157 8.893696278875103 2.5091903025278 -1.312505740634288 1.2695307797346587 0.7837100387764117
Ni 4.574763728642463 0.4261444343059695 1.1620189999855737 0.4224319922889563 -0.18047807218583112 1.1320628925617664
Ni 6.4119625409143515 5.907908783395609 -0.037410617113526626 0.8737325879831468 1.29139107014286 1.2107779871754825
Ni 8.29944189323701 9.100978215278674 11.726066164953945 -1.0724212696397337 -0.31422428753276205 -1.9362072879331298
Ni 0.3794695502352813 5.114910494341906 5.817648926658947 -0.897004414026894 -0.9683743811294483 -1.0509505013604674
Ni 7.57388221906474 6.4130833285958015 2.942172452900116 -1.5954037072499427 -1.3435081025530733 -3.2194111942795067
P 8.593534758430666 1.8455272670755136 3.2243858798798914 0.518237723836372 0.1625507982834491 0.7171344077387068
P 1.949150011087357 3.6367646723129545 1.2517476215854177 0.8558145700521455 -0.2603864157766999 -0.5175491824097795
P 4.570180344871978 1.4817268753526107 7.89485849805176 1.11302284521118 -0.7457592705642511 -0.23168904784200745
P 8.870314643179148 2.1165938682770893 12.118892223997928 -0.031336862440068614 -1.2540558240275113 2.208688687201151
P 6.646207166337537 7.789857094070782 1.423535214447894 -2.206688626051987 0.7075668186549299 -0.06290718104718199
P 1.7822073191210377 3.415586791078389 5.680644022720319 1.2506938495338138 0.0882096643677126 0.42323751890938727
P 7.280782572222939 4.041177671322243 5.801125053638275 0.33767249125337334 0.5413943644584934 1.3582883461860413
P 2.5672689734548744 8.894215668288457 10.070756614029541 0.23147873160341426 -0.17742154474769445 0.2212891926649221
