# total energy = -340869.31863071094 ev
CRYSTAL
PRIMVEC
9.25019871776072 0.00000000000000 0.00000000000000
0.00000000000000 9.25019871776072 0.00000000000000
0.00000000000000 0.00000000000000 13.53860084785421
PRIMCOORD
 96 1
Ni 2.415402603174261 7.018560422453597 6.514111018077644 -1.1463543694837741 2.0275722101003724 0.4960784141305134
Ni 0.8481100069837662 9.006594601004396 3.1559152252880533 -0.9961096422611877 0.8258591613406358 -0.42495681559333914
Ni 0.5851379615748896 3.8549092560925677 4.464935801968488 -0.07523639203649624 -0.3899674440023478 -0.10710598705158328
Ni 7.050769613911335 4.079383825048598 13.328630560239812 0.06815814503347617 -0.14265097403572852 0.506273095275328
Ni 3.3857114334875176 1.1621579488754226 3.5980460418263362 -3.4085369148380074 1.286306713641417 1.1726441564182386
Ni 1.4779412280208042 4.3861481605778705 2.0628359093730233 0.5344084200589635 1.4759268573378321 -0.7416593894632647
Ni 4.572317657211533 8.183761686662047 1.7081379698188097 0.3087820334712682 1.0163002582764498 -0.8962978748781725
Ni 5.818818916745096 4.2959217236224525 8.73000071316569 1.2055753599286205 0.2540504462563431 0.4199112827496317
Ni 4.498177315587822 6.232376794887685 7.985472579848049 -1.503356928524327 0.8618705464382382 0.242287392183144
Ni 5.147966765082417 9.046037447752182 4.009795506146413 1.5379022705993644 -1.427330950707 1.1988678660014578
Ni 6.1091919003895 5.751246216113629 6.585270020698819 1.6748196845854253 -1.2907488085731706 0.5340824041781124
Ni 2.420591964577992 5.284860453877089 11.92726340108928 0.9475011372248651 0.5938479542725192 1.6202811872179126
Ni 3.567422334405318 3.6202409683006884 8.583269438180524 -0.9952722339615567 -0.6824031749051086 -1.5260857375804104
Ni 6.894385756707285 1.8049634984416454 9.175665105561771 -0.731004995073212 -0.46105099021273505 -1.1143834730041324
Ni 8.445755061061092 8.341459072064543 9.477561986597921 -0.621734139159826 0.7681294107293352 -0.6857507512211028
Ni 0.04105238130081446 1.6309672631400862 10.36917382746665 -0.7227101020542714 -0.5502728978950459 -0.3601385335663733
Ni 0.48800070125988676 4.026407937777358 13.055963381698582 0.10348433113859597 -0.043624421558170035 0.29905246488833015
Ni 1.3613979761035078 8.268687759830767 -0.04246026152478561 -1.7572813907257672 0.472030114932058 0.3824801344863671
Ni 1.796092558002826 6.99786772822874 2.143471740440049 1.7002689778964653 -0.6223848853699475 -0.14354700348743665
Ni 4.4590859763861 3.179524507125383 0.39491317788348157 0.42090707100399766 0.3488652746453992 -1.046194731843037
Ni 4.004614469921405 3.7789558755470543 2.635410251235708 -0.6426042977406159 0.27513940571615836 0.2074540865540427
Ni 0.35782728173403916 1.4446775139248762 12.698841890116245 0.07272930934392635 -0.6480252116458711 0.95503729770091
Ni 8.879404370520799 7.456159566707233 1.7930927186031294 -2.099255594678288 -0.6833498550890942 -0.9278463391084149
Ni 3.953978882891063 5.189019146383231 10.021353410557131 0.9882654636264205 0.5451371193303772 2.571291366037301
P 9.25732123353224 0.4137567574120731 1.177969313309285 -0.4083364334278387 0.5813305385317988 -0.3449687678044704
P 3.6576302709635753 7.360780769142406 9.705877238004627 -0.4548214643632554 0.9704484900496576 -0.3795583328538818
P 1.289015172210116 6.008077979704686 0.3029366033566095 0.7997861184026678 -0.5426863437970396 -0.76023329581071
P 5.264972526928744 8.401881369193188 13.228756166164802 1.1313815502240259 0.12290464464673671 -1.5163733953886531
P 8.239808639862053 5.250486715951485 11.923405143261302 0.2730820089664975 0.267706603587197 -0.5823378967503906
P 0.35368411778977715 7.469988613585267 5.753769670286423 1.187157519543065 -0.4002163754238656 -0.5573241483148724
P 7.710706531248875 5.23738843476132 2.0473473768696246 4.898998989677536 0.885145972026411 -0.006934522336304186
P 7.276668713448782 1.9963871078691027 11.163957364652969 0.6361256319948076 -0.40314897568962826 1.97053460046009
Ni 1.9699407901270953 5.778414049344925 8.888064406431981 -0.15812541552224382 0.13427637681878807 -0.2949541264492404
Ni 0.3111498546763466 5.333072488879307 6.452131912527881 -0.6567890738814302 0.561933879172742 0.321132327506505
Ni 4.402678265441448 6.789192498448417 5.212374972779452 0.565723171011845 -0.0034720177090004725 1.8656235641772967
Ni 3.6302496831649247 5.931976595981883 0.8324753213427936 0.3676469261282765 -0.9563015091253143 -1.3498155328283399
Ni 5.023144585435461 1.2632811197588167 2.2426560697009443 1.6553430639180524 1.3399270700700343 -2.613644377082215
Ni 3.2998880910564776 0.231758175318415 8.367640834127146 0.8921239460061411 -1.1800432770957872 -0.7935643058626721
Ni 7.1757120461398385 9.070189716246194 1.174457012908222 -1.064160315182522 0.15503674929459108 -1.2784838751628886
Ni 6.3236670046798755 6.427574485336037 13.837397957313202 0.4328182206192868 2.826568999832525 -2.3128137372475397
Ni 3.6549384631766135 0.7700207555859866 13.339704897980535 -0.06575879156336417 0.37527513209749563 0.27968897276005383
Ni 8.183558182293272 8.992673052140555 5.158897724745142 0.7186948102472913 0.605134582929932 -0.401271041940625
Ni 7.936004367878582 3.8665367557084136 10.096289269258774 -0.30135951575495196 0.06456785657905653 0.6048275932124745
Ni 5.63362994116098 3.477972914130673 11.181313512249796 0.3989503642272484 0.5481442815878173 0.08700150299222435
Ni 7.5930995064948075 6.852500857534215 5.310935838656013 -0.2704715679268439 -1.2134905010106392 -0.7640115319062196
Ni 6.854286145860276 8.998916936182477 11.128215522357292 0.3611474344468619 -0.3275081491258618 0.9693657985084402
Ni 7.990617540298594 3.4925419768951578 7.582360950962559 0.4636138658439048 0.3492049173730051 -0.11461823626822841
Ni 0.06694461214784234 2.6710595915455793 1.9539582970194913 -1.8550506737574568 -1.671312185652799 0.11486429084076347
Ni 1.4890414663175544 8.03066164995412 9.255705223840206 1.2305433427278678 0.9376710385083206 -0.43767554871158815
Ni 7.050556859343981 6.417084760145609 10.040740901762264 -4.214931796806444 0.8058194690809412 3.0273634149782054
Ni 5.924742940691835 8.487020196929262 6.424756874848379 -0.7840113720669142 -0.8132975226255412 0.44028367575839655
Ni 8.359839216644247 7.47491896942874 12.67811404513678 -0.2559489488306366 0.07244365978270749 0.10916929733851521
Ni 5.62535101343132 8.535417235903092 9.086120408241747 -0.05385561236787499 -0.43721532124571805 -0.3249519583629113
Ni 1.4691720397663715 0.23290149986298025 5.436520234666012 -0.2541070105258914 0.19287053231291298 1.522455854137307
Ni 5.876484654696712 5.0369088809234315 4.261112301343702 -0.4676245296651947 1.6202647321576806 0.8028135923750819
Ni 1.9045881371549784 1.911285280927351 9.00283069520194 -0.018753883568735443 1.2652563207290208 0.5841695506424907
P 6.352555374847167 1.1148986843270086 5.46566853541342 0.10228259752101093 0.011591818602657455 0.15530054447893898
P 0.5209822842991058 8.743241447413999 11.221577776631543 -0.04861518990454208 0.30552290310402225 0.8651463889760326
P 2.2920697054987857 5.322573513490298 3.8057416755769706 0.6415033513669532 1.0823668108882198 -0.3801653703102614
P 5.089311255882673 5.058397092226224 12.63724111768843 -1.382944711282141 -0.025558822305710823 0.13269129171985533
P 2.2305651351362092 2.6382861379744247 12.716793750501665 0.25940245459687583 0.3295452341605486 -0.2528908787306032
P 7.8610500087797766 4.321868530641106 5.492569962925595 -0.7644486194436383 1.4578856835654053 0.3197328760558171
P 6.982891656726707 7.913803891285081 2.9731988277845387 -0.1756379704847104 0.10879211650475458 1.2157487009171966
P 0.9607071241865679 3.9137497692639243 8.257396042423396 -0.5025689069508635 0.25356630753107295 0.5434913561968382
Ni 5.715577450386737 2.494815557988928 7.144211419893378 0.1693742489631857 0.09668582015952382 -0.8585741350751536
Ni 0.19068544358072315 6.136063727266216 3.8465332012778117 0.09882780620319108 0.697012183067535 -0.09133046938488142
Ni 1.1111061029089524 2.388799032056383 6.66199301776624 0.07290491568984218 0.2864843984153324 0.032958971424523885
Ni 4.866825479621477 1.0003812258988691 11.108692978252883 -0.1306259245503944 -0.6761268549780935 -1.6550466157235562
Ni 4.195566319221251 6.528660655425109 3.0488247513002977 -0.2238752082245435 -2.9162148824261327 -0.06387648693898676
Ni 6.097518149780751 1.3347574041913075 12.955817956805161 0.3365214083680656 -0.656034712213909 -0.6446465249816252
Ni 2.5784466033563604 4.820805741682866 6.796011744842054 -0.23642810518888957 -1.2432016549218268 -0.21832599627154015
Ni 3.419742914065638 2.7663828879189216 10.911908878747955 -1.6870563358609332 0.7067839177423182 0.06782081629871545
Ni 3.2414545866226687 7.777714969766924 12.489385943575718 0.8182294127095199 -1.5876052942514465 0.4101382625232678
Ni 1.0860473149540388 4.122554501824376 10.530404788726948 -0.43033762028927824 -1.2834142225849703 -0.8770917342633668
Ni 8.257800276101369 2.1978934337494413 5.397420570285568 0.15617137711966653 -0.48155399526209325 0.09237279460646672
Ni 2.294955767455941 2.178819524276192 1.3468363134978878 0.5346858420900662 0.16355095741318929 0.06269223682289848
Ni 8.636549656985068 5.8246557920494695 9.000001059456126 3.9150910316888643 -1.9848379044566395 -4.773682136044881
Ni 3.566765570306094 1.9012210648716308 6.285945619887943 -0.08921933657914957 -1.1339212859267438 0.45868891773846165
Ni 7.452875746211111 0.9851183982408376 3.3454157184305986 -0.4401841740660548 0.5178628569954565 -1.0058620936622613
Ni 2.9092429547980965 3.4397233429997884 4.736574358427552 0.08033643226722294 -0.001641392258164915 -0.25650225023094536
Ni 2.6138748639201546 0.18708341625342773 11.1568763376395 -1.050212080532546 1.0741901886146985 -1.2458429491994156
Ni 5.503553648720229 2.7697869609965915 4.301999104089924 -1.5281282219317358 -1.6235482880049588 0.7273072345066507
Ni 5.027769684725773 6.931534554207076 11.373981273386349 1.267180020114295 0.18595477902968618 0.29753397136127463
Ni 5.834960513268287 5.12744982463059 1.8918163879747094 -4.717490419344663 -2.4745322694376806 1.1757017122976399
Ni 2.7621832977633174 8.025481538748968 4.00152305355576 0.2522000233111657 -0.3107849228339099 0.7546025798874939
Ni 7.478147288733378 3.618326177194499 3.490061998655692 1.2895743286490953 -0.7058920020556682 -1.3980782244894696
Ni 7.8662671207792485 0.3547811913414393 7.4366860486553 -0.28547061243883737 0.36263661739787867 0.10778990049248532
Ni 0.37290048032116785 6.56048133854246 10.812901228279948 1.1794547515821687 -0.0868562356636117 1.4513751361403973
P 6.56995354188902 2.3581068731658688 1.081523967848113 0.7507281845337522 0.47409573921183507 2.8680465502510217
P 7.253987226529088 7.179088368621767 7.926660742292293 -1.0414268781407485 0.8483000068426552 -0.261852201688949
P 0.7013093555092448 0.5403096492134639 7.915708507172833 0.23258122063897366 -0.5603621638102478 -0.04434638732585911
P 4.452860592741339 4.497021040765244 5.979824173160025 1.1616364924538252 -0.9577930060691764 -0.2970655163652884
P 0.9450650383867306 1.7974338367970168 3.9319476849315884 -0.04540799582115406 0.687128862515552 0.32681138016915334
P 4.63073266124818 1.8727119528461442 9.028446345111407 0.3633493271941871 -0.9809398764992848 0.31730935421598905
P 2.6103042872680335 9.234029233506227 1.6464835462392269 0.5979992574367313 -0.553252292238344 0.9133070078416594
P 3.59748547979235 8.901049835199462 5.83417609642865 0.9076680643883271 0.05164883452454331 0.531078327244466
