# total energy = -340895.4874648265 ev
CRYSTAL
PRIMVEC
9.00223648499235 0.00000000000000 0.00000000000000
0.00000000000000 9.00223648499235 0.00000000000000
0.00000000000000 0.00000000000000 13.17568305580168
PRIMCOORD
 96 1
Ni 6.347926853015416 2.0125669304980294 11.269582614003792 -0.556317561427229 -0.15669305395109143 0.6108347186385028
Ni 4.514504422801024 0.49460536215244905 6.160540805495112 -0.712491766760373 -1.0950014689330947 -0.5875456662035753
Ni 2.5589216474183423 1.4861251600414052 4.678882555053744 0.920834426566956 0.8498020453094783 0.5463861612461299
Ni 3.451898466797005 4.298594789896363 4.826476918144212 -0.6525220710749601 0.43455140126030967 -0.012382689935068997
Ni 5.071049671094254 4.641940078379675 2.7612406043391737 -0.3853420294151944 -0.5841392116251876 -0.8897235640947645
Ni 7.051028506565813 5.96671815909527 2.5811166607575036 0.7626606743052801 0.6413400863162116 -0.4806692786642947
Ni 5.251994618616924 4.517691214414109 11.542675351443712 -0.34831017347287757 -0.6717482662944237 -0.5909464643550081
Ni 5.664306038591339 7.875156223523911 12.399397464993617 -0.48749710021940557 -0.3728521244782998 0.06705179934317484
Ni 1.9647380495931568 6.351302691588599 0.38049571681348926 0.29751545941851343 0.4274361303717671 -1.5892472007302436
Ni 2.9021949180120936 1.527337397342837 0.2866591073860245 -0.581956602151572 1.431764303888005 1.1589329774797332
Ni 0.6072800510419007 0.09891297041791418 4.753799164669845 -1.7829525702396263 0.05880550017398259 -0.6579815515276345
Ni 8.479467337068648 2.435699038379024 1.4407349849218007 0.6862660002946245 0.06656406107347891 0.3147444217022902
Ni 6.548253615066259 0.8620181291035157 4.8901416327399865 0.8335984389664224 -0.84419472642503 -0.5255548263230755
Ni 0.8745951532917705 7.103052429537629 2.287549237315315 -0.30556764029902855 0.2434868118078839 0.6676321872435211
Ni 7.413602571561983 3.7627186759072133 3.648992525830167 0.6362667855583622 -0.23172427195531706 0.5769954014915547
Ni 7.651171584752193 3.712972318692772 12.431322095212504 0.6417152102674432 0.5243443509547421 0.7144326925368277
Ni 7.818676193635492 8.876510964456076 6.858944191975257 0.13081001553674246 -0.2445484203031788 -0.4464993176508052
Ni 6.922161495432132 0.6358891576701118 0.5880278687149366 -0.4149863346441885 0.611800939206514 -1.0935613940524584
Ni 1.936768101734802 6.365814296335194 9.224703957130481 -0.22153807545093457 0.615931930655752 -0.5650824521040526
Ni 0.12060115785928799 4.919497024748776 1.2022864532553237 -0.2629040399922311 -0.5984332596503564 0.42692525217361965
Ni 6.375707753913672 2.045785182058161 7.125501305937494 -0.490626904097639 -0.1330075374086935 0.4354086070542824
Ni 3.6610474203191026 4.4912336422365415 0.5402124911643568 -0.6541120412698993 -0.3468112203298479 0.12010445619378025
Ni 5.945004765392549 5.49622528659155 4.78498651174435 0.019772811751553043 0.559812461954365 0.7870311327298446
Ni 5.18241633506455 3.0258766410973648 9.297341200541968 0.6794122105975847 -0.7002209198128199 -0.4407387610179441
P 0.20906523272548266 5.603027816810901 12.267390473875063 0.31309583035527366 -0.18420025823242467 0.40765431975914956
P 4.046307120527069 6.188686296959272 12.367472834774729 0.12661243251562712 0.36611814818857596 2.0426067358359923
P 2.346991002911941 8.512100443276095 1.3040855405974052 1.5101996624777732 -0.7203835108036237 0.09284536336751106
P 6.308308011520526 7.644870019415582 5.692316496512572 -0.636692046021239 0.6727288850401382 1.1833093494415685
P 4.813306646590696 0.9857088544249818 12.602303367714372 0.7634124648696401 0.43141645517575383 -0.5442863412943078
P 3.995408477079648 5.990583087248633 8.184509968357927 -0.9025430844569359 0.46206091953448813 -0.8699096146926308
P 4.556688901611532 1.0692946174970206 3.8362318369004904 0.46411394540877493 -0.7187287488090203 0.1686944492873417
P 0.010643343853534888 5.444804513444811 3.4915425145532404 0.4438659937930162 -0.39227860863402764 0.39943013207714434
Ni 1.5925676008129492 1.2508067058999843 2.4196615545973508 -1.0494806016831604 0.44127663579928517 0.29556039257467165
Ni 1.2847181296471433 6.703470171543167 4.765657810409727 2.016732439172391 -0.364564687658527 -0.0391347612179326
Ni 6.059702256755053 5.579622002703491 9.219288211835474 0.3923945653866016 -0.0028420974344854277 -0.41864629999427894
Ni 8.567374173514363 2.1663611336561024 10.276057117890554 0.05810436034189993 1.5530031307965446 -0.729503470827021
Ni 2.1998764590106745 5.18438782479129 6.7583478033888476 0.5082569584745763 0.6071935223414897 1.269519209770433
Ni 0.5733884322143713 8.957963197549864 9.315234045203464 -0.08517370575486621 -0.01681681444702265 -0.7926713617347574
Ni 1.4388634200168275 1.132643353602345 11.255537325092105 0.6328760147092585 -0.5647993736459951 1.084506740049358
Ni 3.9865412744274176 6.864565188255513 1.6459850699477756 0.6715114676932693 0.1809275010184239 0.045761008285198614
Ni 5.537734597687423 7.779885557870557 7.880283897260672 0.8283155933009283 -0.03687347598758166 0.5228019461682868
Ni 5.230623309889619 2.9298497876036182 4.995296753735622 0.40828706824714195 -0.5939464275235965 -0.4753699779385684
Ni 0.8343353525797864 7.578613561019223 7.0397406026007046 -0.22074360457409728 -0.5991847931044003 0.449541961131871
Ni 5.192669882090835 4.58428075554969 7.157044241341707 -0.12812784071888902 -0.9345288933349131 -0.7355854153550428
Ni 7.986972999303964 7.179580439432665 8.795361206498447 0.2083370033796283 0.8648463412371106 1.064809518730747
Ni 4.640922825689623 0.3207253695957401 10.42902671621315 -0.06621104860943436 -0.648143225280974 0.016036227527256253
Ni 8.015528092515003 7.179967535589056 4.504963852881395 -0.3504526737371771 0.40312994952623477 0.09983850685589257
Ni 7.157804030076578 5.9894037943070675 6.914585213450287 0.3702090304284979 0.7115795393587487 -1.002080772242958
Ni 2.3563533285549045 5.182596379788453 2.672555074462578 -0.2418510759766738 -0.4211274145449199 0.1036319124600538
Ni 2.531797909762332 5.010167547706404 11.360561013439291 -1.1353821867429865 0.5245276706101417 0.5901213973505515
Ni 0.8757456390775117 3.2479257990871226 3.7536858321089923 0.5486374191741519 0.6714621025125725 -0.12143243097658442
Ni 3.7852422708674975 2.7103572646932843 2.7025298203215944 -0.7106788819213502 0.09324131325434909 -0.5017672369851746
Ni 1.0970845206314723 3.238095357162011 8.07324142876216 -0.10753638972078253 -0.04537122904594766 0.05694659258837289
Ni 3.8019324167733197 2.666327327462768 7.007565710215593 -1.2314049193972147 -0.036379567070298637 0.4084716734541224
Ni 4.082478105559213 6.803494017907563 6.140790799506555 -0.1544777914673275 0.3465155434663 -1.4194199233900393
Ni 0.7384435326289672 7.496684209407093 11.360759062635585 0.19491713042929656 -0.15910809115048727 -0.04995936263726235
P 0.18118980834717702 5.652026988421144 7.930548783279955 1.2313792083656019 -0.6311659739966872 -0.6372327490160574
P 8.506789123920951 1.5966996272265266 8.0499994553535 0.3614629088047517 0.25510948364847674 -0.18664871977291725
P 1.78590862757635 3.1977203278267288 10.398934041059976 -0.624949303663014 -1.6491346211144955 -0.1339606453505822
P 3.981752084771594 6.16087838935243 3.8803833043196407 -0.882520361478106 0.43751871141874976 -0.4672175240347631
P 7.021105073453109 3.947057466475456 10.302988207691985 -0.13521405814170906 -0.17868909860620838 -0.4469145508113529
P 6.352373957695824 7.701881181239516 10.165289102627236 -0.6337172796636312 -0.403072356815422 -0.0008834310462178334
P 2.364410329949571 8.44503378362217 5.772674957908646 1.337133052264665 -0.34825540897554214 0.3412414395515542
P 6.8288263105607365 3.894484407095736 1.526244525868745 0.4145783005724925 0.47742043270969386 -0.13741440822713755
Ni 5.333833947867102 2.855329276380103 0.4569075978616069 -0.39811038482445626 -0.5132464412693678 -0.6541205259103314
Ni 1.4744222529877005 1.0366074978724031 6.950594158230918 -0.11641338049543822 0.7723262224195022 0.6032160257509804
Ni 6.900970231428731 0.6092173322710986 9.138166360810052 -0.9483254328983732 -0.00959895654234476 -0.03710718926494254
Ni 2.673520114182699 1.4219842271509069 9.174030369587939 0.5329835146869788 0.753029064752787 -0.1073895797302731
Ni 6.206195646358854 1.8462776235010772 2.589351006205214 0.9769153287209241 0.6478033254430521 0.4739759258045192
Ni 4.18253796086839 6.523569483419137 10.229217582743527 0.2049387763313567 1.8548082187293478 0.8184384433965325
Ni 8.162282546968465 7.363019006381392 0.3744912252713191 -0.708478788946238 -1.5785005037367008 -0.6154884153604302
Ni 7.719723613378319 4.004041621590804 8.053596748937087 0.0008127257092824712 -1.2477908169544059 0.935502312991776
Ni 3.0930873365304112 8.550747043261907 12.337932896923938 0.38696259573775293 -1.8582211010656384 -0.23124090456099528
Ni 0.3006008705814652 4.809975819198488 10.028578443096713 -1.1916893459751476 -0.3501369422689712 0.837474376982061
Ni 8.436544674890136 2.2904839663149366 5.809197930376021 1.4012589362102965 -0.6813171409297815 -0.09507579535992657
Ni 3.7039340735528334 2.6668314526896966 11.394224875691084 0.035893628572815604 -0.2535799343778278 -0.015050723685535368
Ni 1.2081631130435224 3.156120994368905 12.634715018911418 -0.3444447769802004 0.8037163066950094 0.2885178839055934
Ni 3.1486221316183394 8.278456405066972 8.061896810709023 -0.21117575838000407 -0.40400283904949125 -0.42719290401270943
Ni 5.417896829457484 7.8369867420564425 3.68451354940902 0.0285101916245509 0.38796429752938993 -0.18418483161345697
Ni 2.7691148603390783 8.48697520205541 3.4280758491537595 1.2284790039996714 -1.670732659000245 0.7013935999646824
Ni 3.1644030516684505 4.194781002093805 9.164280047564963 0.8467172357365675 -0.03859097289932063 -1.1056298951812185
Ni 7.201644920346996 6.071099087778123 11.371628362617619 1.013762065235628 -0.08913654705735617 0.15284694073212385
Ni 0.6005400768025861 0.10118873572805002 0.3651009926961502 0.14122375467089873 0.03160862804421653 -0.4007352240418131
Ni 4.655380417019046 0.3217363207204563 1.5989609889587502 -0.7362994107029319 -0.7505880594114622 0.09195550456339001
Ni 5.992716617226884 5.560726308929855 0.3975495530615959 -0.06682991314035587 1.035923946044648 0.10692909515408681
Ni 7.749773077797754 8.992612804665026 11.3133262801233 0.6945904609999198 -1.2016600840346146 0.38131491053367234
Ni 0.11022788109160782 4.718585117345247 5.755309644288188 -0.6876687941794222 -0.18934452143752553 -0.24849583498670105
Ni 8.297919239720903 8.773606402509229 2.5080698155991357 -0.8585494524848053 0.7083034397106381 0.5060036436640253
P 8.335161490860271 1.646635031401066 3.6329442393650595 -0.20084609431922185 -0.6302357488729339 -0.16496429282094816
P 1.9433757431020477 3.256252867567644 1.623125691577412 -0.42086696179468164 0.20759369745570055 -0.7505564348425784
P 4.7042805640311425 0.9154464009217764 8.321075691885708 0.6008326131204685 1.4484929294965958 -0.6809823832981821
P 8.527809345436644 1.5723935894996008 12.507741178049578 -0.2693634224643296 1.5998853971703801 -0.5815729935599081
P 6.380658983821009 7.811924516489123 1.574296662231257 -0.47835091494376325 -0.9687752161122928 -0.032837101134678935
P 1.8719610033658618 3.173297261029266 5.87709189553628 -0.6008446973053265 -0.08886272457067922 0.6265215332461403
P 6.99005636081601 3.840254936256106 5.921441412151725 -0.943784093384594 1.264612516497435 0.23207677019872935
P 2.5602899873200062 8.265160102206726 10.217478666745041 -1.1708428415434415 0.6715052970456823 0.09662128547017552
