# total energy = -340878.4544288905 ev
CRYSTAL
PRIMVEC
9.20343110995889 0.00000000000000 0.00000000000000

0.00000000000000 9.20343110995889 0.00000000000000

0.00000000000000 0.00000000000000 13.47015172649914

PRIMCOORD
 96 1
Ni 8.48367663928923 7.530873042572285 2.4397411938444424 0.38132879449074325 0.17175971847622676 1.0543914087212163
Ni 1.2498535342949304 5.47367613784062 7.733577689063838 0.9497572802488935 0.10056227239579454 0.647517161661201
Ni 8.045565715428626 4.254672504114577 8.35892965472153 1.0270598107857989 -1.5827322824298613 -1.0206089129541327
Ni 0.46717811985306107 3.9797384111269962 4.428191230354324 -0.11609713480660006 -0.6047044373710488 0.7297649520185238
Ni 8.484790254435064 7.159376551980658 5.119290666084814 -0.5227546378701191 -0.06572690988416423 1.2180549804528702
Ni 1.758987334853059 7.421039297527804 9.262210509800312 -0.2665760895271796 -0.0009248258071145362 -0.41506243929776254
Ni 5.812896196064978 3.5593624987211196 9.576644808113551 0.23138668611024021 -0.4526609663768269 0.26142257035069816
Ni 7.90559073399897 2.3699663023847277 6.820314792768764 1.460930126818684 -0.621928000338187 0.2475602105463091
Ni 2.1032048560872343 2.513410977285288 1.190813524703817 0.08139958342441465 0.0303529012602445 0.5325906501239344
Ni 1.4925664155009855 5.545407678721857 10.636018613257518 -0.026610146388360626 -0.9674133027677597 0.22591306459017868
Ni 1.0473320360794274 6.406627933982657 3.8817881361345874 1.7137536426464612 -0.041403502647451275 -0.563703569478655
Ni 3.101951980143047 2.135389254144931 6.8071814967926905 1.3452058019704702 0.15615697894196331 -1.5679695222983898
Ni 8.055928778686553 7.2608075645611185 7.8852649567297615 0.7119217531895159 -1.5135387541533354 -0.6766518742436282
Ni 3.3248222642051517 4.6258652814846135 11.933032368463872 -0.28877268022887687 -0.9921308601190977 -1.7902077091401425
Ni 0.5165361200770893 5.726761285735558 1.5464810343919755 0.7241926001370689 -0.9269757635780036 -1.0565992150058126
Ni 5.871485237539184 4.013689867928496 12.316985702856211 1.14207168294802 1.4302869480115303 -0.6900383228528632
Ni 7.180121085358423 8.468187264988085 0.7880888725309562 -1.0431847413721196 1.1076052737400341 0.7583635895918229
Ni 6.5608590299651794 5.7828838077132065 9.160780417562945 -0.3358621775175119 0.8502807847181099 0.33930771286395117
Ni 3.6148591873936704 7.057374926680842 11.282558717665117 -0.5468445889397873 -1.54134472062201 0.21171311894071282
Ni 1.0523387025202016 3.931779332408478 12.913510682069433 0.5795150825896148 2.044862107529072 -0.2881221911290715
Ni 8.185375035101051 1.8911670102618776 4.137613145425515 1.7708856117727632 0.23363614426604923 1.0774701449175508
Ni 3.448930530664414 1.8176868174987522 9.164794954146522 1.4406389806698157 -0.20822567461274463 0.7597445290997495
Ni 7.51927671956608 4.915460439987182 5.319834346987593 0.3311971679416748 -0.3539917972386871 0.7648126876512763
Ni 1.6585779031088583 0.4524857626728188 10.004065946917244 -0.14283763612523787 0.6256324457729677 -1.2335967848422111
P 8.598406609602998 0.2717202548972899 5.864554133685237 -0.22030548859541413 -0.5358040148549096 -0.5753894904570156
P 5.476639642608872 0.7207528902749278 9.67783285011674 0.2501881350874594 2.402995180629642 0.19274429114769387
P 3.973010703097206 1.1197998514372494 13.45156258303851 -1.5932174982319014 -0.11251353122039978 0.18038165581728288
P 8.334231327404506 1.8806474886776776 9.353309750788101 0.4987294786001153 -0.04427902442303342 -1.4750894490382016
P 8.320030433437385 5.406214988923572 3.332811762619188 -0.648917127332521 0.21951230327015747 -0.02318877941163748
P 9.036627974635088 5.906044120783865 9.302055843786869 -0.2870379569259573 0.8940170492637958 0.34402285895143336
P 4.360493553261674 3.5227144366491303 4.008124553228613 -0.5163369072692333 1.4828539234749687 1.4720915427521422
P 1.5587943046697543 7.77344787231398 1.9210321437183333 -0.9387953819207508 -0.7667587556340536 0.11989105463139353
Ni 6.96246914664911 1.512841573899929 2.275081690244198 -0.030536220915644185 0.5271897908233372 -1.0970696643160331
Ni 3.487133972568188 7.487570899918164 3.209384550050767 0.12167822843880335 -0.06130512666738475 0.17844510091620236
Ni 2.6768270973632013 0.311539819277167 1.9425976231374908 1.0677156366339482 1.2482739272384116 0.38532274614148476
Ni 4.045450908162156 8.516321208894793 9.118713375343296 -1.200287372056804 -0.6561339567959344 -2.36733243712071
Ni -0.14158834287647176 0.18310317923868447 7.992460078118784 0.7436887611884676 0.7478539483097507 0.7291669134232087
Ni 7.398674960301552 8.872530800666336 4.145048597295923 -1.1332427718024805 1.083433304479521 -0.23359423528452028
Ni 4.611885269860467 5.868825445992522 -0.1756668070251818 0.46388434589647204 1.4227189058562852 1.2310665622211894
Ni 1.947942975837494 6.437947209530368 13.03831196687978 -0.662896986551381 -1.7415570380119751 -0.2519616820481144
Ni 7.467820337083787 2.4430323407547747 11.201764558320223 -0.8277031565279099 -1.4358235615590433 0.44516080134503977
Ni 2.553924480359346 8.57282107154169 13.264219383157796 0.265671061214407 1.2552025360374448 0.07633553863794595
Ni 4.908106898652295 8.309879049091476 13.129424092670911 1.304686244589869 0.21236437937146654 0.25736819777566644
Ni 4.623187083076038 2.338168448427238 11.50197403374585 0.4495352762636516 -0.6949349888235322 -1.7012958764990829
Ni 5.138201876015885 5.160529399518309 5.454886413198186 -0.7218472398333439 -0.590718407504602 -0.3448674663399158
Ni 4.603464130534533 2.059552983056735 2.566562631749918 -0.09841925791086276 1.1722106684252456 -2.0110711271215562
Ni 4.039155761387359 3.998807920070533 7.988460267024738 -0.09031771184965091 0.059439534213555696 -0.6014687040425706
Ni 5.597269012166273 7.783470408626486 5.706737381001749 1.7254267081090156 -1.220684704766233 -0.21891092224073266
Ni 3.3558010128074414 -0.5506477165772456 5.918353709689261 -1.7248770062531324 0.695384417656125 0.3607995641891399
Ni 9.066299836041441 0.7275643495264295 1.7576933324604618 1.211466528602075 0.6594105706646773 -0.37204479808565605
Ni 6.274595513469156 6.645917138872595 3.6153350047741637 0.37090348539236123 -0.08692334145612127 -0.20411242377531946
Ni 7.885711323131191 4.747019246606581 10.83541646700611 0.50512535482413 0.7171524054608359 1.4408279567521702
Ni 6.51471302714525 3.7259538024793026 3.352976479846644 0.006077316542331469 0.8466987237938064 -0.2910007982284472
Ni 2.617943546098362 4.594021410372338 5.462523420206558 -0.01067033522965259 -1.9110189615929603 0.8297893496329772
Ni 3.8073765561585824 0.021512099519605383 11.308394589048467 0.12202712713778983 2.203593789176747 -0.5990212709433426
Ni 1.0550721215145211 9.020770463095653 3.89683390506359 -0.5568276682944282 -0.6321895301651951 0.0018640497919322737
P 5.647344880004971 7.151323549893015 7.879810083201367 0.824599835012238 0.7674259569044073 0.12402718828695414
P 0.6742663605095788 3.800602830974006 6.694934612151203 -0.5207964857024837 -1.255066781790529 -1.8112215923876485
P 1.2093952518066162 2.0300283765456997 3.2510346768480525 0.060751311046443754 -0.04404042604966609 0.12238013960183439
P 2.726939778925728 3.698325102745472 9.973098242432105 -0.25645108527803573 0.2987004808655501 0.13886810995452856
P 1.3825117881135287 8.107964977319156 11.48492099652506 0.31195708876514017 -1.3165685978497519 -0.40261752866619044
P 0.523299721487613 2.0171159629126003 -0.12143927148164331 -1.4570919840195165 -1.4706578956294092 0.2294971823970112
P 2.233405793840232 0.3884887851681008 7.60065437643367 -0.3790669950397601 -1.4598716036471826 1.1752373710667114
P 8.70099725448408 5.4445012617059625 12.928368701006907 -0.7924890705206223 0.9265643870721978 0.1150031304114729
Ni 5.446811322876246 9.162871437076445 2.734077039633118 -0.9381898871262682 -1.798576135709496 0.8071924381690678
Ni 5.995455452534086 7.960397165349723 10.518073884510363 -0.09057430794514724 0.5136989554257541 0.009225118142693788
Ni 6.66963438044957 -0.17994732276342448 7.729321102246084 -0.5392577777314648 1.057538181880314 0.3029800820775105
Ni 1.1420445440610563 7.590695343794769 6.772442226301245 0.5904327579433832 1.0825894684219872 -0.8137680345040565
Ni 1.2274707902067639 1.5669209342050547 5.506032640057219 -1.056400211621129 0.8357915899629993 0.5051904037341107
Ni 4.045377280714498 6.064996576847485 9.094602226921348 -0.16575362149146292 -0.391623491548532 1.8692287650300516
Ni 6.981069280613824 5.746042473591113 1.360714382234247 0.4345190053604775 -0.6610079970587841 -0.49050194848400036
Ni 9.443640505290958 8.076691718926233 13.623980578935765 -0.6304563495241723 -0.40800656089224574 -0.5471266389565804
Ni 2.4173823786767645 4.127646750041849 3.0259215166616524 0.25888412019956064 -0.04465440548458116 -0.2920163839771552
Ni 6.087765865035859 1.522063411719149 13.342912399215137 0.0984069166156886 0.21652493850705937 0.2725878429388983
Ni 8.823476513663898 3.3396766017702424 2.185504696736745 0.43306736051561545 0.2337518439083071 0.26375996023462317
Ni 0.5859207860642139 2.8963657394187616 10.585639952540323 0.40601626993509426 0.8215754463636175 -0.16799870877189776
Ni 4.151529653376057 3.3392256336533346 0.2274462299340771 0.30782609731590216 -0.6252143843989426 1.6568250477802173
Ni 5.492101406617145 1.840861056649247 7.553683746199967 -0.5828222925859768 0.7640889221113744 0.39740847366142523
Ni 2.402675296006991 1.9409023511551553 11.787096324803167 -0.8267703603009954 0.32665171466283743 1.3905878296496956
Ni 1.260188987259984 2.3074750061846254 8.241307966400978 -1.4079497179669107 0.7154999574590775 0.09944178563810616
Ni 6.956864257196111 6.967429795935098 12.44699889061768 0.575792382322389 -1.8959574392741474 -0.15798143374521179
Ni 4.590036324767825 5.237921050438288 2.2831365330180313 0.008063236624108693 -0.33578324465046044 -0.16420324628520752
Ni 0.1177882704208803 0.6347956061629836 11.774205999404366 -1.3725404852296814 0.2520665830570949 0.2061911606812191
Ni 6.141596732705137 2.2677529981728957 5.215710410509023 -1.1783108677857126 0.5011614850803756 -0.10528436046181223
Ni 7.781233974903861 3.4097975422339513 13.514333663539716 4.095288339409483 -0.13239998573168166 -2.364878833373895
Ni 8.471390058961227 7.736514503882315 10.473703223522099 0.8780852085248878 0.021660772802885274 -0.036943409993568634
Ni 3.8883023245661685 6.705270065116257 6.932858027887077 -1.806516216492179 -1.721582394662261 0.7497604213038442
Ni 3.261723541561867 0.9683205813109615 4.150355295585904 -0.8996976445883408 1.1294969316068033 -0.24602346218680857
P 2.728872499426762 4.929817792280578 0.9427193974170254 0.25566047105594036 -0.6022120099664983 0.05315344409452782
P 6.247058848044898 3.923054479860953 6.93944492342322 -0.6493385311406559 -0.6187745423108698 0.9551535115638001
P 5.035546807118102 0.44717538301045373 5.083675228966234 1.636587123466788 0.9386583421222544 -0.38049087197048015
P 7.152538402779379 9.233342107916533 12.1611357233683 0.5448427280184099 -0.6798500694659517 -0.4536156169806123
P 5.476418760265897 5.756782877518288 11.053148475564752 -0.37322493443668625 -0.28909509656530213 0.3422158876496816
P 6.273472694892364 3.4599470375203083 1.2327057017352792 -3.4634446226194804 0.07269897032662317 1.684020634358403
P 5.36131144928288 7.352851077565129 1.5601803413719244 -0.2022067221121743 -1.3645692940987466 0.7109190229566144
P 2.8034847141976367 6.601731466846572 5.169561646659806 -0.5777029690815406 1.4022727221867914 -1.1501081800992514
