# total energy = -340859.6207675199 ev
CRYSTAL
PRIMVEC
9.33458659627006 0.00000000000000 0.00000000000000

0.00000000000000 9.33458659627006 0.00000000000000

0.00000000000000 0.00000000000000 13.66211103811673

PRIMCOORD
 96 1
Ni 8.867679789396302 8.714237857001764 12.366765396488281 -0.9200116735553445 0.29337881154232054 0.8323234289087408
Ni 4.585139539497815 7.859843157398884 6.540121189181739 -0.45691948454286474 -1.5989310036769107 -1.3336630914381935
Ni 0.19175667601947038 1.1621560155201416 2.046966531677004 4.303832316593594 2.2867430083024165 4.9814444978679635
Ni 9.169541646664499 7.781236604734666 1.4105306923150005 0.1487069504218213 -0.48692991486202586 -0.4733406062133654
Ni 7.134163070631403 7.270476036853416 6.144438336761805 -0.6086482525101453 -2.0021350009741905 1.0086715380865985
Ni 6.655242777199464 1.9304204857639504 3.5923698635216903 -1.427566463756574 -2.63874734279743 0.5867979894042732
Ni 5.278829998432465 6.915005649487773 10.441459330651268 0.18219274088409268 -0.08924864715518822 0.5183588227952686
Ni 2.977695745597294 0.5884719337029906 9.566004870513328 -0.22704177887798319 -0.6803930864536153 0.6498033865922164
Ni 7.737028003212551 2.81179214026525 1.3456497155963314 0.02052743052939045 -2.1542766881091735 -2.6239089922330163
Ni 1.484740654751829 2.752573523699308 9.456708064452908 -0.4985034786322382 -0.13649189641286816 -0.07525207576578008
Ni 0.7958864450673081 1.0415718275001482 5.101377642719685 -0.5326369299808376 0.4132480117968431 -0.2456820196869898
Ni 3.1243140952822324 2.213930546032045 11.333676841172108 -1.1057581932289666 0.39633092432653033 2.005092798050934
Ni 5.954084649088782 3.5576629375674296 13.334602392002928 0.9358689523025754 0.6438595103039556 0.11076029597471893
Ni 3.2584521028567264 5.666411363255049 7.868051059281991 -1.3343544610782632 0.9466310759150858 1.0032236275981496
Ni 3.5553759638822697 3.593666437582379 1.4695374137680726 0.7833300297291735 -0.033602261435477614 0.5650441426669495
Ni 6.051285698001322 8.284902886898685 4.352161329626643 -0.5990865769636392 1.7204045723040757 0.44557706294685195
Ni 1.5645980420030323 8.433910890719954 13.456509290925725 2.417980341184565 -1.4175085652999393 0.012381404383488354
Ni 3.9431346858477854 2.934271249338662 9.406335835484624 1.1258040561362483 0.023383411920946826 0.2535665646413891
Ni 1.0698929628502534 0.8965814296955846 11.275544770471278 -0.21260632017894351 -0.4496463479202192 -1.2564878305077716
Ni 7.22163748044216 9.144534289511258 10.68815658225746 -0.06746394717992898 -1.333204149523904 0.7527123048433165
Ni 3.353188820941175 0.8683517732928858 1.4875989051289555 -0.8788012607553057 0.9964508276506904 -2.4068708615349643
Ni 7.799803097223578 2.328540598711212 11.197193052017694 0.723429239608483 1.0257691169988332 -1.2981358450658609
Ni 8.750540063783754 1.341240056947884 7.244443742105765 -0.6841286422366476 -1.1598701445820219 -0.12467459206296592
Ni 7.834667777689182 5.107316306631926 0.6064764840864062 -0.33334583885356145 0.10851649424586471 0.7619960441380876
P 5.367639254108437 7.892402195006387 2.2022501779820822 -2.185627177395997 2.5763839500688595 -2.674199770067769
P 2.900601395941223 9.07524365414414 11.68678837853677 0.2047037775024152 -0.3881239630357058 -0.306442072484182
P 9.250463176773286 1.1348523500952707 9.459030509566654 -0.8192560542018213 0.4481126848845121 -0.37921869012627596
P 9.129561612813312 7.15816229244588 10.984815341027254 -0.48129379962217106 -0.9711640280594435 -1.3499674850251717
P 5.6393503970784 6.5215248260161225 8.022446052955122 0.889782699467474 0.03875320950879778 2.0717849000618447
P 8.90587691723171 8.281411751558888 6.514135567366438 -1.5403874989150632 2.2652300739313054 1.029965414468368
P 8.644051101333522 3.617824347366846 12.913632144835653 -0.1565480437327949 -0.10739497904691182 0.18812993230413405
P 5.347345863122567 3.3045649600187303 2.6889079101390383 -0.07725059425304759 0.43585623611466223 -0.8495521340822013
Ni 2.3897008092629224 7.0841763600843315 3.0836339674457927 0.5519343447578687 0.12687031416270408 0.5100521027017861
Ni 6.915351029187165 7.510206886577016 0.44028910732567295 0.03178037773539043 0.44870403861160796 1.0003506769257289
Ni 6.89369478857667 1.3844498577177051 9.087653986856061 0.11715282976462403 0.7680756746732642 -1.3504943040629194
Ni 1.2134589027594886 5.815064652790458 1.7972094026259322 -1.5664641413974572 -1.9399130189194913 -1.5711065252654748
Ni 7.214580533070809 1.128523500468583 12.919656686943418 -0.6795163402756168 -0.9167895670736211 0.7863801294094069
Ni 0.8316089740295092 4.515830234957758 11.498196127330646 0.05824294280229324 -0.01567215931961817 -2.087124615742709
Ni 2.946751591449107 9.267788169261681 5.465459186103942 -0.8790419160112021 0.053854326816294346 0.2207675158334972
Ni 4.621927144776248 1.7368398315482343 13.086335062952474 -1.6039734511968247 -0.14801198123732573 -1.708349698022071
Ni 6.610287408759745 0.12445990832235464 6.508834455710101 0.15423662199079888 1.8671919371056813 -0.5745315133320944
Ni 5.603850964732833 8.597966247930929 8.519541719702877 0.40274222716951286 0.15111376009110103 1.9712257129898438
Ni 5.071630182556958 5.113710498363904 6.64863855727191 0.28846800450426446 -1.142239318874136 -1.0505946606829457
Ni 7.644662270091492 3.834442760990624 3.171891549061386 -0.44280181419456005 2.788237451242179 1.9230810349638172
Ni 0.47033527425544186 3.1039273584316627 6.438269649289824 0.3146518619884839 0.7107891822469694 -1.6658473058834862
Ni 0.8591292018604849 5.609199682780167 4.783774872287059 1.102564111771701 0.18781934304225073 2.3176103873052343
Ni 4.03455762573537 4.752275310243905 12.095230677202604 1.2992943841503364 -1.6199297174157652 -1.3674278465934644
Ni 5.729009100123146 1.1280567711450806 1.1205610982096377 1.9830921254101268 -0.2671335046925464 3.1721895422883817
Ni 8.344700247825768 3.3130407645335276 8.733681800618859 0.42305471347461976 -0.6473909204959819 0.10964469431303699
Ni 1.9371787263682603 1.0296608951643755 7.5621837309595 -1.6772316364610276 0.33224489247989875 -0.9034583971823537
Ni 7.160243905228699 4.146619336308215 6.034212739347617 -0.1827804950667626 -1.5366889670175534 -1.4201056366031544
Ni 5.823372434748793 4.291856167195588 9.304771800855987 1.205615983358569 0.6650903946582739 -0.2670525149429659
Ni 3.0678118433790726 7.3939912850250025 9.876695379664888 -0.4994941246802817 -0.12173582114961615 -0.09890648195992643
Ni 0.7804787766398581 1.2099490982467531 13.453367269119909 -0.7678584164561356 1.2728189635676272 0.3626785263794077
Ni 3.8898341971038497 8.945688928526438 3.2996867051294863 0.32704020835050773 -0.4189270644594914 0.16700369184848013
Ni 0.6448957750798021 3.1561637043180135 3.6704079398698823 -0.9045670568655002 0.4684287707340449 0.5150541839020678
P 6.0700948897384555 5.845346051299271 4.854284604647163 -0.03505442050097189 -0.7339414519937166 -0.29107793132328585
P 2.5294115649600304 4.677570614724165 9.79260475744952 0.7198021843788571 0.42549083371993823 0.9882788333628594
P 8.01464793941805 1.8897030195816304 5.186792842755151 1.2657566574042072 0.7749415485551622 0.8930472291513588
P 4.814266298991449 0.8346147108728625 4.752337851973254 1.1470367402627795 -1.0475162788679377 0.7420252574431156
P 5.601489314355913 2.5339108356385904 7.794630802860528 -0.07928022308856668 1.5863835060292033 -0.42422970761932743
P 2.5678327228707207 2.5072139183342723 13.620277142873423 0.7205822570779913 -2.6322607066318215 -0.9203137781767957
P 5.89711566786212 8.4486968756885 12.485256770221692 1.5136433980519997 -0.28389761152476267 -2.728622053572391
P 2.5302330085693945 2.7070207417255063 5.33819703492328 -0.8146535224328034 -0.14652562649978637 -0.5662741584193086
Ni 5.032219558480444 5.690055870783664 0.6505954735784094 0.1818798376293642 0.6636626610728119 -1.2085210728205058
Ni 2.4884794032889 1.7304269706433157 3.2714197103809073 -0.3454459645512051 0.9039250524061272 2.103145930871629
Ni 8.212065108672952 8.762273638976597 8.40465723018149 -2.0230385838960774 0.20272582784043794 0.10134465908777385
Ni 4.530308178572793 5.367303208995517 2.8580590181040098 0.4537128046801089 0.3607491705671787 1.341532466883941
Ni 8.197195112426176 4.675115618482543 10.596592690114177 -2.0976715380206197 0.42079805622995914 -0.04753275547364072
Ni 4.33977059954631 8.685039270523474 0.1400944072010268 -0.5876148288786138 -1.348644138228058 0.2794948544713767
Ni 2.548463455945385 4.558022565802346 3.564540660878556 0.15489713839293323 -1.0367783236251435 0.525056032309786
Ni 7.164136427786706 6.239312273267364 12.057851259141971 -1.0364921598432923 0.5769812604241675 -0.34241309126215225
Ni -0.05439730265416567 6.431875457557846 13.015852400893133 1.6671963637122127 -0.463166493893841 0.3492936204320694
Ni 7.431189612108117 6.89615911940476 9.407620274582902 0.36549491278228025 -1.2000217771002428 0.4946072289016256
Ni 5.094611934446199 0.8375560390695725 10.501559132179981 -0.1306143545861686 0.12989444570100855 1.0570643275676892
Ni 2.962116320778795 3.2512644712747942 7.4833802185207645 -0.6034096298190252 0.33506384998593264 -2.266149500421781
Ni 1.0276352899003764 6.981514578086817 7.171501416511568 1.4291458924285516 -0.5864449769402287 -0.106423616272578
Ni 4.872206077210995 2.759387771822438 5.5497682376427075 0.022690756729296404 0.7586800923909773 0.6423469303141711
Ni 0.8791742928462516 8.272254522231778 9.10239516580955 1.6550430161791305 0.47314083149773345 1.5177234816586442
Ni 8.205390879346872 5.310278220250034 7.601366591126146 0.70150467162125 1.3226621123419997 0.46154001403401157
Ni 0.6020042837086094 5.73209884824473 9.31008598093338 0.34602369143154604 0.146740827834386 0.24391618603581863
Ni 8.532026729106558 8.62089199230135 3.375785054409204 -1.246129370091583 0.9144478063143218 0.30077870355081743
Ni 3.5148825277752307 6.868948799844589 12.266239367875114 -0.2500289838017758 1.6257293548166776 0.6759867298558035
Ni 6.557901709489873 6.616728273424074 2.922093347829846 4.788554168060707 -4.118825503299474 -0.1460826254250968
Ni 4.31947720856044 0.8508988969698495 7.322303527852379 0.34078943961580016 1.079857671313121 -0.3924580716346854
Ni 2.0525075422056207 4.393677836410799 13.148825452076165 1.2247491046435939 2.7560433830081372 1.8438337219957146
Ni 0.9563657222016112 3.248902820897874 1.15386223544151 -1.2992902703852784 0.7106359444985567 1.1388655173058968
Ni 0.6468420363588058 8.009495247686585 4.946285355437244 3.008237749892348 -0.9570471290420873 -2.3406279312463303
P 3.135478260700402 6.361156630460813 4.905285051284881 0.24420183559703748 -0.5597497270372295 1.1594574825246353
P 8.814621999900588 5.541243893278265 3.3360691893551193 -0.4899375913400982 0.9245010767852659 -2.094378983312277
P 1.0700516508202442 4.858792276453546 7.240536284209406 0.3119473185731273 0.8156074017056405 0.4129924441426113
P 3.0300441065212858 6.729098025350431 0.9226594639169391 0.09774228644849618 -0.41759240480846793 -1.2829154285716808
P 5.537864772976111 2.931368192946479 11.268345003926935 -0.25739442302791155 0.3263598944540315 -0.4792875678254197
P 1.7355703277883086 9.042264560145485 2.711450936464188 -0.9803485227721891 0.757931644260727 0.19894399220050255
P 2.9875717380825977 8.469074277952599 7.896413266812565 -0.6420882773361458 -0.9725189994254413 0.11550218153507849
P 8.223798683865793 0.3932782629452509 1.0144007132031518 -5.087202969752716 -2.5262137569723717 -3.3207473687268485
