# total energy = -340887.0316928715 ev
CRYSTAL
PRIMVEC
9.12426233383434 0.00000000000000 0.00000000000000
0.00000000000000 9.12426233383434 0.00000000000000
0.00000000000000 0.00000000000000 13.35428022014256
PRIMCOORD
 96 1
Ni 6.669799275460777 2.32255360654602 11.283044564452128 0.04012900681040185 -0.276114368034918 -0.057253582305830435
Ni 4.795922145354448 0.7450361670353661 6.282174150782294 -0.14113505161183434 -0.15745332915588367 -1.299183569604085
Ni 2.8049716051289977 1.5571831084537238 4.562436834136051 -0.14660275959462493 0.7447436848155432 0.8697383792220892
Ni 3.5788915370364 4.37251075134168 4.829842503039652 0.7662525054215965 0.14580983137968437 -0.9710352157910631
Ni 3.841980517425671 2.7965316624620047 2.7014641482609956 0.7663833745725059 0.18546498387746124 0.32715462244118493
Ni 5.738850788635593 4.562386650693166 2.837009627492903 -2.1536408542973877 1.49853251055249 -1.021447606805344
Ni 5.601603634476772 3.0763180429384085 0.17954267224838366 0.8424546038054717 -0.7719053328319996 -0.5531990704029054
Ni 5.837374573412014 8.060035755830208 12.249467270839476 -0.6601513054854437 0.6182788336213739 0.08296641369090228
Ni 2.319706836695099 6.507980482813079 0.26365924678569014 -0.16106752886970324 1.7215299441577707 0.5040948566770866
Ni 0.4241367728690123 -0.10378757172192296 0.40455884316029134 0.5607054060822795 2.1097600937540375 -0.6149327999672765
Ni 8.317120971597987 0.002195297519652451 6.982285187320932 -0.5001703248117 0.6317827816450797 -0.5836285905373562
Ni 8.961357762828662 2.555258793334117 1.2435274661612354 -0.5874981007950915 0.30842079347710755 0.006549113972427431
Ni 6.893024353674814 1.0267532414234843 4.866566746542766 0.3667611810892135 0.29207937600460665 0.39650884466529135
Ni 0.6814473579166551 7.991886640392618 2.527458078402159 1.31452122840242 -1.814542172120449 0.05860366857582165
Ni 7.962570385485539 4.004602245159527 3.422034518250659 0.6922623270873755 -0.4212999355670422 0.6403316996563553
Ni 8.112974725942525 4.047458905383166 12.549004029582878 0.332463436248608 -0.13356032458836997 -0.4072861377864534
Ni 8.676324931505208 7.469741603569545 9.364462198571527 0.4420518234024129 -1.5169704055427036 -2.240544141148851
Ni 7.051604033190856 0.910580395997587 0.46349792818916485 0.5475351872489086 -0.5316593965589167 -0.7452247382170198
Ni 2.2083269662778195 6.661195096071616 9.231694144796736 -0.3652102916623259 1.474405021376667 -0.7751585496619747
Ni 0.6561950494570121 5.0507171712742105 0.9766811145392419 -1.2809804163324972 -0.930761455872681 1.9147768859734957
Ni 6.539039471827613 2.2151427902478127 6.96853036183932 0.45493047913729395 1.9764332253327122 -0.6520613293884576
Ni 3.9499752865138107 4.457056166209093 0.6011620611370464 -0.4701267272617581 1.0973414299201811 -0.9542402557209113
Ni 6.489960064686256 6.112042242714166 4.641707512943152 -0.580353005109878 -0.5206967268998258 0.6925790869968459
Ni 5.30902503819591 3.619859474955101 8.98825882549363 1.2798257339027634 -0.7980894474265352 0.27956118893293785
P 0.4468872085942884 5.982824439416918 12.499285924077531 -0.3737728365203563 0.3570971756368882 -1.5577771551464203
P 4.243566675914712 6.438937189665905 12.624148716958612 1.3852437917289626 0.8200736650071102 -0.07613165015725597
P 2.39032862722756 8.89923066053725 1.1471716061174375 1.5909469570301698 -0.42120094809533265 0.31484186651210294
P 6.687837942112286 8.12802063454563 5.667770047707294 0.576355968135343 0.10534966648210889 -0.6064867260824524
P 5.056839551306159 1.179192292382892 12.510263324102029 0.0023011373293508755 -0.36913019554202237 -0.6288851483823105
P 4.2799451098750385 6.460954034698829 8.23981748375197 -0.7641724829641162 -0.7816971221114408 -0.49912748536948237
P 4.862529260456123 1.2540568649047057 4.038735198157315 -0.15918342447311296 0.34280749848709346 -1.1692533855691347
P 0.6095983540991023 5.806370329971537 3.031969565821739 0.08871282925637625 0.442664003065115 1.95299504891443
Ni 0.6345577737375449 0.35357337761554514 4.796149339486781 -0.9919053743718529 -0.4686691688796252 -0.10366636524241502
Ni 2.3327819046321814 6.624451691617582 4.595808823654458 -1.038064646536735 -0.03856063388201746 -0.42892891286720963
Ni 6.395797677309642 5.841206763595946 8.908145977272298 -0.9437614676767746 1.0520817867514332 0.8024700929927341
Ni 9.03978992192647 2.4382583773137374 10.132694065334494 -0.5776800862634051 0.19273246407315195 0.6052698229562157
Ni 2.755545476018618 5.68308329719704 6.776122479687736 -0.38910303911952343 -0.26242195814949 1.1592492231685712
Ni 0.9296984628842361 0.12609091859240695 8.828768544595789 -1.3806386888567834 1.230335597592436 0.08894191454804683
Ni 1.7638202777287406 1.2247132372105982 11.56682280970346 -1.0131465431388165 0.5285704732209477 -0.3653535021084095
Ni 4.566894036290458 7.010198130679705 1.3694149137034002 -0.5862701419252614 -0.5639663362217384 0.8573590317211299
Ni 5.8698113260402955 7.895233329396448 7.723715445878465 -1.1540216562210448 0.9426430378016152 -0.8616409469259354
Ni 5.747217737203844 3.215901008256959 4.667361288945874 0.024360431122235463 0.10352032658285398 1.4147790821839183
Ni 1.1761721615474598 7.723149741613218 7.068087013112935 -0.5035197008999069 -0.9191313278329203 -0.9024124724163426
Ni 5.23772805225009 5.101320330226797 6.59408979624603 0.14025264900688103 0.2699807443333544 0.6672709472493604
Ni 0.8441995626020111 7.722766522594825 11.278731525642735 0.9462032443490478 0.5094887739991484 0.691413605933835
Ni 4.755383047765854 0.6253805906732621 10.106519293952005 0.3747922789238062 -0.33997542835493705 0.6841836638442991
Ni 8.597774156996946 7.27911751470596 4.5888908079462265 0.6216186966278843 0.031216020591488175 0.5952417492962523
Ni 7.825815941493224 6.691870866067758 6.972816940287918 -0.18939440083885448 -1.2711492891746883 -0.635334246441764
Ni 2.883066166520125 5.240583946363353 2.4656412010303996 -1.441049585844673 0.5701531817587406 0.7664144849207575
Ni 2.9201562929431812 5.185738005421413 11.646481269660125 -3.241256058068741 -0.5441536723711854 -0.6392052993613958
Ni 1.2071946535126235 3.5112898773393715 3.6683941636345994 0.4030481884457058 0.1338364610678921 -0.08856216261112489
Ni 1.3267681115136434 1.1231510730740584 2.6034038760115825 1.3300380930910964 0.9148504410693793 -0.7105809228909052
Ni 1.4765611263936693 3.688364436624056 8.196697132346628 -1.6240414255912934 0.2362663828000447 -0.5397545148622251
Ni 3.7544970900839103 3.194942577655788 7.05948648342871 -0.03767823127706414 0.3481245398246327 -0.2801977940756723
Ni 4.585197306549904 7.546987608562803 5.491920876855233 -1.1229794422032595 -0.5728569538431488 0.8326468736864305
Ni 8.041039041632716 7.602280638359535 13.075402797510113 0.2418744730154415 -0.19598208135870118 0.9537458325829962
P 0.38023538460713463 5.838013271776004 7.947800029605184 1.7140503479512739 -0.5371373889543524 0.9567193133890234
P 8.681188163333864 1.9372998776504033 8.04658111857967 1.5779621147347276 0.6504230224540862 -1.7077210632991364
P 1.8729282068226891 3.265071658021743 10.543204664820927 1.0409892763826976 0.8692048753161223 0.24766254045212832
P 4.367455910003827 6.264098074655181 3.6421527851370077 0.6659501715554079 0.594299439987641 0.201536178407711
P 7.082298051711683 4.358751363728897 10.451847988114691 0.2667411543501341 -0.09150607573079723 -0.012546726316759037
P 6.651651117661157 7.996713375171904 9.630532987894393 -0.9754796247156621 0.389867942310006 1.9685697634242356
P 2.454764167891673 8.63658876900277 5.585026674652563 1.3876714273338486 0.036849821838497825 0.13170655920908284
P 7.18927090341744 4.105826811589386 1.287791087638118 0.7976443894693167 -0.20284666968901843 0.22000492663585983
Ni 3.2417956647855277 1.9990163881363932 0.4226632045006671 0.5454330533042412 -1.8439954443845599 -0.7469250087375781
Ni 1.6792931113860126 1.2757269879686066 6.782051425358019 0.007554672418806345 0.9172536511942331 0.5736565669263087
Ni 7.017680025800716 1.1203955458465644 8.901228873990302 -1.853843026602601 -1.0290917536141633 1.6195401952868302
Ni 2.748939510082507 1.7891401057297196 9.081284329782346 -0.16538261130528936 0.2618316328636588 0.4642072764535296
Ni 6.322411235287345 2.273483323667006 2.4334699644362905 0.7214831716257059 -1.2554807293994958 0.28837570190077433
Ni 4.330821996697906 7.31290465816096 10.424471551381668 0.2525556068783715 -0.6327726563621748 -0.6589606276114522
Ni 7.556184865004241 6.49281595879952 11.218062480473687 -0.6964272570983425 -1.789508883300905 -1.2562854846889784
Ni 7.893225991681056 4.175207702443241 8.34245904812365 0.9977914008389849 -1.2377763701411972 -0.7596116030663111
Ni 3.1673964296431913 8.59764641732415 12.310682859322851 0.8730057371194514 -0.20128446740822112 0.576164420949827
Ni 0.6183247986036559 5.289252761699289 10.336453442266626 -0.6000245153968763 -1.2694901563047105 0.30413116496281817
Ni 8.900051844148095 2.5498024844531852 5.724899791513612 -0.20791045736517097 0.9143171942737286 0.21812776421780497
Ni 3.995669592326028 2.7826810322257938 11.31524226140703 -0.7444544357098986 -0.5789756651463771 0.13087532155703913
Ni 1.579473681356928 3.3772362150004946 12.91922462384267 -1.0448940107537423 0.19416122609987851 -2.4025393240391466
Ni 3.3702835270953604 8.673295676407434 7.798712320204248 0.1512412868079008 -0.4730305311721144 0.45003972670389586
Ni 5.614395850281231 8.403308753687085 3.3950184898801727 0.4301746123488527 -0.7471929176869841 -0.06174967040397107
Ni 3.30538264905177 8.533338616332832 3.3937629913818177 -1.0352842555781203 0.08547889570011084 -1.0375265146450776
Ni 3.3344616731379393 4.639395424865514 9.383785561360886 0.11933338235571062 -0.14918594694076887 -0.05579988057843939
Ni 5.076009626488162 4.847401233491934 11.335353048036565 2.8153895861769387 0.3421369547826301 -0.32513733490084007
Ni 7.8194745791650515 8.963082248411432 3.1178507726961224 0.09548665764510006 -0.21519464973141003 -2.11566334661235
Ni 4.858989046667157 0.3568936966820519 1.1895747905026446 -0.8079845950530601 -0.1016555054599733 0.5791654125596799
Ni 6.5004894634297266 5.739881830280318 0.07465653934040019 -1.2020879156006523 0.5517230000780111 0.32965116361079355
Ni 7.981795206241597 0.06380870384116993 10.77076103036904 0.5374088974481842 0.9109832448044892 2.09385344982611
Ni 0.4502120897919665 5.267883739292698 5.581981908308806 -0.4517777924409252 -0.809679980477612 0.40476131448207064
Ni 7.561905777493109 6.236935145660977 2.5759069990156362 0.5480378379169399 0.8973258019220546 -1.7643059016727163
P 8.564160374526457 1.8019505700588634 3.441838729665479 -0.2845370448809745 1.0747303773888846 0.48745544834819277
P 2.101262871948635 3.3571628378465648 1.585232915747637 -0.5235637640349756 -0.2837801121102919 0.8739555026272304
P 4.689040536272117 1.6854063671556183 8.177360083163753 1.6226666567309538 -0.9615761272606923 0.7371864412935756
P 8.642556036574893 1.6296206271923805 12.436801150702287 0.5271334836641051 0.20724711274955918 -0.28444448516716814
P 6.531201730475239 7.907195237327723 1.2757333749522464 1.0165771660869203 0.5210353411861672 0.4437166126993454
P 1.9785050463900145 3.5362082377972714 5.905329342061704 -1.6029912897892136 -0.6529869265265206 -0.2758289755840153
P 7.231881208557827 4.409099043335888 6.019975698397669 0.5241332633852006 -0.4689044248188828 -0.3598112321339416
P 2.5634706294425427 8.869604180710521 9.96982507009115 1.4067780662563127 -1.2002434061927458 2.332600432956163
