# total energy = -381166.72067757836 ev
CRYSTAL
PRIMVEC
9.26045823154229 0.00000000000000 0.00000000000000
0.00000000000000 9.26045823154229 0.00000000000000
0.00000000000000 0.00000000000000 13.55361668332322
PRIMCOORD
 96 1
Ni 0.25582942012118065 8.001035943846379 0.23219487852872145 0.5845552161166836 0.9766150238716859 0.2491638075880032
Ni 8.336459002783949 3.9782928720791717 3.263087307007028 -0.4008936039965483 0.8478665188496624 -0.5638781473833062
Ni 4.1500002892907455 3.663937355702078 2.4518767189753423 2.2274430849905187 0.38076418023652486 0.4822895878765371
Ni 8.18062401104431 5.041486085867369 6.068048630929319 -0.5344372164143699 0.2993738527834908 -1.6049430141989456
Ni 3.490081512172249 1.2529677850813041 4.061937961387959 0.5985972960320466 0.4934193792411115 0.009133329759835883
Ni 4.664168713723828 0.8519862378788436 13.276295816377221 -0.10945854644415987 -2.435331945089135 0.6078440114412951
Ni 7.00973166759531 1.971505263038397 13.054762503452842 0.17192478329918132 -0.4834303863491996 0.39435554576771437
Ni 8.029965615476675 8.799204102452935 4.058155990231169 -0.2199969562160598 -0.5845827269205094 0.015411963679696038
Ni 7.145888185514724 4.058562524349149 8.590648395745806 1.39258454836475 1.05014008964403 0.8167710829964384
Ni 6.791842344999521 2.7631170171909663 1.9296285447031334 -0.38037208700442876 0.7983861527313476 -1.991555168575815
Ni 1.4009128663763153 1.6064672585586741 10.467376572591043 -0.30852620870672026 0.7273373164136376 -0.7932526881595242
Ni 3.5085190845845156 1.1277200870019957 11.155196184426224 -1.005089477162295 -1.6558729682795934 -0.659180199821426
Ni 5.588936597316868 7.704886488424843 8.02948777583003 1.5096476466290452 0.9978906454210106 -0.4653611875523147
Ni 8.640377982692621 3.166595183942571 11.674638439843124 0.8855483496711521 1.6541562426988026 1.508271592217125
Ni 1.7026648990501976 2.5404029958373724 12.514732397213765 1.7028105133713962 -0.44260718168525065 1.420209252060554
Ni 5.79095349444072 5.932444036322698 9.407389329455345 0.40766666105432364 -0.3731254327443445 0.3994630421976088
Ni 3.4157015113609366 7.818734562375824 7.719462449739211 -3.3512005430103837 0.05396925512760383 0.6252840612946134
Ni 6.022881671771314 2.2227229749419437 3.9197741841898734 0.048158047762465454 0.053899578231932976 1.9715332169279336
Ni 4.479450352645235 8.10428079308011 3.336398650934174 -0.6153452049143466 1.3255857137466975 0.4625491720248163
Ni 6.4848951952371 6.564951856966905 13.149813699210744 0.2651121033871434 3.5763006247809632 0.23432777101643515
Ni 1.045783552243717 0.7694885193495035 3.5413427789166496 0.132336736593914 0.545074384413242 -0.04202082451647602
Ni 4.997221095344702 2.488405522660639 11.847528417575564 1.4457680743662649 3.38675272908338 -1.3346709638774175
Ni 8.889901030733062 3.0318647765964823 0.8303556594556534 0.15084148026632088 0.2843889493388844 -0.5130194128602262
Ni 2.792833827774072 3.686338404253194 6.290382973493911 -1.3789756993320639 0.8096000191692959 -0.5318843680855291
P 1.6147924105419125 4.50180509890501 12.079606614330105 -0.5468677288682388 2.42007064805469 0.3818435293436327
Ni -0.24263048895131462 1.1102548627079052 5.461890518241848 -0.382255934290703 0.25524318101286364 1.145996471923723
P 6.722472252111382 5.235798281711963 1.9060319709895743 2.343677002485299 -0.28992530577608133 0.5158797651271567
Ni 8.949760632979617 1.5770467826401557 7.9500098927419955 -1.2574661352606409 0.14222237113874217 -0.553991998617846
P 6.165640896436054 1.206656233281332 6.471024880842779 -1.349190240539515 1.3427565690990293 -0.12420973661140546
P 8.357248731596373 1.9508637015582653 3.4921438162286087 0.22100431443465163 -2.0003377998644516 0.1257236021527706
P 8.696385234299548 7.083880156949914 5.687530844408237 0.28804737202707814 0.5648423110687885 -0.6168457007192731
Ni 1.7993718647464796 8.232269586806847 5.545231864519434 -0.9600254949441208 0.3315051861003968 -0.377703281923014
Ni 5.895504068290287 4.443899453353075 4.855854643603519 1.5597612754559849 0.5921487121932254 0.3476637981381303
Ni 6.507148076455923 7.66070484202659 2.3181019909225458 0.8255879099571202 0.29899590061878184 -0.7689989578184822
Ni 0.7432851266334066 5.567257864510682 3.2027063409599656 1.003684369284652 -0.006888756700033297 0.16207771530177248
Ni 5.1818561122988775 1.0009999760580215 2.1134560496963113 0.09478346093048838 -1.2352579745947176 0.08189837743770412
Ni 5.1306365176166855 6.000258372221757 3.357772714663331 -0.6214996545515168 -1.942311601058655 -1.0495963013254181
Ni 7.686032195390502 5.138554209436117 10.828092721196931 -0.8521322361045518 -0.2250005800782383 -1.4891343571670417
Ni 8.591603148993272 6.60840192716196 12.215942785139925 0.561536129513691 0.2386073722283955 0.21985066044618268
Ni 4.954493340894578 5.450937248202054 11.79104980864278 2.0756914342051025 -2.70569449824194 -0.8730291341582191
Ni 3.2624594479364344 2.089576105959741 1.1806473101888704 0.9289495994749227 -0.4058943996452493 -1.1529392217901433
Ni 9.005545633588103 5.385252817704714 0.9770811383967242 -0.6677962236252112 0.48485220639739074 0.0023607869226927084
Ni 8.401958224115923 1.369029108558418 10.489943383345162 -1.3988292437228813 -2.1118465439694214 -1.4829156299508395
Ni 3.6144402062577967 6.792823953575966 5.244328089822932 -0.42664243082587816 -0.462512662359926 0.8367395556985654
Ni 7.632608611640444 8.835023555034876 12.47812395358736 -0.31940660306464996 -0.20491717906480192 0.1986691412725611
Ni 7.330217607346046 8.800139408738037 6.515521382822157 0.24446511656075315 -1.3971850232512388 -1.3184987249929292
Ni 0.7108466673652359 3.2610518582796466 4.8744764991353255 0.05148248415000811 0.27363633880807064 0.7044575836019867
Ni 8.295842632819006 0.32119899503739774 1.5892428061795603 -0.2520434431286433 0.8787518955746092 0.7874988163948825
Ni 4.995443087357179 5.385067608539347 0.8086611838704116 -2.190026077794641 0.24193515105004781 0.24777978275628296
Ni 0.1901875877318743 8.21824925298858 7.419506945969387 0.5508426543555869 1.062617910396067 -2.07377827634279
Ni 0.7652351908668547 4.351572684417718 10.02718254089712 -0.2945365792958476 -0.34350581010569875 0.25991821789102976
Ni 7.708887006396766 8.951529380508871 8.649280987271805 -0.09996706201395686 -0.23506516340309197 3.003840392155601
Ni 4.111032280897567 8.966197946405922 6.002855930766026 -0.7159028493244509 1.275935654819738 0.4706921128469248
Ni 3.9147105656087446 0.9898226029281342 8.405830947763741 -0.6982923353315393 -0.2992216434763427 0.45134353311698394
Ni 2.160075974756619 1.416479696725396 6.129690871392529 -0.2706019228571211 -0.43193453246275293 0.3966242871972331
Ni 5.760125428865415 0.026863663390629587 4.6870031517219015 1.8350413205150655 1.1578142904942574 -0.8694535009918187
P 5.115338240557387 7.816104592227615 11.826967422082369 1.4744777835961316 0.8320868874179025 -0.13313737811833845
Ni 3.87343670310675 8.226046558850522 10.12529709625019 0.12398759329827035 0.4037518993809498 -0.38667051841863087
P 2.742531018460445 6.966550150690038 3.0042676849110004 -1.303142297141517 -0.41603200229988346 -0.24018294424563152
Ni 1.254190165572725 5.605753589532174 5.735876918889764 0.04049641745214961 0.7966100346675313 0.10578701112984362
P 1.636258152807926 1.7517545883306715 8.285543151132957 3.135786063958683 1.6417334435544177 -0.30639784950980786
P 2.2446146982883013 -0.04806363050434199 13.20614228871958 0.14861207671516988 0.17982886863760641 0.6774247478539108
P 6.772108308429687 2.946751904652163 10.46367701951284 0.2845254749167487 -0.15442019875651472 0.8753212726265053
Ni 7.94561210111036 6.498971091804979 8.065269260533071 -0.9758465211367774 -0.4731549725651206 0.28954272562568195
Ni 3.075148158542707 3.6255527561798058 10.77665643179126 -0.34432779178636186 -0.8059084292503218 0.5875204693925945
Ni 7.194153694009316 4.4800985847240185 13.07802014439378 -0.33239041691882754 -1.4740918610116227 0.9915019682858472
Ni 0.4354619375188002 7.87216740658415 2.776932694881504 1.0686234931601983 -0.6917920723191763 -0.7123542127412441
Ni 0.9873315396539506 6.50426807393447 8.536189492761348 1.5203508919791622 -1.15802666361538 0.8810211512247602
Ni 3.4280920045239767 6.791842344999521 12.362185794205216 -3.5867459884840036 0.8546208068543604 0.8324365574478375
Ni 4.048996470957953 7.68888441653715 0.8828328243706866 1.1454418849718337 0.3958758390669827 -0.18217474316196366
Ni 1.3063728479148249 6.417340152169555 11.010171851669044 0.3452443900633602 1.0074677475864842 -0.1458918495705294
Ni 2.0036668346043442 3.1022535198941403 2.9121298293243174 -1.5697302137432387 -0.5659221743965286 -0.19203363823391445
Ni 7.463827499241665 2.9500856696287654 6.700013788719001 -0.26597727960091616 -0.6392448943500797 -1.7476652077922417
Ni 1.1592982496970377 1.4094787902745305 1.1366175353062176 0.0017959155581581973 -1.136850543758397 0.423191239052484
Ni 5.9341016583527315 6.995563166444748 5.350466832265518 0.5979694326400605 0.3731933098678024 0.5089812382351105
Ni 9.396957423216058 1.0667677506797772 12.636484272296775 -0.7858821067270659 -1.6267724513692112 0.10338688632878322
Ni 6.096502315004622 0.6133896045492183 10.758345727657268 -1.3479522543673559 0.7088382291681857 0.13028936714658207
Ni 0.2711517743719772 4.369612057124446 7.7264152018070815 0.5014774736588976 -1.2609389243005897 0.02916350893783365
Ni 4.734242601440362 2.890809476253116 7.248609818856293 1.0958080239947903 -0.16256416801988777 -1.0587900520095443
Ni 6.902523342222731 7.7587360532552445 10.525169240552104 0.5902694928926415 -1.9306688746134042 -0.5064062784190827
Ni 2.294417442855438 4.186162378828616 0.6923053778203642 -0.33874309860973273 0.759417227667318 -0.1383176367676973
Ni 1.85819429566698 6.564775908259807 0.9409449781420051 0.9375221716352822 -0.19421161972183973 0.7822375679959431
Ni 2.641184563171724 4.21699970486219 8.51770283992026 0.10514346400857376 -0.28158876088592794 -0.6090020363051383
Ni 7.490497619054486 6.071443514930492 3.8431957505856564 1.1944877346558913 0.9665604678491612 0.08169577450859479
Ni 2.894421054977769 -0.06922562973915419 2.130424913427219 -1.97126582219916 0.25452815722371 -0.4817979929520993
Ni 5.8838914536217874 5.272349310497103 7.044627852487899 0.5516216986134564 -0.34099538497901916 0.04994779267303656
Ni 2.907274571054226 4.935463099153137 4.0285280800474395 -0.23092722997531842 0.0072196576768907925 0.18680350018322667
Ni 3.5466721726500796 5.838718938188821 10.007489250343667 -0.9372347223018503 0.4162484891860638 -0.6616317466857121
P 4.054562006377226 5.859388281043758 7.741486597638806 -1.0760650370399079 -1.0375527398973228 0.6466650980735509
Ni 4.963355599457379 3.6656968427730625 9.49807607123138 0.016061938558869112 -0.0762972292008428 0.28321986873144767
P 4.228019650201516 3.287416382969613 4.815749450934989 -1.0773935260433447 -1.2839508118147307 -0.6274021360788808
Ni 1.5647581545180678 9.025112981909105 9.069077007538052 1.5664713404863086 -1.1745130913061772 0.0703114439310531
P 6.428461962549832 -0.19476318016226146 0.6849970241549896 -0.805680886620548 0.1904979183156784 -0.2836818959695308
P 9.282405554436684 8.517000897183518 10.42652591303191 -1.267295976866869 -0.7006675204319353 0.7052795652826499
P 4.803307099205647 3.439093428946765 0.14416588827570145 -0.13913961844836037 -1.1730344498781218 0.6153521468928821
Ni 6.512370974919268 1.7394937415833887 8.577691162536743 -0.590206757975506 -0.58028512798642 0.2698503894030772
