# total energy = -340892.15383397206 ev
CRYSTAL
PRIMVEC
9.08466012295254 0.00000000000000 0.00000000000000

0.00000000000000 9.08466012295254 0.00000000000000

0.00000000000000 0.00000000000000 13.29631838146111

PRIMCOORD
 96 1
Ni 6.490026816040195 2.061363931836517 11.634903424204225 -0.33018029664138615 -0.48655401957984595 -0.18363975774326435
Ni 4.58181208767516 0.2903593704326586 6.028431591928951 -0.26353678848022355 -0.7900982016909425 0.19316440940424798
Ni 2.68702448724528 1.7496056440484735 4.718929591101197 0.787279758405541 -0.8650656563367682 -0.2933767546597915
Ni 3.1802306953640804 4.338888271040481 4.797298413247757 -0.2420351669630219 1.0109737038572137 -0.436323662669384
Ni 5.02219099610321 4.826961646085287 2.6262626452415634 -0.05655398513564454 -0.8459405054715432 0.3547718699378213
Ni 7.1285421657847134 6.28188816372467 2.4954135574280154 0.7762646382419599 -0.3215025663617302 0.9709490838351599
Ni 5.236888773161078 4.5273949724305185 11.765566276481461 -0.17372661239461049 0.8657588257490508 -0.2897684684832429
Ni 5.693492884899133 8.209544065148727 12.371294178708544 -0.5485931961997778 0.16926471996851494 0.4885972752621198
Ni 1.5423572884431285 6.718678631331079 0.40380406602822905 1.6217734554927232 -0.1986406020274708 -0.5991824791115552
Ni 2.821977116119931 1.7846724328371744 0.44938725758941694 0.19903320948019917 -0.9673924768321533 -0.3418700742744887
Ni 0.8373531268367597 8.773855909497879 4.560025255324626 -0.1500423814037932 1.1717077606468982 1.441767952067936
Ni 8.659516374861976 2.3346850218616084 1.5454978555115877 0.8168520727460189 0.9839858624144602 -0.14544627739267854
Ni 7.14103357370815 0.6430140735290165 4.754191700086518 -1.6587963125739753 0.19955282942909505 0.656776732586256
Ni 0.8539008355876971 7.528503420502678 2.526234175988779 0.2568943434630414 -0.5498635782717691 0.050779030325080285
Ni 7.479191884351106 3.418975568257101 3.786326526333635 0.12092283833001753 1.3631819268329168 0.5348478215892273
Ni 7.750378079203828 4.053484582805811 12.478834753569975 0.1497572460632066 -0.7094527228237331 0.16019875311150475
Ni 8.356906340004041 8.844552736014375 6.743028246354488 -1.060413189435264 1.0071268193072977 0.10876409148029655
Ni 7.266919711595462 0.6912508943661577 0.3856729009856153 -0.5681101831867829 0.5801051507651299 -0.8191562953991633
Ni 1.907060976505925 6.2996214206457966 9.323764024928773 -0.1637846706905502 0.8019193626955867 -0.03506599046519767
Ni 8.80200018713192 5.131570306210971 1.0981619142197068 0.06212479435520268 -0.40621167377535206 1.200373761123023
Ni 6.290400490433224 2.0869463352637143 6.829387935707925 0.3514384346892141 -0.8725192844013361 1.1167414317133477
Ni 3.4247443275526512 4.525905088140014 0.42716799540822403 0.5145623318673138 0.31123203767365754 -0.060714030050605106
Ni 6.174643748789278 5.751943589320506 4.845391696452033 -0.862701784090282 -0.1060333228126948 -0.05487299788879582
Ni 5.502596917848104 2.78846380424389 9.337831621415638 -0.4596703078151245 -0.7578876783966689 -0.592088034158619
P 0.16318775311177028 5.7776986012935545 12.351761250580413 -0.1441283299122034 -0.19507422483245113 -0.6160265472520875
P 4.144739995599205 6.324976707565295 12.689820538426012 -0.5064463876283988 -0.0132352677433514 -0.5395531974846965
P 2.4906868086697873 8.584313556832736 1.373868636041667 -0.01940925776454722 0.037563302965754664 0.05124337155600853
P 6.428369226530114 7.888982741522276 5.810198973545258 -0.37444697976924546 -0.7567131984725936 0.8178373194774238
P 4.623447085866511 1.2062884496710014 12.521568995658589 0.9778607233533289 -1.352585125153677 0.008233186543069693
P 3.820017897551712 5.83405074918379 8.390614972076703 0.850802975770167 1.5933702217596817 -1.2211256489583937
P 4.86015699485055 1.0130577249208284 4.037227583184728 0.2310881810332149 1.0192935365768188 -1.9226593740453664
P 0.07663456049377328 5.631571840240121 3.460513360583157 0.07214978269137252 -0.44320984826625603 0.04091679281901985
Ni 1.5229524540253394 0.968706413297399 2.5932607997408605 -0.15496450129575895 1.5547944183690128 -0.2489241807733713
Ni 1.683887211380737 6.404585585843892 4.88953496935441 0.4073864108097436 -0.033605346759271154 -0.9517313732561287
Ni 6.213707788113479 5.657499460759021 9.337671731394218 -0.32029517631719034 0.7707133694064274 -1.0156435985290575
Ni 8.464423294748672 2.201703764273784 10.258894442194006 0.35734194465784264 0.4462036407872574 -0.3680392764706887
Ni 2.1590603687882495 5.067378096474972 7.009752964529974 1.0428006185598235 -0.26770583225624867 0.9662627341030844
Ni 0.5092942330581552 -0.16126089666045335 9.225079176935534 1.117612007243759 1.9430672482777567 -0.7626411339212543
Ni 1.4731866848583697 1.0742974200567434 11.504546724979368 0.785004589218119 0.17226519735773557 -1.5164147901495497
Ni 3.911582188795576 6.881648352595459 1.6783273992722696 0.7404895375248796 1.1603789658976402 -1.2055432211391044
Ni 5.651639854860391 7.919734316664699 7.940574527411144 -0.22447504659207146 -0.2950878238136273 -0.0796419773033596
Ni 5.000941975642907 3.003097988679601 4.981638889420567 1.051857843666085 -0.26291458151519237 -0.5427737613045233
Ni 0.6854539726236525 7.176790796680255 6.986776950145128 0.6816102466901681 -0.4622090150765782 0.411250264640524
Ni 5.14946708701764 4.537070135658489 7.219781226189553 0.6057521619092728 0.4870579557994579 -0.3009512245729397
Ni 8.477005549275189 7.118430938861961 9.577431360843637 -1.9789451931212885 -1.5631183648536757 -0.07779026880660152
Ni 4.484697068983136 0.19424184744244802 10.36127583846655 0.6693779662900343 0.9217471681892125 -0.2268952259977899
Ni 8.107250790081169 7.3092088053289865 4.608769908672982 0.5402481666691922 -0.6728970351868863 -0.08762113885409427
Ni 7.246379294639179 6.249092540012958 7.113078257008515 0.7265526157288132 -0.5379318598311896 -0.1657369093209146
Ni 2.2469907959089324 5.421570832561465 2.4397545691192764 -0.8376396989153315 -0.7573768001985214 1.095845304990629
Ni 2.459426492550119 5.061881876988659 11.286859186214155 -0.23561023727328456 0.28350808939582783 1.6724203311153134
Ni 0.9212481478486494 3.414478661404664 3.7795321088893163 0.2940048751620936 0.3007139117511531 -0.4214333758211129
Ni 3.930841668648438 2.39074646062199 2.5041093942747885 0.0521730824591295 0.4824749644144659 0.9225884331435853
Ni 0.8607315916732474 3.226553378274336 8.418816483070684 0.8289372860453273 -0.14181228018451705 -0.36905614777097734
Ni 3.6404050786031616 2.7911710330156603 7.235245134965751 -0.4672604614575565 -0.8844391757673735 -0.21564896366000924
Ni 3.909074822550581 6.740309207524317 6.093516823773221 0.9167859675291954 -0.5014815874239557 0.0013148621566816065
Ni 0.874162353472526 7.679835691912569 11.447624968887824 0.7794574341476447 -0.49814763795471634 -0.03561903475519027
P 0.07398547354797402 5.50781151286487 8.26822279454383 0.12872536509357183 -0.7062419291959191 -0.616983511848718
P 8.247136389503039 1.475694051103365 8.089360368536717 2.1170774533510572 1.1867129758064787 -1.1615303058932642
P 1.701529621698783 2.984719720876611 10.636137686879872 0.3102470480525689 1.7660025726488489 -1.2431240076063559
P 3.9188499170419386 6.413543060907534 3.7726177739289333 0.12411512001507011 -1.1806942804162246 1.3644623362072372
P 6.854385287011289 4.015528872039181 10.43461811806472 1.397696929890651 -0.577192090883393 0.42313904565831
P 6.291372549086174 7.944117544931246 10.169330593149953 0.8937573678445059 -2.55139951220938 1.0237263755371917
P 2.4283115309953778 8.299545794819622 6.052604056076353 -1.0810709748949319 0.9067314115066706 -0.5355983266020066
P 6.814158411167671 3.8866629655708596 1.4544840946823856 1.053472753561689 -0.0066069637935563625 1.1905580605841817
Ni 5.282693630433779 2.88834964432984 0.36818856375692777 -0.15194962572883508 0.07613653525326243 0.5544599393932
Ni 1.5901153476820402 1.157040506141585 7.062206884682067 -0.2810858531075804 -1.2892853366537664 -0.04780940617379508
Ni 6.755862145971533 0.6008158263985721 9.208804007993834 -0.5630888187127916 1.1593314984697325 0.04869437988190969
Ni 2.583232243226911 1.5240062746210619 9.259848897332166 0.8678936127038666 -0.3652599139533387 0.02209760322998775
Ni 6.50079213850512 1.7772139267243443 2.4952672943970575 -1.3610677087033916 -0.4911982032200766 -0.010958555894032738
Ni 4.37276496932884 6.700409379451784 10.448087943903325 -0.8185227755802226 0.533553785368152 0.27445472094430795
Ni 8.238287930363091 7.510624809016625 0.14900932376914713 0.05972852620888423 -0.35513259571134964 0.45734448789542526
Ni 7.630660425665615 3.8068178861242554 8.18240818480887 -0.442883832385405 0.2182051544229597 -0.12431592317196653
Ni 3.2089200526165977 8.596305308439234 12.508751448430097 -0.3106198580109554 -1.1604717827217628 -0.07797924488895604
Ni 0.12943369773756874 4.685531654411066 10.401803416566361 -0.5012201062324528 -0.045398739849773426 0.10874506531690303
Ni 8.735618574261702 2.267195080433821 5.906889738600901 -0.25228564104643647 0.29430029491532544 0.1383243216359166
Ni 3.7471225832406923 2.838611129143794 11.541550363345726 -1.072999767851023 -0.5359346268955029 -0.5393449381286325
Ni 1.2745596718852725 3.4376445451899453 12.989798747192733 -0.752413285545659 0.8712149637676156 -0.9031418943831994
Ni 3.2162150348438847 8.189721336356772 8.139647597205363 -0.1539507153192639 0.14478601810086034 -0.5299398427646486
Ni 5.748991074720421 8.054786876802737 3.5626422032991405 -0.9094338980394984 -0.05183112573867848 -0.1500513802648577
Ni 3.122842896198738 8.599266907699628 3.7916982859737285 1.1871055832592072 -1.1113729683125828 -0.2623970184488255
Ni 3.557689246499244 4.057327394116076 9.397638665620988 -0.7574256511585858 -0.49292572743414464 0.06827950110268885
Ni 7.056364539638023 6.327338719245363 11.625729734225255 0.6602785750919273 -0.18530403281956473 -1.0226501117538775
Ni 0.8067532655214796 0.28331603329590216 0.1684723000129069 -0.9764468737249378 -0.9706942875118766 1.7680062333424391
Ni 4.603115616097311 0.2748545806850742 1.3751850033202895 0.566922847746901 -0.26250809010539305 0.002070509375783531
Ni 6.042561872571942 5.738734493232742 0.48373181588363545 -0.31600503358226867 0.5657303701006966 -0.4340320384217299
Ni 7.987287850714642 8.979423602946254 11.331880945768312 -0.2594245660840629 0.4025370531372422 0.13023460264924666
Ni 9.161153147746557 4.78024832278179 6.0334572260113095 -1.4170473093928047 -0.3492653382972953 -0.6878503140626089
Ni 8.073265075869115 8.850921082890249 2.5137091548222035 -0.31348715225642143 0.12720172936019383 -0.16628892516964267
P 8.733701710936725 1.4816445036050743 3.725641903942536 0.8080691843470664 0.9189256395800173 -0.7248621154002678
P 2.0431582725793778 3.3597890063507836 1.7088691187615788 -0.6423312465848874 -0.34880073995605093 1.5336154702985523
P 4.665309200565562 0.9786177776933763 8.112150147385249 0.040980041956787484 0.6139799491357039 0.8281178754678253
P 8.810330820634313 1.9761316488272962 12.458504192266806 -1.9358421912842276 -1.0101954309302925 0.7811435636008159
P 6.363631937175637 7.933642931596176 1.2632656221904246 -0.13397812885207894 -0.15747081265738042 0.4403649226182932
P 1.7892329323117668 3.0531908056176573 6.04974511347744 -0.9138554241459618 1.869484846904916 0.5203696825777103
P 6.903669569181938 3.959976174256045 5.9522430882562976 0.40986623980880377 0.7407787866305242 -0.38234592290134795
P 2.5316767959792736 8.463305881530793 10.13543845093907 -1.8919323772751548 -0.31168300916814706 1.4203257230337603
