# total energy = -381165.7257014907 ev
CRYSTAL
PRIMVEC
9.26675391714701 0.00000000000000 0.00000000000000

0.00000000000000 9.26675391714701 0.00000000000000

0.00000000000000 0.00000000000000 13.56283105559297

PRIMCOORD
 96 1
Ni 6.503472746990436 2.7364631568415945 5.473578693157016 -1.2552326179444317 -0.7748818989618202 0.5451237495939385
Ni 3.1525311397302285 5.845922424493016 6.111465890576119 -0.7404419721163957 -3.246860034519079 1.5020371812716389
Ni 1.9993855524637252 8.470730463718958 11.186067275043069 -1.9589317261138393 1.8760887253746787 -0.9190796486593785
Ni 3.36890984305212 2.096065595793802 3.8910543577148737 -0.8101324946339983 2.5830014553853777 -0.2562839635725522
Ni 4.392571078219404 8.335889927871555 3.2793837337248055 0.12390454666616078 -4.38086051042319 -3.51468593729296
Ni 9.490453328483166 2.6201005282500316 8.86794894252078 -1.0595827231141688 -0.45058660034630144 0.21549084081559014
Ni 2.7912945396062896 6.547267425872631 10.610134814103588 0.44440335435372497 -0.8341571396833699 0.42874302210864873
Ni 4.526586872970633 6.61531319968388 1.0673650998613606 0.29249692315799947 0.5191787475934025 -0.8494202364900275
Ni 9.048957372921501 8.135626109563658 6.544079662534613 1.0220430742974977 -0.27026690811520554 0.3397597127997052
Ni 8.973201659874116 6.219048269857296 13.256284187537254 1.5352296088632076 1.1544145207840895 0.14953278875722634
Ni 2.1472180772643306 1.9698802080792752 0.8136080180504249 1.4732742502063336 -0.6653752728885444 -1.1260267136700157
Ni 4.7611747476855655 4.989804099649493 12.129483981578849 -2.5239298460342017 -0.12059605111821811 1.6519610348196967
Ni 2.8305670425903657 2.943723374336131 10.366776883507548 -0.8484452741712677 1.5798037959291567 2.4619174088871474
Ni 8.400191933111412 6.178237485727549 2.499914437003625 -1.2153946600118875 -0.8255380305557912 -1.4083436109712197
Ni 6.825946515594227 4.036023455563596 3.8012270788861477 -0.11450690750134473 1.747867810721351 -2.070287232470396
Ni 3.708258370488851 6.068676654490944 8.617198922347017 0.48784471336681146 1.07740843844168 -1.398852383651333
Ni 5.769332703595567 7.415571532080964 8.589449627824644 -0.698867748219035 0.40378840904584007 -0.7018438001282236
Ni 7.909155911256006 3.6093821064869416 7.124853075706016 0.0005535585106248532 0.6521441189102511 1.558670099274335
Ni 6.910505644836722 5.389729397262464 0.6453951214204475 -1.928065632662602 1.0268613216217477 0.9329216967487933
Ni 7.166091983865463 0.4437885504739491 4.979742258276177 -0.9020795145569561 -0.891016314764259 -0.1354274597040958
Ni 6.684257848622418 6.862883796598127 12.093840339417936 0.8037337901965061 -0.13724445830817653 2.1201712617850323
Ni 3.5060670673719194 7.743197615847365 5.480523198521873 0.7007220278189545 3.2623342188952784 -1.360544746320386
Ni 8.00746690327065 0.2540536179354025 8.720547321776042 1.1171574362048435 1.0638975484394386 -0.594781264720066
Ni 1.0738314407255154 0.6216444312014322 7.756732636578498 0.47622795506348947 -0.8594519096944166 -0.19790372386144628
P 5.612344625952049 7.760100174941974 5.183958347117985 1.790896507677051 -0.10588394171902409 -0.013321142588938349
Ni 2.9162289155457217 8.892534567265248 13.173536708680173 2.1543610202928636 0.7495596181469478 -0.14330377712837902
P 1.8892409157320762 7.746329778662046 6.978686713254758 0.13175489594851503 -0.10610737058373984 1.20389848644683
Ni 8.285877257129448 1.2783486990687336 6.733986030020118 0.8675087185606222 1.1635442509994993 -0.8674004751175318
P 4.622090038556731 7.54154378445603 12.29679522305537 -0.9332523406153347 0.33791571761243094 0.7182091288601243
P 3.1655231286834318 3.2513240029471313 12.633940116417156 0.08182304411507843 0.08235012026314203 -0.037226488451626204
P 1.3175100010061345 1.1599195843597927 9.97736101148076 0.629457990166645 -1.2805520705458269 0.14855988332099576
Ni 0.20699055495634938 4.089659427076534 2.978655329798324 -0.3425182493814488 1.464583150190239 0.5036243447985714
Ni 3.6725813680139354 6.040616923713269 3.2491120287936868 -2.2903027006292165 0.7242141974036237 -0.6396788965637048
Ni 8.003732401453146 6.330555119410715 7.8425576044023115 -0.4740846834682417 0.07307692249133221 0.3337356180928123
Ni 0.7510101688508657 7.183059410237299 8.990448015538028 1.1487668355800085 0.735435777151056 -0.7616859690968366
Ni 4.2785158713463485 0.5032051230632126 10.850414329057507 0.14686089835201804 -0.5035572390060618 -1.33429224038176
Ni 4.874497881001343 0.5831799891565284 4.479979734282947 1.5185858296589396 2.1817419834089784 4.102424436233631
Ni 8.254231292596502 1.422122385665699 10.966186665426301 1.518924701055597 -1.6366061496301814 -0.7444824607343565
Ni 8.462492319511114 2.323221533889285 4.164928635544717 -0.289526784786082 -0.5763325710965752 0.41945234083534216
Ni 1.657294065875676 4.884292839862638 11.807434630303204 0.2470724722766132 -0.866158632290631 0.5841813777170327
Ni 7.161125003780643 2.926199942730919 9.664697028544488 0.3507486077110411 -0.3171010948599248 -1.5150742169612552
Ni 4.382303514909739 1.2215064307099976 13.095835903991361 -0.06845767855176596 1.0218101323510855 0.16205560381458542
Ni 7.084470415605966 2.212882295325955 12.646200958488471 -3.511097705721069 1.969760441298227 -0.009124073788455254
Ni 0.09010991482235857 -0.027924436170885986 4.530975607612741 0.2806562217693296 0.0788081685481546 -1.025482696106666
Ni 8.857154100914798 3.902424664737399 10.981119112643984 0.6605302860914173 -0.8485969692577837 -0.705055879307618
Ni 5.995274696931514 1.8300726921470536 7.530992658477344 0.5836967247711302 0.7245924066786489 1.083608910825437
Ni 6.665205402625425 4.782840418279423 11.1251152013343 0.9961962884377231 -1.4168861012245921 -0.7099132073999194
Ni 5.554066010740426 8.774225920356871 1.1272014564018225 -0.6748983818876313 0.4472382526993588 -0.7353666144760174
Ni 5.950608943183697 6.191748412898569 3.4758824699273627 -0.5022158944868189 0.47578598243006454 -0.963508825507031
Ni 7.606559329745383 8.085224235158186 0.6121867821817182 1.1483369471314417 -0.5292209623207531 -0.4765704260045728
Ni 6.8725119538894095 8.310962359908563 7.019646692122128 -0.6339481647275146 1.1598873709732023 -2.2769887571291303
Ni 5.259568572129304 6.5514745321385055 10.412090383352247 -1.39266425256275 -0.6348416230760615 0.8651756995520713
Ni 5.1772519973280895 3.124990347170372 0.3545219102555431 0.6863050810626762 0.877433690983818 -0.006953805610013831
Ni 7.3046114210070305 8.353311425183982 10.39255977285455 -0.5071310724002492 -0.6800439306443127 0.1758025210870327
Ni 8.511105710415896 4.591454150197752 5.170869983924328 0.12269098597403384 -0.28489648510292226 -0.5997118692524639
Ni 2.1277578940961948 6.8615493840380255 13.118757219737258 0.7218636948935762 -2.495118578229464 0.2105149848675536
P 5.421857232997667 4.330817430299185 2.0641546020996153 0.31174857229875985 1.2020709463197878 0.9217625948081802
Ni 4.820463439071152 4.128070121948879 7.058612465552459 -1.079942003496811 -1.3617477654895516 -0.7126066950716824
P 5.839380096246966 0.3419849189183188 9.018333531342579 -1.1281779556850633 -0.4752753613422332 0.8739413615598433
Ni 1.0443075628332865 2.081859662081063 2.778657467327058 0.9641282042585847 -1.0570974947984697 0.7576963883214693
P 2.3940936676368576 3.93190220886018 2.795353377809929 -0.19109904223478702 -0.05393788766903614 0.8651379043356003
P 4.260417900999982 2.1487470916561127 6.11027233267514 -0.013141679588280594 1.9484835341973217 -1.397039241701994
P 7.371711985921541 1.25343039785963 1.2908115563748412 -1.3644728777301984 -1.6384419172873395 0.014521333544626605
Ni 5.719635102485704 2.1088444494075445 2.965594766866338 0.6100443615267235 0.13918512697431515 -1.2455876386555
Ni 1.3204660954969134 7.065733039241219 4.832368437793107 -0.020218126819087762 -0.8980552238889115 0.2574399315538663
Ni 5.13849843256183 2.917832063968621 10.554866040555304 -0.3382360770663272 -0.1909748579520969 0.8024222704739341
Ni 7.710245039015989 3.311891506369482 1.608633414526058 -0.4218604360562025 0.4587863625482744 0.005360235870648833
Ni 1.1365210307885816 4.711226944220683 9.378778750684345 0.8888936119943014 1.085144887853989 -0.8185965662409515
Ni 2.9623124826386453 8.52093773629275 8.914550521156132 -0.032413640444015145 -0.3720013464422303 -0.12174816244479032
Ni 8.934679763955097 1.9823532588146615 -0.004870605844367716 2.685873092640639 -1.1607144948601882 1.5735454737242707
Ni 0.49263917027830384 5.53417029013948 6.684712846238397 1.6452882507852118 0.6420553672156815 1.000778765602083
Ni 8.419281446123962 6.1061236069587705 10.162737789665034 -0.5628687322821855 0.0840377923782101 0.6638094710633213
Ni 6.272415505507436 4.9366963331082605 8.631413196138256 -0.05286239521667025 0.11885258606455015 0.786774022413716
Ni 4.216224751700534 4.349425072109479 4.492688160567129 1.1437547270773978 -1.684642584213118 0.9827800150318171
Ni 0.7073832182140719 8.645353174014364 -0.08839185865122887 -0.43004271475667877 1.0259012717013236 0.5881704442717678
Ni 3.3247259605065618 4.590990812503272 0.9658950714457555 -0.019619059782508146 -0.556247627421242 -0.6957819102048598
Ni 7.11073239612906 8.521160138386099 2.892965656581299 -0.19115149273927726 -0.29524260422393667 0.664926872497216
Ni 1.7383132951323483 4.224805765802293 5.010950832025534 -0.022795914848593 0.43567163090768196 -1.1748730457487573
Ni 0.8506110930069408 3.985380645556995 0.46213023644761164 -0.5121202980847246 0.44824483958700223 -0.28288382554826763
Ni 6.221587360423044 5.744052998984769 6.2961782425065085 0.2585856151225353 0.824392346987122 -0.9712308767416371
Ni 2.400923265253484 8.51192118475818 1.7966271240087508 -0.5313845456309751 -0.6854980117803484 -0.33719272340347733
Ni 4.249408997379151 0.3076265755218915 6.924571650565728 -0.11071118790433837 -2.347513859732886 1.0134149663088545
Ni 2.4117283002887446 0.1346913411097799 3.8784404523203655 -1.4782439355067831 -0.6541382665221445 1.2436587970639033
Ni 1.1250302559654919 2.2602632079634204 11.868371877205748 1.1723294533912971 -0.2116151599102678 0.3315769198785967
Ni 9.14289445710026 0.23417179746529035 2.0233845916869817 0.791794872667075 -0.39712076721767736 0.03170684418497765
Ni 7.817989586490234 6.769113513989381 4.6080527597647825 0.934730467822758 1.4845523942233143 1.899784526329722
Ni 1.6891253654864127 3.332500767019927 7.232827438676723 0.6283459880493888 0.7957623419552553 0.33928920092118986
Ni 3.048029956117339 1.730306819771744 8.616086911880265 1.1261943495961313 -0.9071952385169667 -1.7562182395685753
P 8.049380431113258 4.443890361259944 12.786317984000606 0.11049830056258389 -2.0005553151918964 0.6962753049015105
Ni 6.241992752487918 0.07520341451556652 12.335842543919929 0.29135843867818206 -0.9129503958331889 -0.05135778564668575
P 0.6131227243245667 7.520573120403891 2.9045073985507814 0.32728497737146217 2.1107137159165585 -0.060411925429154016
Ni 1.2648933724210512 1.9670816484046196 5.393679814445595 -0.1475401838072298 -1.0209693816173449 -0.09111321116775277
P 8.542696074425503 8.184341434761226 12.11291039224732 -1.0674544125527616 -0.16895078827252194 -0.8424929132425748
P 4.178342261799896 0.8402036017135439 1.9467272234861386 -1.752562902204175 1.087891854471507 0.09370848269875474
P 3.3890557660080853 4.077992583929542 8.652068790558149 -1.0370796569156462 -1.3405050540606913 0.03683310966794947
Ni 1.532767427107386 5.845292285228524 1.8663807605618505 0.026225252245116126 1.0238564733571527 -0.2051308377375048
