# total energy = -340887.7597829716 ev
CRYSTAL
PRIMVEC
9.09514522654535 0.00000000000000 0.00000000000000
0.00000000000000 9.09514522654535 0.00000000000000
0.00000000000000 0.00000000000000 13.31166439042298
PRIMCOORD
 96 1
Ni 6.549077700276916 1.960658689592571 11.63234538325336 -0.4700807045151711 1.1884944931869337 -1.3192543722120311
Ni 4.8845296602912756 0.5854399587848629 5.939718418538426 0.0675289960899095 0.14270908096717358 0.16444030199667808
Ni 2.7738829274923935 1.6746345562621423 4.789790077970098 1.0188358802141098 0.46948626546428174 -0.16451640665025216
Ni 3.66895437907323 4.695132351957747 4.686105420123274 -0.0961487167091312 0.5265099911474933 -0.517078156310632
Ni 3.9480207261534113 2.323618658074427 2.414177202043659 1.0793545064244572 1.0568336996141219 0.7104621379248538
Ni 5.2100085344760485 4.542624953468665 2.4175178489583207 -0.003998836746747951 0.8744005605844489 0.8767027263550643
Ni 5.551431198591127 2.928627731756064 0.7397236391754778 -0.8838668482036715 -0.8039186525138025 -2.6514521919586076
Ni 5.934682436516514 8.364614249465635 12.437261205807301 -0.4952044961659922 -1.0968223241919173 -0.5069624080328688
Ni 2.0456164430089894 6.57971924521428 0.2943425533362799 -0.73275643054668 0.5637177105460421 -2.485922770662809
Ni 0.6466330067198812 0.07741969688804613 0.6304945806774773 1.1492316910315692 1.061232857123082 -0.27114082607972656
Ni 8.102574014621354 0.3992432321264467 7.059841058033961 0.2895668939953981 -0.34238995133370065 -0.3557298629757164
Ni 8.990678584806517 2.5380549017634224 1.2977872102306092 -0.03277873709291774 0.27507075726175206 -1.0941933712095027
Ni 7.132549469591774 1.3182594730681017 4.925715207320028 -0.22446321951752957 -1.1291236074277844 -1.0179118257379438
Ni 0.7658348921765694 7.25317838336567 2.2549430339981296 0.34097224505056756 1.4203383214392507 0.41879208154352393
Ni 7.710800625432591 3.879843516046413 4.011111021424118 1.2089905562577565 0.3723474169277394 -0.21067773569766296
Ni 7.732010504564064 3.9050461640195304 12.660285085806732 0.7958016798336229 -0.04078489522684589 -1.5563512213331712
Ni 8.380176043288085 7.586433606888955 8.89468114387304 -0.4510059472719071 0.4724607747115734 0.16098422512727759
Ni 7.352179041318536 0.8819135046942577 0.17302058948098692 0.9899173974075468 0.23076987846184774 1.6028596493073557
Ni 2.3093210894660756 6.471405158346051 8.983776278943363 -1.7558986514456276 1.7798968141324378 -0.4621856180378105
Ni 0.25602925323279385 4.957736485818389 1.0853628127096595 -0.4055480720494241 0.2806009430513619 0.7779836778155956
Ni 6.486521290042666 2.455107175485964 6.949527858201281 0.5972055578908424 -0.6894384844853352 1.3035729569210321
Ni 3.6186127491449698 4.611557060645952 0.2847126133601206 1.2401258442099803 -0.3299085310372383 -0.3781825355522777
Ni 6.249374468227047 5.707340181469218 4.622967830096358 -0.6630944472741677 1.1058700362164826 -0.17088477207044117
Ni 5.355321672933828 3.1252920612842963 9.364622760418339 0.7248513167669903 -0.49006974604258824 0.43727497083905986
P 0.21709202615314177 5.7504238853482 12.432468973682784 1.1119715211285301 0.27479899165760413 -1.8080254540478538
P 4.151388177859987 6.387111350545668 12.32883797719397 0.36712936306190963 0.49010188483210443 0.6969052251760256
P 2.7105716201878556 8.423414364639294 1.3028450206015405 -1.7430415929773013 1.8446215080043327 0.11477738755391201
P 6.792081795746339 8.03703439668765 5.720035185453655 -0.2822197096017075 0.1703507539438421 -0.7386386003590698
P 4.751713251647667 1.0966562547840806 12.457188669433824 -0.29632092488978 0.9446438702817278 1.4959680922594234
P 4.264249837440796 6.491641856917032 8.174067314750365 0.6431010348713764 3.165495675207974 -1.662150059537557
P 5.012107265169994 1.1139916019644354 3.900796912076896 0.7044164459514062 1.3117048419995474 -1.4687527081868963
P 0.5039019800483042 5.576633846564245 3.5357641599526457 -0.19302865515733206 -0.4758242918671677 -0.029120057294407913
Ni 0.7961462833349997 0.06228537490058005 4.354604650152504 0.024928902031195778 -0.9110945735713728 -0.1459702682169486
Ni 2.2394885628916983 6.70114853178559 4.859875449587295 -0.8948184621191685 0.4826454285540591 -1.5445922810250303
Ni 6.238878670406413 6.032709913908888 9.064631212258492 -0.23270103404628956 -0.14626028865354165 0.8356139267345545
Ni 9.075827336276864 2.9662361580891 10.259872476849509 -0.4907603443517096 -0.28923265058443093 0.339653269128828
Ni 2.6463689886316515 5.303779483809447 6.746298652705169 -0.35211849147537416 -0.10543451288643133 0.8280715956109223
Ni 0.3903390847552151 0.567789010058255 9.4453585473284 -0.029724009426993974 0.14772016102851981 -1.4136172006653331
Ni 1.7907522779051588 1.4515397341283949 11.095551719289508 1.2088882263519374 -0.4268455479756197 1.147468171373243
Ni 4.285796236953 6.986135818537551 1.1082680269483822 0.9924255085413812 0.7250410641802932 1.0072486895971429
Ni 5.999612679706731 8.355055251623792 7.792049378544629 -0.45677267455235526 -0.539634187234277 0.8479649921007396
Ni 5.38074260439715 3.279845867494039 4.8612469975174095 0.6839121553504673 -1.5223046732714234 -0.8443109402879201
Ni 0.6497208085917229 7.818023294849801 6.584228618316074 0.3081004340232113 0.39767792527272805 -0.10690724077721589
Ni 5.173436954721481 5.088843007122068 6.928575371685341 0.3813953860626206 -0.7910091435409861 -0.9570779822800226
Ni 0.9725893760394744 7.601595214312696 10.772584014756625 -0.31774978418751726 0.08968753446481972 1.1361257497772304
Ni 4.611866295590407 0.683289171326903 10.368189292261365 0.49394054185190417 0.26045120757636436 -0.8129380824035936
Ni 8.56328860613283 7.168811814401886 4.523170437404248 -1.1652056978623222 0.2935582745429783 0.5112090991243647
Ni 7.3771179300743235 6.2689017454548654 6.931689549478916 0.3464769769188807 1.0727179749445461 -1.2572504197054089
Ni 2.5123884013736206 5.543218282272206 2.2852671583601554 0.3373421044971481 0.1800821222989931 1.5467103558092976
Ni 2.6535359632266773 5.501171424971693 11.135766814301395 -0.9524841922617532 -0.5517988476212691 0.7476400325267318
Ni 1.7310972190615348 3.7054168170826958 3.5438179112266246 -1.080665769036713 -0.4181217949493766 0.6783310617182641
Ni 1.8540362997734214 1.5250557945999623 2.5140273465792347 -0.7445217986127243 -1.1620697233365018 -0.6844418026016922
Ni 1.4135765971237775 3.6116640580401476 8.246109961663057 0.16334166961586064 -0.038343889885521065 -0.43705642707035053
Ni 4.0309411669945945 2.9969686544807157 6.886270212254752 -1.5940068269024161 -0.31925490797813405 0.32141874839867224
Ni 4.4461982216711196 7.313888479078613 5.747883611230953 0.44126558005569166 -0.5605693947250475 0.06748091646079346
Ni 8.392036112922494 7.42263913292725 0.15943880881759565 -0.4861434144049886 -0.34933861473739186 -0.43381092354985934
P 0.3931922318750878 6.109127325771081 7.759436006079091 1.655979926171103 -0.6989592794915769 0.3161955523265199
P 8.57645837670846 2.192448470752771 8.113366314182848 1.1136612501261272 0.40439750338474867 -0.0543826885159386
P 2.492297225129443 3.4527445820263285 10.236683494073521 -1.6733400147161053 -0.3120889863573141 -0.6394474972791891
P 4.138154741266379 6.517754019432665 3.4059227733776054 0.44495948396751106 -1.0067406396124727 1.3729210084975516
P 7.268994841260023 4.324741649663534 10.273929933618637 -0.5635349051112746 -0.1406056614709256 0.33827181540026907
P 6.598164200136504 8.01277764383875 10.20621293787015 -1.4801915461514572 1.2753869814051197 -1.2451448946911265
P 2.4888956407404326 8.756042023128243 5.69068333213758 0.23448537964022195 -0.2581744957270457 -0.5911490672841173
P 7.183000241265136 4.107276722547961 1.3824293621007748 0.14443172008523514 0.651162471723272 1.3422971129641075
Ni 2.9111468622489065 1.4363963169955036 0.32500137904995147 0.10944080583234701 0.23776045084706793 -0.2079677929656676
Ni 1.7226569241069865 1.3270090029671056 7.007793178823941 -1.5924790774039799 0.1772996744578495 -0.9110120411598955
Ni 6.936694608006381 1.2628609422834527 9.178965375883635 -0.20389696533040366 -1.040831667758911 0.7171444350410359
Ni 2.733518672095534 1.4985070651039205 8.948340682852399 1.7559613863627628 2.037758406604755 0.16215947638230138
Ni 6.730680468981084 2.242953813298684 2.6286407311689297 0.3595014142030067 -0.8800459317956845 0.14583708507319398
Ni 4.306906069484795 7.403148236281131 10.408057862232555 0.7332626807591371 -0.9524029454018564 -1.1870904137505556
Ni 7.59957609202831 6.454479092709828 11.163867175606969 0.025134847394414777 -1.0509983238792675 1.1895815556035256
Ni 8.191306253389213 4.5086454901602675 8.211646636618042 -1.2737183354534451 -2.40239894180654 -0.5517687657142819
Ni 3.1123223839080185 8.575194151494363 12.173130906544316 0.1871698823837099 -0.5266619433443253 0.2617249320824654
Ni 0.333281599445017 5.403680561159404 10.012887436227494 0.4115636821158847 -0.2616879081969429 0.6699009286730399
Ni 0.22610804381310276 2.1849813563587146 5.307640373042428 -0.9779720521202125 0.5801622292553105 -0.06806867064346342
Ni 3.902908804844618 3.0776425944018837 11.710843764388832 0.9424910856047833 -1.1617236528509927 0.5249027945613735
Ni 1.5774893079760093 3.4420395958609156 12.571376401217622 -1.0193449586400445 0.6647070431769261 -0.7520399613666403
Ni 3.311078596884038 8.657641644773438 7.626905185001831 1.041893790474838 -1.3043877395128438 1.3007624840554308
Ni 5.717863264726128 8.032277635630292 3.4268752598935466 0.37017149232234314 -0.2579929758438589 1.019738337423721
Ni 3.385240412680792 8.746473930140974 3.5324235130379846 -0.5056691431427421 -0.5641393714644929 -0.5587200002211345
Ni 3.794822096612018 4.728575201686059 9.026746293504532 0.10051676386983979 -2.307675901800342 0.46249106509337123
Ni 5.416868522025886 4.8564802318000835 11.39845917107266 0.34706293132933774 -0.3227197265982829 -0.9249420209774265
Ni 7.8324391003486795 8.700270591381162 2.578362767258646 1.9569584044375525 1.8371943623023261 0.9345638603379066
Ni 5.313111103015661 0.4280020819608023 1.4164679438544359 -1.0369418457862012 0.31564867868411445 0.05373425629866229
Ni 6.152565740321645 5.83238933591974 0.0924676149939732 0.6407888417984319 0.1398312451987463 0.888232838481851
Ni 8.068421743549878 0.05648721969204062 11.327441547049386 0.4830115536442262 -0.5803283225195296 0.08404267747421655
Ni 0.3913504649264929 4.972625238879376 5.668812235933697 -0.8010685846595171 0.0175205253822666 0.4869124313605292
Ni 7.577556744953998 6.141724326974854 2.366281256720225 -0.4900095822286141 -1.0577749804814687 0.5938402409630353
P 8.949141055649813 1.6376627901088672 3.219612357401375 -1.9747602085056635 -0.22238216861878476 0.785076580106635
P 2.0046610031594945 3.6883725145559465 1.3264078138545023 0.8242504220926192 -2.4418049544079885 0.6443225659833033
P 4.912970180035751 1.307863721847144 8.040178588461128 -0.3221322295259291 0.11809179663912564 1.0075657066169292
P 9.191190160849592 1.7417112537726964 12.293348719744994 -1.5265050845060162 0.06545848671412598 1.3039766201173542
P 6.56720432510926 7.765271451383874 1.3039318904798474 -1.3937153195350838 -0.7788401122786199 -1.724532221319204
P 1.8897893164397248 3.3614747976848487 5.8257571558757135 1.8961050205956054 0.8265567016282926 1.396113644563931
P 7.051293440363396 4.218137450135235 6.086172997747062 0.9741783894057351 1.5532728395181636 -0.892079980142083
P 2.484566351518057 8.692712525532853 9.75534656982504 -0.10159122788094116 -0.5132875789199483 1.0374804918984908
