# total energy = -340897.59531875787 ev
CRYSTAL
PRIMVEC
9.00994092599139 0.00000000000000 0.00000000000000

0.00000000000000 9.00994092599139 0.00000000000000

0.00000000000000 0.00000000000000 13.18695928398153

PRIMCOORD
 96 1
Ni 6.180332999688708 1.9028725126106953 11.269852262523914 1.1021105691740503 -0.09871159234030097 1.239235471185227
Ni 4.522648011927679 0.37346926303746464 6.096423419013115 -0.2825979188767327 -0.6524889038441795 -0.835704686676148
Ni 2.6402010355986936 1.5681532038918815 4.761494340290768 0.6215690743368715 -0.1551781599684618 0.5955716218318452
Ni 3.454744753087909 4.256899801681072 4.8411962785122125 -0.3933008792509549 0.6273229461015132 -0.20973722616126458
Ni 5.081030096410579 4.603917679885787 2.670715002835248 0.4193788072849294 -0.05185632254965908 -0.3231100200581661
Ni 7.3359119945484705 6.355819620843926 2.475442551210407 0.3461108518287136 -1.658566970171989 -0.07661398911031321
Ni 5.0719210460441 4.225085699956009 11.560598554117501 0.18496670408480403 0.892128059771199 -0.46422553128597466
Ni 5.525346327639639 7.83026943817657 12.326404797672593 -0.09125050807656543 0.027963832202777646 -0.357638649962655
Ni 1.995629855363325 6.498176688885843 0.14982540814950965 -0.9355151685075824 -0.48198979724793123 0.7703390167861442
Ni 2.743229711108778 1.7452165647247788 0.5301224044883772 -0.08788981913444864 -1.1868057926306013 -0.2829049085941902
Ni 0.4714712924551068 0.11631653651946551 4.906234537731236 0.8087487269125943 -0.2352338277704723 -0.3346074791748044
Ni 8.564426461927178 2.412934283428482 1.4004151320098317 0.522480815383442 0.10414073377567226 0.44827029350829894
Ni 6.929419495701688 0.5486675660801924 4.801187635433721 -1.1016575407970317 0.4127283918479473 -0.06119534056239783
Ni 0.8769132321795051 7.289537828142664 2.393143046994249 -0.34204748039261734 0.2840495637215947 -0.09197298806488677
Ni 7.692210111998956 4.041868549409654 3.6285366043381475 -0.37834400083080644 -0.1915070763064831 -0.22669416573057732
Ni 7.535374068745432 3.875094541216242 12.561053394516648 0.6078380979040242 -1.2596605718087983 0.2540149650327174
Ni 7.8640747368660175 8.898370915718676 6.981664539673072 0.3927882012805945 -0.04340150691408654 -0.5226014001217064
Ni 6.786900248721494 0.6170431074512881 0.37136454081628795 -0.045207706884889884 0.6512838277924848 -0.157683957109451
Ni 1.7551455197236518 6.518467076052325 9.259092013213577 0.26775108367188727 0.4647865459957673 -0.5970101540505848
Ni 0.044013561859795575 4.854754437752052 1.3008760066549772 0.05651079060253493 0.4006354652391552 0.6010290454019908
Ni 6.198415951306438 1.9989545235979749 6.858735607442469 0.8772418866879861 0.26354553023097194 0.5730937524443033
Ni 3.447888187975258 4.375858052906227 0.539642308165155 0.10242760773930747 -0.1384374501750132 -0.2599732394986813
Ni 6.077421453411823 5.623942112170191 4.741397666856116 -0.5333046454718234 -0.23337800550865614 -0.5256363302932883
Ni 5.171300695442983 2.868251652637237 9.322059787987284 -0.3721188458567011 0.3308986628646495 -0.7735102154252743
P 0.2686422033007241 5.536410535206442 12.253863059576018 0.32609969881410933 0.03489321233275926 1.0573759452708371
P 3.975203995837365 6.120912438692731 12.348229577793981 0.5699919735905281 0.23316408972563712 0.6354160075222928
P 2.4460368067187357 8.500023403549735 1.3848018052243987 -0.36976345825064705 -0.06489747200433339 -0.39561255810326706
P 6.3793175470118575 7.646061194118531 5.686863035250617 -0.59320569270283 0.14375654839508145 0.6849082007151495
P 4.549101198748632 1.0571363793264719 12.533664074824205 0.8419298416502532 -0.9159555012080999 -0.5490192279936029
P 4.09865820762916 6.1320757556107015 8.180978689215257 -0.59471724425135 -0.35021073292970006 -0.9929106757079157
P 4.647588863987 0.9479178743388686 3.9220786806287857 0.8096534981150507 -0.15002284101976743 -1.0992581873269196
P 0.3765677817526301 5.598705267386305 3.6397197431263515 -0.8612095158154717 -1.1731478355275344 -0.6305746202695914
Ni 1.4938392103975942 1.0734443725641853 2.689757513171109 -0.7680527918551289 0.5073673567807713 -0.6437695216933106
Ni 1.9410746625156152 6.519746487676499 4.808031586628952 0.41253555911085077 -0.48118658462034547 0.0615043871623844
Ni 5.965382836886428 5.746252061453042 9.163499242023429 0.9546220645403622 -0.933912857017469 0.020767314454338427
Ni 8.596961358933468 2.4251878032093055 10.21914177312956 -0.276114368034918 -9.487370665144951e-05 0.3109121924403936
Ni 2.392040230213975 5.152920415771748 6.984090916788494 -0.4785172653182985 0.627820454563222 0.30804309842271466
Ni 0.3116817905367645 9.101391916616686 9.512953408278682 0.11802983305293867 0.8453280686985248 -1.1619118576023988
Ni 1.3067387752736401 1.0974828951930358 11.57783367028569 0.5832745496320471 0.6368272860475226 -0.44779875318851914
Ni 4.020956476313116 6.708153364247673 1.4580030710032952 0.7870157061108769 1.0052540277646171 0.49027723406770396
Ni 5.8108983882379 7.955714846932749 7.960453174912701 -0.9261892631209662 -0.5122804778116726 -0.6316249159109767
Ni 5.24050605238159 2.8972636627065396 4.730663223130475 1.0614876534463653 -0.5291402296814887 -0.07447431705949109
Ni 0.779108520470098 7.369329865774261 6.854185587229737 -0.35252935376054767 -0.2973719918621137 0.35696090716934004
Ni 5.211304833550965 4.600538952005045 6.910349054548679 -1.0115874261818127 -0.24656519362289148 0.7715309802117164
Ni 8.122497865067176 7.290619021064501 8.781328177953377 -0.5423988944636078 -0.4777510765762353 0.865294998738755
Ni 4.630848393580551 0.1767597258206812 10.281912230195033 -0.87864956566879 0.6423235332754035 0.04593790018269508
Ni 8.222418110926979 7.185869446820492 4.596565568017292 0.060756967473398586 -0.2830779438369448 0.47106852234973706
Ni 7.280158479545725 5.988925812759436 6.7729807908469395 0.5034813914628039 0.37230833615968784 1.0526816251189612
Ni 2.4289990082587822 5.209061358238153 2.604543293036498 -0.9840660808330924 -0.26354321623812677 0.3749907680878574
Ni 2.4614257859728874 5.0068062023264455 11.342512931841892 -0.869646076618599 0.6458552005777458 0.26989024150207713
Ni 0.9858497260133291 3.2096022779433206 3.9010584882400643 0.2352554250370271 0.7963300415332673 -0.5708728335335845
Ni 3.841676669990452 2.5983768894056185 2.6459899227010313 -0.5007117991374667 -0.32407186975080315 0.3438156280366337
Ni 1.0931941632697477 3.247678288674026 8.25510257295412 -0.39172967810909315 0.6206666171272601 -0.7486329925676204
Ni 3.6228342126695563 2.753789361978723 7.076715813408199 0.2595523499111788 -0.14515677117671774 0.06048263076608939
Ni 4.189316234125222 6.813596703949861 6.05119261412215 0.09154849893295847 0.29792863569653205 -0.4702401129111708
Ni 0.8965287747639393 7.613246988940768 11.460126899867562 0.08588872954401983 -0.9139780657667549 -0.11422665725676456
P 0.1758677416601654 5.558043403584204 8.037965697467424 0.7264364018659231 -0.1557106354331641 -1.1015300140802318
P 8.515925949441758 1.6620818389765015 7.990677923042664 -0.08314227714713424 0.09683571547382677 0.6909433511656358
P 1.7052935160859344 3.1649670301534685 10.431386250644946 -0.8392175849254129 -0.22628664587951353 -0.384477367422054
P 4.023929756848169 6.124840772975406 3.80438542512218 -0.29936691080495537 0.6398642731016335 0.10661130680335187
P 6.8845499894454365 3.874544934814308 10.339380336972992 -0.29463890920166674 0.6666448836295874 -0.40142042303429576
P 6.395526430898403 7.8253590203232255 10.162292649299353 0.013858503149647101 -0.9241100119944343 0.23273342994612176
P 2.4354861657898064 8.384705168494765 5.863568701425206 0.14297647569594732 0.4725070545684765 -0.2559201524752302
P 6.738787163699732 3.8217556904055994 1.507348715955952 1.0100619906762218 0.7878204614003593 -0.025042544790924614
Ni 5.136224995070376 2.680646660816426 0.5540618177660592 0.4625831105865453 0.491173006409096 -0.12498081044947508
Ni 1.5787669144079182 1.0071582365145402 7.0303506569434076 -0.5926737314587599 0.3175885760193047 0.10853911995368405
Ni 6.763789750017221 0.8368505294549236 9.103353380775717 0.4365499197475772 0.2841074135427236 0.3660366442183632
Ni 2.6190276742127123 1.5952100567608614 9.104791367361761 0.7835840547215085 -0.837192326965268 0.9804737354961437
Ni 6.486040298338219 1.8598680641446146 2.5989120799019285 -1.0227028193686838 0.1690690590179411 0.4127667012850504
Ni 4.049193631455101 6.80731677506219 10.20943626466787 -0.22236134268317834 0.6033556366526384 1.0365767491372986
Ni 8.160249517921331 7.067749120109761 0.14895865182383672 -0.3019475270479381 0.1819230321624738 0.45582470881678916
Ni 7.658305703958339 3.984114827501508 8.197119097550086 -0.3579219855310287 -0.9969673622757927 -0.16476297544341945
Ni 3.075885743335086 8.444774445243846 12.427443177212396 0.3409447342467419 0.08591958278195526 -0.5795420791728084
Ni 0.1434202410817249 4.9980034899544865 10.186847441548382 -0.19402907139738843 -1.356567763950509 -0.3905315440359338
Ni 8.65808479878134 2.2148146904428025 5.828425426494984 -0.17445706280273182 0.735285881836753 0.24421931909853423
Ni 3.4805852639198225 2.6082247549353537 11.386992307652179 0.3108664268041227 -0.710710249379918 0.21096749902393988
Ni 1.2318661654364036 3.4127133782514822 12.819597255927413 -0.825031780343334 0.047929733801743264 -0.5010576125126597
Ni 3.25011097274816 8.262746606911511 8.037333199608149 0.0035676627466003073 -0.2916705706019622 -0.0012341295174172293
Ni 5.553313184551166 7.703337389152865 3.510276623541679 -0.4194230302593035 1.0104916220144726 0.14044291064081618
Ni 2.939529296009365 8.36591944147784 3.533986283323471 1.2808626598077102 -0.4353222179880632 0.4774911380466293
Ni 3.2173328073344574 4.361099769523148 9.201728421751394 0.6322895460781691 -0.3601387906766894 -0.4612361096403476
Ni 7.221756041884477 5.884635745507207 11.333348019841116 -0.5317918083717228 1.2358254170624134 -0.45239228609647253
Ni 0.44493611517091364 9.046701574653746 0.5318604221102307 0.4358827184772235 0.07948796822399859 -0.01750278477045373
Ni 4.577284294244525 0.2513187897105851 1.5571295410596482 -0.16419501875509143 -0.07485998253368398 0.26168585131441385
Ni 5.867778145867559 5.567098394304592 0.19957109448324628 0.5804476217062132 0.32724615371372673 1.3888947582179887
Ni 7.88932059159092 8.7575094978853 11.43532253225241 -0.6036955364905604 0.48070887365297854 0.18271493193614985
Ni 0.11490287677416315 4.688818354073065 5.788547427561218 -0.04057200788509142 0.39824871017453345 0.18290956444545917
Ni 7.9061331415254905 8.774502246640177 2.608736519585024 0.30174132457440295 -0.11102949047570557 -0.5221339735669847
P 8.448018024009357 1.6467288994864113 3.579045899335144 0.04873808863565155 -0.1250062643707718 0.31865995470661246
P 1.859498656562987 3.225045316843564 1.848311012804275 -0.33708550840165175 0.039569791872822176 -0.9240984420302085
P 4.639903384300939 1.0403058095098705 8.166762804281298 0.4941230901763555 0.5618019815805679 0.34342507746643436
P 8.449351495279624 1.6634153102467677 12.532385564194133 -0.4476915381866935 0.1899189058837568 -0.7839900319106756
P 6.285118613696778 7.741233201063263 1.2892036280696413 -0.4562864789445561 -0.37673937534784796 0.06943315509115784
P 1.8629044142667746 3.288493321473386 5.958145151268827 -0.6908695605049069 -0.8077621946296087 0.38763931008980335
P 6.911426643494111 3.842154196864264 5.897458693560198 1.0715072424658965 0.3799360279082747 -0.6559920319014315
P 2.2971114916766555 8.541352002986965 10.0223268196029 0.7733538923530682 0.08708840627907581 1.1171908605459404
