# total energy = -381173.8880121403 ev
CRYSTAL
PRIMVEC
9.15896062805406 0.00000000000000 0.00000000000000

0.00000000000000 9.15896062805406 0.00000000000000

0.00000000000000 0.00000000000000 13.40506468108164

PRIMCOORD
 96 1
Ni 1.7254290902529137 6.877848109968859 12.879867875178462 1.2349214171909055 -0.6885206006567562 -0.4138733040856679
Ni 1.667342962811084 2.3003004045092816 0.17288362235560295 0.06733256380838727 0.5869270587829698 -0.13574704782704364
Ni 4.397326839853636 4.018722889985627 5.504440918547306 -0.46978862719604897 -0.897760318356312 0.8647105869901945
Ni 3.2137510112825396 8.483368089457276 5.107208558934117 0.6620400378677243 0.5529918394881057 0.19562855467402437
Ni 7.596075473849876 2.1420976799267013 9.08232014263986 0.796101727572545 -0.799028671411353 0.189281529410074
Ni 3.46713365330055 -0.147859510498686 2.457121957849631 0.8853064088636754 1.5955847129124974 0.03734501630736149
Ni 4.401127808457918 7.9538519475585145 7.537829064599432 0.08623685691205793 0.7723195375512829 0.05567235386163961
Ni 2.8737246030078745 5.183266398653832 7.099134090837839 -1.111253412015583 -0.23486590290809228 0.32982728417734164
Ni 6.861856564949396 4.422010238380241 9.138057912611478 0.6393672788605569 0.19887405819451554 0.3957089744718153
Ni 6.94600909395216 6.860647582164419 7.874724940177847 -0.8214047251137079 -0.8223884291832159 -0.5677427725450351
Ni -0.09602712128096245 5.896236519212299 7.175141556274848 1.6392232755380545 -1.1100390799925077 0.7709085161363691
Ni 0.06238900708108732 4.967884283718155 4.8670706896839455 -0.6672979438325539 -1.124897742271895 -0.5320936558828578
Ni 5.2577653832977695 0.15777225343944484 9.937964886162352 0.5736210857026831 -0.014804669113000308 -1.0384174018904633
Ni 2.340059452006125 9.04028784114884 9.251786556835805 1.1812157001373333 -1.199348148071986 0.2367101552056827
Ni 2.5580152348401244 3.9023308200501527 9.489565993759223 -0.45004692579274747 0.7515218840796412 0.9252716364027033
Ni 6.8663261376696125 5.983237484928153 5.336194477888928 1.231849206023485 0.6616885680655766 -0.17713589518647557
Ni 1.3546194157638063 4.362760922955896 11.882195131302698 -0.383127795372695 0.9347417806766676 -0.07831631651340061
Ni 7.36423470690963 8.558480724454194 0.9941199831008214 2.2055784237069433 0.9065102966348001 -1.7603996246397748
Ni 4.71643418236401 1.0756191612489818 6.272994022645072 0.2894735629506434 -0.8108506037469455 0.9740012403979226
Ni 8.426765713615191 3.3542219883521307 11.367990939554875 -0.5723566171679627 -0.22866825873781266 -0.5423402733115306
Ni 8.970148521699214 7.318916170393993 4.2293249434404006 -0.9595087032087023 -1.0871238659572309 0.21100555135072693
Ni 4.445008388176273 6.975729920749502 3.437755371625619 -0.3168123599749124 0.4637015404617047 0.2562597952028361
Ni 1.2258535902033072 1.0949170910061459 3.3928086889059665 0.3334237432793483 -0.4096343263036558 -1.4679924329821041
Ni 6.359212813134888 8.047447364828786 2.8463777787701234 0.9919426553676916 -0.1505594302495278 1.6618860072428927
P 8.96495539110011 7.614466666518307 8.773346274018108 0.07814919480791703 -1.8471879831799283 -0.707813130337781
Ni 0.26578662221266003 4.598219479290579 9.321506395894888 -0.39602959103602764 -0.18204335979042197 0.05474521406167991
P 1.6647051821893168 2.248872841345315 11.349049293360862 -0.6596203726826383 0.4096556664598945 -0.17361245541424938
Ni 5.0837451339450785 8.063786950346955 0.6736397124126599 0.37640050395119046 -2.079319003655361 -0.31614541581487493
P 8.457997768893753 1.5678033801813447 6.764209223557356 -1.2658397040363167 -0.1477659266647907 1.9946016687116233
P 2.1798783919572196 3.968540945448606 5.208149462519169 -0.899036099744942 0.2320829408463164 0.5156679062266667
P 7.40903118267721 1.379431039737303 11.549266917409525 0.42702989607228387 -0.6555192060300711 -1.0140770253728857
Ni 3.1530271032189434 2.749831344429251 7.582024712558719 1.1695074105614698 0.9596583414126892 -0.5537089201597882
Ni 9.097210780608155 2.4070938838488805 5.042221154761379 0.7468753864465654 2.0293493566054535 -2.3487824420326646
Ni 8.547773899638758 7.837395764899597 6.438090696790166 -0.5028113619789728 1.532701186014399 0.20470326328178295
Ni 3.155069551408714 4.978792605664422 3.4049800315041137 -0.06187745423108698 -1.1819551494065192 -0.5713441167430482
Ni 3.635026558083928 3.6025122483364513 11.805116067488095 0.5567703326939315 0.2647040693154473 0.3550017265604402
Ni 5.480108308207555 0.47675503408712394 12.279574950179814 0.6783860833259154 0.6400879590766655 0.21559085672856415
Ni 2.8718195392254873 6.037916479066867 10.844750517385402 1.7888519664431966 -1.6017463616385188 0.6128463497518929
Ni 6.059220221171833 2.625873973127182 5.143268302288142 2.523722615119402 -0.08236554688210977 -0.09216967745672512
Ni 4.259612709892211 5.93728698013855 12.952576283046165 -0.4763606239866119 0.4300514565074271 -0.3789404967642248
Ni 4.053728436986995 1.9723821420053664 13.675444492208602 -0.2129855578952332 1.5350177499627178 -0.9045688566377131
Ni 9.16363156209793 6.939955021066786 0.8588879314327961 -0.20890393162669182 0.7157740370560705 0.806376884246308
Ni 7.983123985291737 3.9255854207399676 7.0703804502684795 -2.1827138604039438 -0.9221891408226376 -0.5649906637211947
Ni 5.274700301247934 6.8528899426274865 9.66548031614171 0.319144864762831 0.7094673781117523 0.9729992814959694
Ni 4.037095764733073 7.976392149329935 11.430270955006105 -1.0639798237406 -0.06805478668639248 0.6437034443420655
Ni 0.9757773329229984 9.240658419837727 0.7034164088690037 -0.9417333815031523 -0.9905743142652553 1.4475809592052877
Ni 3.1837920515124005 -0.20211536066265812 13.55868606385344 -0.44500987758947236 0.3665989444797364 -0.870396067410746
Ni 8.336037050978995 8.498974958136065 11.96037418627242 1.8341347495403961 -0.22090147030820023 4.028567183932849
Ni 4.496326043814332 6.1833607716837475 5.59235136904004 -0.2257978791685531 1.989483116538135 0.7468342487959847
Ni 6.515409725369665 4.9780782067460265 12.861435467187816 0.746398961030779 0.48589350317771146 1.3951571941879328
Ni 2.0142294324944423 6.319527037321982 4.930918719171448 -0.15303745947637515 -1.1035375314285638 1.892445312355831
Ni 1.913425913316773 7.689176307253565 3.2875786441223944 -1.5096198787149033 1.0916963158192619 -0.8729661421307675
Ni 6.752269602659662 9.070118575472089 7.660618668438739 -0.31544633286532126 2.0827447415074585 -0.5679026951616671
Ni 3.299854398870153 2.0492441384563023 4.728877546088776 -2.2029389292015673 -0.4175034446390874 0.07287123423842934
Ni 4.5029754491317036 4.369932389021326 1.3111061103611907 -0.8193686685202857 0.31704684458322174 -0.22086958862900025
Ni 1.0230100921815157 2.2431759679191376 9.188863582358021 1.0484357053584137 1.3178958013016078 0.21992496532754383
P 7.4636735409739545 3.7985414797520116 3.730240363673179 1.157449193845355 -0.4158090876558 0.25528303311186357
Ni 2.2644888689845963 0.7384256194545681 6.95049881638546 1.160044208266041 0.2644310181597188 0.34885164779864436
P 5.5050206807464654 8.18584841682713 5.477671108820568 0.6559066712764768 -0.056847348006347255 0.10880188669676745
Ni 3.0760185634001314 6.83158620052252 1.5894514992008195 -0.03193644369728048 -1.1566069004497177 -1.6825535628945734
P 5.880070953943483 6.308536284731286 1.5110590404516293 -0.9187199513271145 -1.5137848087258705 0.10963852366544988
P 4.2219693822690765 1.1039844618934704 8.388862271514077 -0.23544517245032998 -0.2906709256928543 0.2662392750130511
P 5.713396190905575 4.900556765139648 10.96693837752037 -1.2613461870413374 0.09321688777431687 -0.8816518428302237
Ni 0.8886124218143341 6.832263963598947 10.476862551293321 -1.6536271096682102 0.6067710900920905 0.2555985074697534
Ni 8.867394143936696 4.080747370439123 0.45737101010133263 -0.17852866176894414 0.9633550735379861 -0.05911094722954336
Ni 6.576472514971476 3.686902910312014 1.6189030525596886 1.7791941316384585 -0.8842807958126384 0.13978856488626892
Ni 1.981678486904997 7.48175332898565 7.037122432929033 -0.33590485782998925 0.08482943504157003 0.8431344034813157
Ni 5.152904444622035 0.5582377261063983 3.979588483594354 0.5692597234101938 -0.9478212395684451 0.02694438979932779
Ni 0.8892947643710065 3.2380772103499478 2.4210484760548674 0.49303834175260897 -0.21213915073453787 0.12555519489570635
Ni 0.3496396532073279 0.32022198800228013 8.218658560998504 -1.2080377054261842 0.2558918703404561 -3.672760187862294
Ni 5.624700817498656 4.903505950418152 3.4734936354663666 -0.04549875576274745 0.3978162506228052 0.2578613353620011
Ni 0.8347439956791841 0.10185405194612993 5.369800535727081 0.43533070262849544 -0.5531093389025764 0.03287952433684015
Ni 6.330737604964492 7.3381774643091875 12.011768777178613 -0.4076646041717947 -0.8954728078737159 0.14958961013709074
Ni 2.250979402258532 4.66674682169357 0.7439786972010175 0.009827527613383074 -0.0913042441326363 -0.306448243131769
Ni 7.715380093221883 0.5415620067381645 4.979056383726598 -2.0055088025424297 -1.1038645757506795 -0.3994558431087572
Ni 0.9197061767894631 3.1679836857027825 7.1378078015163515 1.111885389172627 0.6973209725572055 -0.8867184587198536
Ni 5.620909007854865 0.9111526235857538 1.378496825767094 1.25470142803131 1.3879817594854162 1.6510953443852918
Ni 6.362317700741759 2.696260584510099 12.826797194502188 -0.9864060418201785 -0.28511091510657344 0.4335805527066081
Ni 3.4167135757907308 1.1867356699409208 10.892191185047094 0.5087814635194785 0.7984134064248571 0.8255974230388169
Ni 7.89227625616914 1.8340177258489927 2.6742973972496906 0.03218455515234458 -0.37571530495870775 0.18613347069939556
Ni 5.429147852028693 2.739481719073012 10.292434975133292 0.14022642375463593 -0.35011688766431315 0.4324217565118166
Ni 7.751979299348902 5.848655719455078 2.4452180568978577 -0.38273570214059893 -0.6650227746451322 0.7801182076600952
Ni 4.823007846651794 2.6206716835675854 3.182201140074897 -0.30179506063047384 1.3371482217733164 -2.4065767273333134
Ni 1.6507744032806093 8.933173798192014 11.88814753972661 0.0070044563422911625 0.5514098397129664 -1.3358775825910092
Ni 7.389998862774321 8.478522999356878 10.108959930864454 -1.7176964293442931 2.3679854973236765 -2.732455825496184
Ni 4.547249864151225 4.855769448332562 8.850050736348578 -0.17517414347441443 -0.6589115195410716 -0.2696051061614905
Ni 5.6465449382726645 2.9153795553266133 7.8610112286328055 -0.5767375198444776 -0.8380449047735503 -1.4727721137589345
Ni 0.14744918906863336 0.6275967021220856 10.32766400077067 -0.5141216447854695 0.21224070930940866 3.090757048743503
P 9.040745789173453 8.577531362278066 2.599831384863527 -0.557971037870252 1.2436045467872001 -1.002770599221131
Ni 7.6808508121661125 6.374041170171835 9.959493938695427 1.1684290898956264 -2.3675023870396705 2.5094234248879106
P 2.8906045671950853 1.9434947806128198 2.0982546519463643 -0.3546039769013893 0.6299243882801022 0.5092303781314391
Ni 0.9273172729585203 5.571835297537407 2.4548825920092767 0.6381110378559527 0.24287746035865915 0.916303885686454
P 8.507401201788934 5.912438720323085 12.571698163287932 0.3317898072203512 -0.4410930590335694 -1.6351779018240868
P 3.152028776525288 6.666926408792906 8.903376036126538 -0.39708682865594835 0.35374522844551975 -1.4919175763391337
P 5.94678482216901 5.137572344758014 7.094804650213154 -0.608043529046611 -1.62169529395662 -0.23521043073170458
Ni 8.5885953865527 1.7301367959459286 0.11049186758636795 -1.4153071867732465 -0.21965679926782172 -0.19525240228152824
