# total energy = -340888.3880185855 ev
CRYSTAL
PRIMVEC
9.11600482674939 0.00000000000000 0.00000000000000

0.00000000000000 9.11600482674939 0.00000000000000

0.00000000000000 0.00000000000000 13.34219452384139

PRIMCOORD
 96 1
Ni 6.873248633289747 1.965383229162957 11.372486399452196 -0.3658353268408345 1.9197591696794356 -1.9663318752326522
Ni 5.037303552481752 0.5012006639904457 5.878543947935527 -1.6018612899498283 0.6916632600507958 0.19861309122364504
Ni 3.1188950946740404 2.194605163129119 4.69359736399551 0.2953030251482269 -0.7911099307849084 0.3054977062930416
Ni 3.7372883781311312 4.832056710435694 5.185217107222447 0.9603419977432751 -0.8095938485217089 -1.5301051431524486
Ni 3.9261537600325402 2.866454697163961 2.217539207331627 0.3016711334580998 -0.028108071090125784 1.021783392878208
Ni 5.516741578852098 4.367742135584533 2.835869590357444 0.08355133966009481 1.5622899554151093 -0.4196909392087094
Ni 5.817916136592168 3.2202559490693377 0.050985813349482684 -0.5347457487937242 0.19584195623641112 0.7391769893610431
Ni 6.032178707120728 7.854203649007811 12.515898643541878 0.03139445515088142 0.6880706576035311 0.012844717173152073
Ni 2.0220300813270344 7.1522166039889905 13.309946395132084 0.38929150098124565 -1.1920480148661472 0.3473647788404727
Ni 1.0200353271482863 9.258487683199553 13.419845299372389 -1.0218677250618982 0.8785284667098935 0.348109113205665
Ni 8.090481370482019 -0.14718245117719878 7.045492804127307 -0.14732266847978498 0.04766568150707919 -0.8366742496782688
Ni -0.2359914789318913 2.5733386874304967 1.1276287938423573 0.27872840861899734 -0.10445158014787173 0.3711693374592382
Ni 7.203138605306747 1.1134379095868343 4.992262285687821 0.8783243211188874 0.01533637324675423 -0.33585472131834415
Ni 0.7783390525800449 7.52083136325945 2.155444630859012 -0.48136964716542907 1.8012521398797623 -0.49702740830734404
Ni 7.867312463525343 3.909197991602353 3.7749602668611035 1.2068863654305604 0.9984992255392868 -1.2570460170040867
Ni 8.05404470036618 3.9308576183712374 12.579247582238144 -0.31104357581193526 0.5120701615730795 -0.55114527319767
Ni 8.042968754859364 7.560631839047729 9.050890735185053 1.0768931893681584 -1.5761890819947046 -0.3617830111483318
Ni 7.002039545322912 0.9357305172330322 -0.04990374361149169 1.1953613955100961 -1.2303937045238809 2.7644580894343935
Ni 2.1584237411401865 6.568263585655152 9.062565602189645 0.6325757098600203 1.8162018192110594 -1.1379185800115952
Ni 0.38045371435663417 5.163213807082692 0.9975634643755685 -0.33371582059847044 -0.1733167785507015 0.34301781472568665
Ni 6.559038189068405 2.372604267627956 7.043851011711029 0.9538558757982991 -0.38117709940422745 0.30502565175262947
Ni 3.5072824677751866 4.6833108644811965 13.788357047791633 0.42724072653150935 -0.7964927923633767 -0.5564204055536804
Ni 6.244499568683897 5.874034260493368 4.795331062976181 -0.6096815788706661 0.08806825369384187 -1.4142455782779515
Ni 5.510469767733835 3.1482850932863653 9.061404223212222 0.13862514070578708 -0.46563423870804327 1.335935432412138
P 0.4493378910049501 5.815618903450013 12.242583507253151 -0.365374585154332 -0.5614775083616137 -0.2982682784241379
P 4.32112288840605 6.358522553374641 12.713843565957516 -0.805782959416051 0.5507179558522645 -1.0412165619021552
P 2.6291559831821294 8.822715318539206 1.484238686744154 -0.2835559119146278 0.7036960228456138 -1.3053632160522357
P 6.298101675334167 7.949010096144343 5.829218159011386 3.5821064328294634 -0.3888245886471562 -1.121982368397313
P 4.961513090799722 1.3725056423919386 12.542436244336029 -0.12085341854466282 -0.5889659435898695 0.46627572894678404
P 4.293902498872426 6.355104051675006 8.102086955852164 -1.59632570484358 1.3591018432262723 -0.2707119660724241
P 4.900709340568889 1.3109452637849197 3.6444874519917185 0.27926782606223516 0.21214455005117658 -0.7018965077430298
P 0.4332299109962721 5.8495577883239855 3.2954420196508734 -1.038163376898128 -0.6113257993423084 1.902334289334769
Ni 0.8683213101180519 0.2011090875888204 4.630741601144443 0.07442443765816215 0.6682469380093846 -0.5296210259726492
Ni 1.916676416946564 6.852764971105537 4.725658351935815 0.48173500092464777 0.10597033078524329 -0.9857979759225344
Ni 6.03508671256655 5.797642142512202 9.225766696531103 0.38316044838284335 0.04915383601683148 0.43408937402222664
Ni 9.249918638939135 2.284242835695802 10.264230026841553 -0.6609689162907326 1.6571896302084879 -0.5049307223148207
Ni 2.23808850474847 5.592714360624776 6.74154424620804 0.2481155688291469 0.7081957104881803 2.0453480460265547
Ni 0.5253699268070885 0.17786327603130547 9.4279678814629 0.9912895951647249 -0.06869576270450105 -1.8495816802230856
Ni 2.0436623600823216 1.2279531585223253 11.456941623442233 0.06689521916065252 -0.29883494956088535 -0.5471446366787093
Ni 4.452675949812519 7.287507227253728 1.4372073961608085 0.12894262331070053 -0.24042977014911496 -0.4589069472865387
Ni 5.946552076548283 8.169972930004187 8.014002650457794 -1.7016987683644562 0.1563330995085114 0.04087462672717476
Ni 5.570097553379994 3.021490586245787 4.864403940918316 -1.3499456306483009 -0.20146341618824656 -0.1373670999289699
Ni 1.1119702328571246 7.898233950899105 6.858661202837067 -0.5398630154156315 -0.036873733097897786 -0.16466373086139383
Ni 5.1927405457630025 4.70055834505642 7.238927127500334 0.8417526926424406 -0.3282342286586089 -1.6518893010414968
Ni 0.720585517465739 7.595509672388534 10.959678161809313 1.5126571228793304 -0.6688179800215062 0.816049888559698
Ni 4.945423342800108 0.5496631672853715 10.44640426141621 -0.34317568045978963 -0.44485766828232415 -0.3044931762879272
Ni 8.433926841238636 7.589748357524083 4.575092039876205 -0.8229756691452536 -0.5092743439954972 0.13315049074446103
Ni 7.084347950245579 6.104860611257225 6.934658597821982 1.7125418817265474 0.5110170377182167 0.7113692231201555
Ni 2.3674172610490443 5.832501743843942 2.218686912302251 1.4524022918533308 -0.15135312979541676 0.062399388172828016
Ni 2.4376560759708683 5.5062125936172235 11.362065894671256 0.7864726891232132 0.10752739085971803 0.4715449477655234
Ni 1.8440583248417939 4.096349564651678 3.743819995378566 -0.8871563175882206 -0.24772887491368953 0.4082654709805872
Ni 1.74618890018239 1.7973661496270523 2.711147151147071 -0.9842041490728534 -1.4521364397864538 -0.044768819575258384
Ni 1.0891437575080982 3.4245547266440304 8.296790227056096 0.6476904540142716 0.6792144927644819 -1.4208090904280821
Ni 3.997003347258033 2.7717394100727533 7.120262273301713 -1.1498143030079166 -0.8454293701630795 -0.7418157125354709
Ni 4.428518537801768 7.022258843375684 5.8972499892359265 -1.6631666737275292 0.23899560880574972 0.1399222622506558
Ni 8.465614072993114 7.424967459597166 -0.09768345816694379 -0.41726458915540393 0.3876359676556937 0.6184865787568058
P 0.20735628549484586 6.109382149505276 7.72909286800436 -0.4281161871579272 -0.3840271672585128 0.3927403787617946
P 8.81963410900727 1.7539101560212977 7.859900240240082 -0.772382015358102 -0.06954628363025442 0.6122156581464295
P 2.0832349357572912 3.6408501661833075 10.294183394533977 -0.7927454095058025 -1.796894377131699 0.6595514671179158
P 4.292480402165378 6.179639196436164 3.2888775847871217 0.050353255641571344 -0.5048178508860403 1.6109611953685676
P 7.110000386999637 3.9464368701170387 10.339586566707844 0.14519559483445316 0.38485840491055656 0.804441614896808
P 6.298457199510929 7.760545818442357 10.305603925012116 0.1254963166333129 0.17838133755780247 0.2936184383569524
P 2.819917494026269 8.77527563095281 5.549418808698791 -0.5940325594794995 0.3477977526128333 0.3884975443250406
P 7.457858003949916 4.292653606251493 1.5338452486078906 -1.5848400728014835 -0.3570046159230819 -0.8438890222591531
Ni 2.9772779642638465 1.857349459449973 0.38563433973237365 -0.22612440927003638 -0.9416721892479137 -1.275013914336417
Ni 1.6363045815493371 1.3012731829760873 6.649736052962202 0.8710969501325126 -0.2635473300031848 1.1799823419508646
Ni 7.181907430750883 0.7447757470928063 9.242711525755851 -0.568228453932202 1.5159201099013182 -1.1107407340452224
Ni 2.5715428345376217 1.6740721883268996 8.993933027266422 1.3341189480286895 -0.7326391882425253 0.5427040844088524
Ni 6.612667643732271 2.283012175083934 2.431628573774073 0.2710858044720751 -0.9945623523787259 -0.24081646406457233
Ni 4.080113960579548 7.054556847433831 10.36018691375007 1.327983781665229 0.13198166724734042 0.3135653137925245
Ni 7.539437128509995 6.022069058094343 11.153460716555475 0.26666427836561174 0.17156251486375615 0.8274316480340781
Ni 7.915855187660154 4.111855888361221 8.393547499162553 -0.2841639778122719 0.07901565657327038 -0.8417359804718924
Ni 3.678189320747849 8.592727640192326 12.30156952618023 -0.3111957851190834 0.46693598823860233 0.5782249030232817
Ni 0.48021197515514286 5.411843714698246 9.875825333331795 -1.4825839576430337 -1.4910652556411677 0.14319141992023082
Ni 9.127855338250852 2.7332242909235376 5.832059617624122 -1.198806159525587 0.4810909395827456 -0.6346459621254876
Ni 4.0739241935020765 2.8978502167734046 11.327763281216443 -1.2777200004136706 -0.2927046682934314 -0.38288328346205674
Ni 1.3720498421653207 3.4601253763292945 12.425452381373173 0.4599238185868273 0.6563478725789536 0.34423214674876196
Ni 3.2679600007871716 8.434674353610289 7.684303202935521 1.0572967552934693 0.3612358803956101 1.0215548218071697
Ni 6.286624625627927 8.61716764834358 3.5129061309711984 -0.8946361709050336 -0.5114135018256869 -0.2560998725862041
Ni 3.4202610885092897 8.538223049093352 3.4175627511677114 0.6472261127833434 0.0316389670615197 0.8135484622940828
Ni 3.444938112778385 4.4915192451249 9.001605056680855 0.9801677742199506 -0.056392519857115776 -0.2484315574076689
Ni 5.2767354115241565 4.7945716997986345 11.442706070764501 0.34256890011372615 0.7947033045631217 0.00843938901660482
Ni 8.532744330369406 0.3692091227659696 2.368533060003805 -0.6761160563448163 -1.8123567344333562 -1.422696537258782
Ni 4.883489208007263 0.5631329755823848 1.3167266338593417 0.23649212565760563 -0.13817056966687175 0.6705534746553742
Ni 6.274327135513775 5.752271787954652 0.2724272374472761 0.32055717172932535 -0.6468579308106472 0.34610236718828136
Ni 8.038438100606783 8.929290527527012 11.179104037305002 -0.47529901549131687 0.2710446668214945 1.5941834616895965
Ni 0.19110336101410338 5.2725967454664655 5.56489596119383 -1.0067617226583951 -0.2385510650691634 -0.26822570931546064
Ni 7.214962063185216 6.306871271694296 2.5666247500924144 1.2268705218619709 -0.7011843121673537 0.11787325287041635
P 8.704034055532427 1.9444437667521286 3.5700379545763976 1.0415310078187805 0.5566641461333702 1.2498834378173764
P 1.8402569509518003 3.4801988183095487 1.4195424025780035 0.8528778560213247 0.8630951628739587 -0.08119209539929888
P 4.847271322000201 1.1371212893619025 8.31844438422226 0.1550984557704619 0.002905860792885318 -0.8544354303164317
P -0.08919919274867746 1.818451468110398 12.32225009406234 -0.7215171101874348 -1.3282128669568996 0.9039772458003013
P 6.856785129104307 8.050307138507913 1.4327113827254492 -0.17192401196823295 1.1565961018164403 -1.3647387297970754
P 2.05184853215238 3.606336973023797 6.101679125675432 0.18030657960497337 -0.9415639458048236 -0.5875240689370205
P 7.157996150862506 4.081599869318323 5.695408886483158 0.435011885836496 1.0838122850854945 3.2859282041651343
P 2.6278341625249375 8.664944628097672 10.019854558541251 -0.7624971521442223 0.5504467044687488 0.3120324220877658
