# total energy = -381171.5735595865 ev
CRYSTAL
PRIMVEC
9.23386766958940 0.00000000000000 0.00000000000000
0.00000000000000 9.23386766958940 0.00000000000000
0.00000000000000 0.00000000000000 13.51469870808662
PRIMCOORD
 96 1
Ni 5.22736634352918 7.267681737881862 2.01012249393426 0.41276747261599883 -1.6126835773763126 1.1711534308053249
Ni 4.216460981730924 8.222417482808977 8.106710657537366 -0.18611418742568592 2.4459079208327683 0.21512420150479078
Ni 8.52988680757887 0.44762835494639786 12.238654048733759 0.453155132404426 -0.5347125815629437 0.41539693981904585
Ni 1.522830983914987 0.9584385258518777 12.422305518894607 0.21442434722428877 -0.664768492542481 0.1946422795013551
Ni 3.8952701296438326 5.573488638251827 0.09783836799603218 -0.12857238445547534 -1.155430106532797 0.12129667672966853
Ni 8.961921006850112 8.868077209996352 7.747503972364876 -0.9354488340460212 -1.3985582494496818 0.2564947940317776
Ni 9.079634351560502 3.122875569059052 11.900435944713347 0.33144013719041626 -0.526569383630519 1.6234076486620364
Ni 2.819201363890349 6.575557188715925 9.065308929299466 -0.42969253050611156 -1.0088435448880881 -0.43632674799317755
Ni 4.3964567636919885 7.859886605285079 -0.022653447488076725 -0.4963931171574548 0.5758201502365309 0.05212577416096184
Ni 3.1707439389193177 0.5608688141706173 6.0056890471406374 1.2450685329272364 -0.8957702845094767 0.3195891513891012
Ni 6.918650774851734 1.8146858385009084 3.98399836382348 -1.2212637171981549 -0.26002080490716506 1.2839019608546665
Ni 4.819968103128926 3.1590907979541063 13.331209885163458 -0.455432615584693 0.10191312999673416 -0.7477860711862928
Ni 4.2576255636825175 8.316750674647803 4.308391521209093 -0.9090204646511635 0.13923937725101826 -0.7214170942744608
Ni 1.3325209717969166 5.035929799558689 10.960258315511867 0.14767388117161662 0.21383890703446395 -1.3973642291415806
Ni 5.8374110432182835 2.586055439777338 6.91906629889566 1.624282337957506 -3.735601291558231 1.6907535822068622
Ni 2.602390151637448 2.7590519500651616 6.600970639242434 0.013186673893603095 0.9284996564216977 0.5596216860997975
Ni 8.563830505033796 9.135536186270002 4.022379858067534 -0.6345901691868877 -0.10866510400858705 0.7408142678541499
Ni 8.43065043202172 7.066383423268862 11.722865899782047 0.7026295292543124 -0.35918285452132337 0.43038364303586524
Ni 7.874402245219558 3.8324798296728053 2.7361454946036723 -0.9492579720149718 -1.5005163737517384 0.741908015138961
Ni 7.920036019110267 1.391903974607752 8.972219539432125 0.22200395934375958 2.855409835323618 -0.8591024967747979
Ni 6.409107490586846 4.154880318421102 11.612031786465542 -0.8635173380130419 -0.7689544777337919 -1.0603026319993287
Ni 4.516700188136506 4.89512255187366 10.217963393282318 0.40149755612913435 1.2133334066074848 -0.5160368595303113
Ni 3.5981704382368016 1.5831466073577445 3.230526768199086 -1.415664313002349 -1.0747699723775685 -0.21823395077836608
Ni 0.3607330434938457 5.156801127002917 3.8809751791460165 -0.2246416540769228 -0.5607707121025762 -0.12443985034434052
P 7.438489821538342 7.212952604362997 8.065221043444746 -0.12827387937845006 -0.39258534124116906 -0.23379863798584252
Ni 1.6645339167613675 9.173893672458185 3.4284224025857144 1.012018343071644 -0.062059231224589895 0.8490008895644218
P 6.107529373373058 8.886664985561307 12.106804576049008 0.014645774937632841 -0.39699658293498724 -0.43247806367104874
Ni 5.866913250337023 0.0884779963665277 2.7469703576413247 0.4379457716538393 -0.9805416126196016 0.16292669356562908
P 5.467917829491715 0.6904402917078897 5.934344492185322 -0.5855296642148109 0.2909552897024924 -0.32566543949016813
P 7.798001224343046 5.112829449287912 12.69405916700892 0.7376078451017103 2.0996320041811 0.6428071577800414
P 5.927866010647135 4.886156466392503 2.580915869047357 0.32643779887981844 0.25917285508457305 -0.18167569203835807
Ni 9.35870953332879 2.738303449471794 7.362307643324964 -1.7702189247230418 0.3571668525325591 -1.3678502788428637
Ni 6.9364075023288345 4.007350815092116 5.308074040274294 0.6515525080728392 -0.4701349547918742 -1.0538157387234046
Ni 9.150716664674762 7.952788547639272 0.4532610142085047 -0.36219850141919563 0.9708192431255152 -0.1642191871248075
Ni 4.696095768700789 5.773623485541834 4.208882746556479 1.2322400137040004 -0.043124856213932174 0.535723282215645
Ni 6.796025012555375 6.220136389276982 10.08100574501757 -0.13651735033416487 -0.6632826520255738 -0.5022894280372316
Ni 2.1334020140597296 2.7044705584285818 9.863094779128412 -1.6146620412589223 3.714878200078267 -0.412349925462606
Ni 3.9615692993191236 0.5486311693836169 12.327865214191126 1.083952667318101 0.7796304693903993 -1.2479599955424185
Ni 3.3989774454463597 6.806034525080168 11.36307748094806 -1.413581205221075 -0.41052161400461556 1.5568461586917186
Ni 8.73230242017665 7.39838713436567 5.83653844272604 -1.8986262443555624 0.024776435613731523 -1.0527268765345998
Ni 7.617165160426486 8.892399217367483 10.213598544047567 -0.8016928485070773 -2.5877086310530597 0.6199184261073258
Ni 1.627044414131607 7.007748363737093 5.133585336975393 0.8782950105428488 0.47971128562639964 -0.7541600930334367
Ni 4.937644512368745 4.289122286212102 6.40422369799057 -3.2919664399394146 4.646818249640082 1.0218165601089886
Ni 6.389245441287187 8.155555047207475 5.209146075896411 0.5802360199160395 1.0160413481881083 -0.2903590508793903
Ni 7.10201691850242 3.5215570384045054 0.4051571807233477 0.6081659135570882 -0.9732813315127624 0.44655819591319873
Ni 4.547430499651738 2.9359359186306033 4.670990729353549 1.2424910020080473 -0.3079464249438503 0.07608434185908833
Ni 6.309298615235841 9.2831764960107 7.979834545965026 -0.037224174458781054 -0.9137448667100263 -0.8771848081978054
Ni 8.776772726744365 2.839358896954577 4.6435015053809385 2.7057909146104886 -0.5157175285176796 0.9470735627691431
Ni 1.1087751249442745 4.540431227978497 8.289808095639648 1.7913575064738696 -0.7878500290867142 1.135199381308219
Ni 6.918419928160665 7.428277163925407 0.3804288831759342 -0.057281093109656185 1.3852129384910272 -0.1383307493938198
Ni 7.726955846699357 1.1067621417981446 6.303120234396045 0.1790631941161755 0.2883628463849679 -0.735285881836753
Ni 2.5186389721172686 5.195804983926097 6.325379395735774 0.09469552920237241 0.058533991680150804 2.167137860342558
Ni 1.0505371217211465 8.261098154364658 9.973915041643455 -0.960797597223455 -0.7652307490253014 0.3073635558571868
Ni 1.4412497632908652 3.097057675129788 2.4367410298329992 -0.11466143080133802 -0.3450065630209413 0.2718028851437577
Ni 1.3107752134981272 1.1654710722710553 8.294930122021107 1.2666334035822056 -0.4102549906067902 0.6114055035403084
Ni 5.054822292755854 7.780299900071801 10.190893386900688 0.738758670876702 0.3621529928932408 0.8005127121560471
P 3.1808642578558244 4.3488654098610064 11.837524681076198 0.3862920520332896 0.03338654588024573 0.7684065756501218
Ni 0.8600692104663847 0.6019419808325478 5.77165482496039 -0.9238521303473574 -0.43500417252701207 0.28891460512337985
P 1.4403910136000848 7.697462873448259 12.180216593969547 -0.4021889257692041 0.4227716350165623 -0.5615016767313298
Ni 0.7854761808743326 6.642299584038071 7.509753118458401 1.9560690598540638 1.8102080635214695 -0.7346269080965154
P 0.021583242228276418 2.562148956450134 0.540252357884542 0.07692509259282881 -0.8190920178201313 0.49813632510080663
P 0.3284920712322517 1.4885825688278485 10.423819544963802 -0.17647049368833478 -0.3046381865062237 0.0504715263869905
P 2.126919838974485 8.441075468590439 7.874514898404801 -0.5211225015833347 -0.33359703563241905 -0.5154676172904026
Ni 7.176608101320944 4.717019712779369 7.683079277821073 1.4623691732580557 -0.6716371946378562 0.7095648229215651
Ni 3.755349333252512 1.5669781051152047 8.507367251171614 0.8497493376946721 0.23797359529913856 -0.9541374115944599
Ni 2.560653069892 0.6902777756373765 10.421035533869498 1.6278805968317256 -1.9369649920347611 -0.07146509791952207
Ni 2.1501430160961226 3.056585633251404 13.321640828125227 -0.15243402156442137 1.06905903803572 0.2964057712941024
Ni 6.448933161730235 6.072154426433499 5.985038425544284 0.3648408241380491 1.13072643313853 0.08408587200732616
Ni 0.39532495845729626 7.205390066763545 2.850763646880197 0.6808962513422789 0.3798056729779975 -0.2510566537353418
Ni 3.570025609661553 1.496117404824372 0.8742053384407444 0.9914924552041505 0.8347479791898333 -0.22057622575829752
Ni 3.9687255467422915 6.952040440248092 6.322675719289963 -0.1415284303955111 -0.0328584412909176 -1.5677391514551386
Ni 0.16042459949215382 4.900736743400481 6.154513138713144 -1.2152252243135588 -0.5315431826960265 -0.4002533993093881
Ni 0.6484603592434365 5.160494674060036 13.112635927577546 0.21882041940945537 0.3552140996815624 1.273266335517691
Ni 8.968864875317495 6.066475597833178 9.301599908731612 -0.8148548398103321 0.20921760621236873 1.5778078485450504
Ni 5.831168948691753 6.355357147038118 12.314971964801485 -0.6904221885548433 -0.19666548057897099 -1.5652698639790397
Ni 5.363981415304379 6.232500538050689 8.037556375986924 -0.12083079283684353 -0.6501180896191578 1.3238322213907008
Ni 6.138629039594003 3.377370195162212 9.38429565718022 -0.25207301081499817 -1.0452354532535613 -0.5210633662106251
Ni 7.273563711570325 6.390538182757179 3.6885801597142027 -0.09214525197669292 -0.11852991261780875 -0.27501187899935864
Ni 8.490495128214693 3.619066680712454 9.788493439055483 0.1596030285090348 0.6627825724607037 -1.239882874961239
Ni 5.675541343440032 2.1660714377799497 2.0865752244695717 0.20880905792004037 1.984960546077433 -0.7901514235263811
Ni 3.1385823779194517 6.5013907638089705 2.65334078651688 -1.1666375452128424 -0.06390502618407704 0.23014561461428748
Ni 4.053215435673895 3.8690367116706432 2.161324306424787 -0.46201566811884953 0.6269619632176686 -0.015614309498489238
Ni 2.7754790006017 4.458055894737095 4.323095532043485 -1.0619280834178937 -1.0754739404231286 -1.6563547930120184
Ni 1.8769128725457251 6.989493007407281 0.683778979590375 2.012103425040812 0.2920179266390519 0.11517693698517582
Ni 5.471315892784266 0.8976215033961162 9.997363525135574 -0.06539806578983576 -0.6593758607719999 0.09135155243080396
Ni 8.236997759816957 5.608983625470743 1.46553391180466 0.2357364784385037 1.266296331957761 -1.0782237352541235
Ni 6.9258439577454745 1.8667094488004332 11.50040079037146 -0.694962499627358 0.7648209151813925 -0.6374152973405087
Ni 6.759237283866467 1.0486257111190873 0.2567319922330101 -0.8854102814313912 -0.625409274018568 0.014447799994213828
P 7.7987584014897555 8.184927980179218 2.231438910210082 -0.7755539853281804 0.11474524876439593 -0.014501021829652447
Ni 1.3860497025222176 0.872299468159271 1.3073346744144205 -0.7257296056068856 -0.19317880758195116 -0.4875248681335475
P 1.7308607880395868 2.2062295281584787 4.683558946602162 0.8686286910976782 0.20899032069291107 -1.1568694100824852
Ni 4.197106795151619 2.594495194802856 10.795176153180686 0.5547712999860316 0.3791400143695406 1.2225726658175653
P 1.4054500584397367 5.206784052553384 1.9334536908961069 -0.006724977428659386 0.5328912120834887 -0.10872706759477405
P 3.3541654857758605 8.887062041869946 1.758938209381043 -0.11308457323252138 -1.9929409931797484 1.5200415882688596
P 3.4489234355262552 4.34191230752598 8.35762438976865 -0.5689308793158654 -0.10188536208259229 -0.8535334873274525
Ni 8.312401522988045 1.2481418892770273 2.105927564275348 0.04735972023088618 0.4553143448392739 -0.5052904196470847
