# total energy = -340857.61414891627 ev
CRYSTAL
PRIMVEC
9.35346158467627 0.00000000000000 0.00000000000000
0.00000000000000 9.35346158467627 0.00000000000000
0.00000000000000 0.00000000000000 13.68973649156066
PRIMCOORD
 96 1
Ni 3.6074524587883077 8.85316373291046 13.453013800477033 1.5087079084235953 0.04003053355932461 1.1636851474527379
Ni 6.328842138042557 8.087395824195747 4.804673107041663 -0.6433427185685372 0.7059441954498423 -1.0062616430935252
Ni 0.41493078480609596 0.5213741142059285 1.5367138938220517 -0.1317322702406957 2.927517709033461 1.857864231946852
Ni 5.699363519640317 3.016061136395428 8.982781198998108 0.29829836033112495 -1.7745118956714405 -1.0724750056958046
Ni 3.039416730240067 6.075129489650148 3.5204250451684924 -0.1270772879671876 -3.22613128661216 0.3358112696749184
Ni 5.064562781535393 1.710607841520582 10.889980098358752 -0.5454428234962542 -0.7250819447205578 0.37963932260346234
Ni 4.777084136435276 8.164861193927948 7.122290681288237 0.25613483958919764 0.8926409948518755 0.03176495111642271
Ni 1.0922879029167623 3.5405097334594795 0.3884352338714903 0.5437003868838508 -0.21211549658545406 -0.7896701130145884
Ni 2.5591913000552533 7.376298899070109 7.9581590439989585 -0.4475074472003454 -0.2673579619985266 -0.8957944528791928
Ni 0.2817533911985146 5.365828429169352 4.716744019714749 -0.0637859841077095 1.6455903554066624 -1.0779159742057178
Ni 9.141783500336988 7.274467761630547 11.176903147834373 -0.91800698442049 2.653254535274669 0.3562024317367607
Ni 7.607132980164166 1.8682884987223976 10.561891528630973 -0.41831359924520856 1.7983763609938639 0.2751918562206486
Ni 7.671185485830201 5.807218286409456 3.2241934306171074 0.9178203223309805 -0.8612416546049878 -0.6228487123802434
Ni 1.8320157742812633 4.455166045385633 6.1629276285133745 1.8154924518488604 2.3532389351421217 -1.4747168961901314
Ni 0.04154620614301951 1.0454083529170295 6.918190664401929 -2.9840968909800862 1.5135300124025868 0.10895409600391558
Ni 8.833951722595325 5.9150730531785936 8.990460391047147 -1.46349325956017 -0.9954175012901696 4.021584839077745
Ni 3.991140810851166 7.9163397167745355 4.525840801929524 0.5152609005962351 3.5839668830769695 -2.62313971816716
Ni 1.047484821412628 3.15999220491017 7.777878552657207 1.0106934536126335 -0.24195674831660263 0.17675485769797303
Ni 9.232044405663688 8.086189227637494 6.415640391850922 0.7651466739519274 -0.5597772378410553 0.5878984215573038
Ni 5.4514313105734935 1.2434304903959492 6.736513701229581 -0.017701531044821125 0.39957128564069894 0.7672176975483432
Ni 6.431935992810525 3.0174922160342863 4.449739166912001 -0.06752436810421919 -1.124089901658619 -2.3719606799213406
Ni 1.873975403431064 7.206327793205157 5.245167837997853 -0.007731821426618941 -1.8446950415547456 0.7897225635190787
Ni 7.061274309287387 8.973206060264125 10.213611641148917 -1.0501547449320494 0.8159838112084529 0.381994195988884
Ni 1.2333661656154797 6.955935623713366 2.412268059145276 -0.7663113836839899 2.0274601100025404 0.22993992636138463
P 3.7319938012157707 3.9357963780202763 4.2320177037638 -0.5285774151994832 0.3083632007662947 -0.17299153400079886
P 1.6228910777740746 0.07015096268914545 7.694987239797545 1.650804038397118 -1.0962826496383635 3.314409856544595
P 6.165287506898237 3.338680737071962 6.38178553725714 -0.4950363460192442 0.3814660913995559 2.622632182403122
P 8.242756822897976 3.4963239804270096 12.695136472045595 0.9831561674243132 -0.019362206576695688 -0.9355491070693114
P 7.368049145857865 1.3687107562970708 8.448717243314798 0.6547746145545625 -0.006266549735002111 -0.5392510928632455
P 4.647332915845432 4.613660453754643 9.911451802577215 -1.7970476148801113 0.7690069282382821 1.6917431998136412
P 7.461078675845364 7.339773631163294 9.063906578290343 -1.7063110703254871 0.5135434036844962 -1.1419066181250654
P 2.471109751302762 1.5951112965491732 10.940823645423507 0.854411776167348 0.9504057124661698 -1.1352595451221932
Ni 4.14008533483276 1.7872407531622048 3.564957811629731 0.2919503066259101 0.8978109690885893 -0.2710909466783976
Ni 8.90251259679685 5.195997625229777 11.484690028959914 -2.563788372792036 -3.7280628170893406 -0.9358676667509948
Ni 2.7410319488072097 3.925292440540288 12.252013418353986 -0.06599713282641537 0.06816045902632131 -0.04912066878605088
Ni 7.080346017677143 8.892635341250218 6.6847806399579275 1.0707359115175108 1.0669635889592721 1.8581187711598193
Ni 2.7785486836533653 8.838198194203441 10.007964561698772 0.3285260488674149 1.9992404530352148 -0.0026801179353244165
Ni 5.9265310437511545 0.12990181132308282 0.894754016138159 0.05041419078649382 -0.6966077485402647 0.16669978745481612
Ni 0.9125489770069722 1.4694475387186838 9.392227113868083 0.3683853469561978 -0.7442083811373635 -0.02480394641755728
Ni 8.281498861225767 8.699523771159539 13.388986549157565 -0.7607457166707544 0.8201927070834777 -0.45117718274244883
Ni 9.118839458806791 5.912295075056104 0.254400127826763 1.4300033553328404 1.6392178762214156 -0.8132337592671414
Ni 2.0961575324601256 6.704804530747917 10.232023930489396 0.018067399024672113 -0.9130164731844339 -1.611603714048573
Ni 5.912996584682994 7.273036681991687 2.6400379461890706 -0.7117538601530838 0.8411903923810673 -1.7372890067642404
Ni 3.7338832004775315 3.2570063095784128 0.9661705021942165 0.19417382450536882 0.6859739229755025 0.14719539887330135
Ni 0.8803197540552404 8.158706616134687 0.5593313970977714 3.2084058443079386 -2.9663305681356014 -2.454045462338238
Ni 6.06730064221404 5.213507305516988 8.578359028402845 1.8619224611766256 2.7418694055006 1.2369266205463922
Ni 5.412754746477545 5.406048314444462 4.0869885388464295 -0.6259726027212058 0.21263923029940798 0.37753256067310464
Ni 3.48968302262577 4.8650908574942315 7.886232794280692 0.8539178672500648 1.0770410277999323 -0.7279690364603657
Ni 0.4417939267851927 1.0963847191378084 4.42631622814318 -1.3997419853451376 -0.1733250060808176 -2.025257703034583
Ni 6.950342253621618 6.729226419225432 13.233266377526368 -0.4511751258599198 0.02537138888525308 0.6663672044881684
Ni 9.290587722393203 8.061037769148014 4.090821587447765 -0.5278652196238071 -0.15520104278659724 -0.47973596821674797
Ni 7.805950161886895 3.872613744291586 7.669730087190944 -1.0043813953516765 -0.6710314427330573 -1.5408757514053915
Ni 3.3625881851564223 7.72250793013358 2.022603780407472 1.3977869185012959 1.3487426114791354 -1.1363923731750558
Ni 1.3988663167917117 5.919263404016559 12.141071073880356 2.4921672089106237 -0.12671116287702047 3.06860468101618
Ni 5.75546558286825 5.462730292297292 6.446702302783506 0.8707223404019134 0.3403904044051686 -0.6498913183203324
Ni 3.9068848279306563 3.110933298336228 6.295814129462338 0.40973691331979106 -0.5305016288053896 -0.23224389190421293
P 4.3730987725010255 2.6836671682508726 12.703760363725515 1.2853021836363026 0.3500140435378617 1.0483570296016782
P 7.7514568940699675 6.681271221131132 5.2181849717091 1.1715444955961565 -1.033258483397343 0.7162571473400762
P 4.856691448894918 9.506484325165315 9.107672360892849 0.5105264712350434 -1.476922388481882 0.38368726742059084
P 3.860444890630442 0.692222574777581 5.395521928656414 1.7866711567417939 0.5590131059815211 0.4614327990321859
P 1.9316675551466174 8.95001882872994 3.2247265779335446 -1.0448862974442585 0.1858208245549832 0.07515077430122541
P 4.907490099343551 9.33829037702182 2.6552887654776907 -0.7346608466582444 -0.11293570635948291 1.4523051041538344
P 8.076732877866997 7.328530770209648 1.4976435489888744 0.22640054574955848 -0.12761541985884475 0.33794399974720507
P 1.2152204499332209 5.496514995928384 8.215416654372593 4.459466847373184 -0.9906401345061842 -0.8971177996763066
Ni 2.3871904930031604 4.219440103826721 9.775046529339763 -0.650018587926816 -0.7924391911192934 1.3724774932022297
Ni 8.857195074899662 5.766240770737302 6.841432416373635 -0.18230484098192473 -0.16691061791404158 -1.8522491997529198
Ni 1.6691907131489108 0.6430411378554748 12.589163621768865 -0.1331440629865578 -1.2164045893336406 1.6062445066191886
Ni 6.8680879115031725 2.1000298656005665 13.54622759365986 -0.5386347994354852 1.8374730698850095 0.615301753270921
Ni 9.014164869012895 3.562275238816498 9.387983448298474 0.042118783546921015 0.03991766213054415 3.458661342298224
Ni 4.966912641472104 8.607111569643704 11.459062479270314 -0.05211009043167799 0.028597094911402363 -0.2570748349049637
Ni 4.636342598357467 7.192101177971797 9.447957844666847 0.18797360923192788 -0.5397115774394319 0.05758216928984277
Ni 2.5449646848218945 5.536024018114911 0.7171804166100405 0.32053248913897703 0.39513176181210663 -0.0992659221818742
Ni 0.27374869868259855 8.361676734848615 9.087342611905534 -0.29722543898192033 -0.175651083110833 -0.2608656694059636
Ni 1.9542561651325223 9.406682888912892 5.688934409853864 0.11367361296677198 -0.21388750088421232 -0.8250765175383403
Ni 9.067488954118337 0.3563341533449373 11.263340358021429 0.9414099367254625 -1.1318623465151862 0.43545283002865653
Ni 7.740354335041699 9.199924618213752 2.506892354351242 -0.6410379816947606 -1.6911045377883778 0.9940206209426429
Ni 4.607309453265852 6.2211370266604895 11.984583918390424 -1.2570730135872803 -0.27343810675433555 0.11666252039176683
Ni 3.4593029790505243 1.4987612876610548 8.3630189566014 -1.2532125021906095 0.7392950029961461 -0.05000795648701065
Ni 2.9370430920223742 1.1269705388702758 1.1782565046730562 -0.6487451205310312 -0.41982772189688994 1.3139501863902985
Ni 5.556695168453979 4.808343405409558 0.11101156009014972 -0.9333796102218183 -1.0934906887155231 2.8386734964055433
Ni 6.67491086718065 6.531194928284821 10.999936587970058 0.967443898895379 0.7118394778883548 -2.142274521441975
Ni 7.502505157678728 2.004278478260729 2.403233550497083 -0.6957333163551114 1.993022497149961 -0.112110125134394
Ni 6.4468360572857 4.423018197550621 11.885867483694259 -0.018671608267574295 -1.3515479421384142 -2.0437737595608994
Ni 0.6055150495476279 2.524714440258961 11.644243249192444 -0.7067435514226861 1.7993667499315913 -0.10691443986606748
Ni 0.7560103774777363 4.974806963140056 2.373252899736081 -0.7605405426384837 -3.408321970613723 0.17183505179885247
Ni 1.9402633864414607 2.8987593733174846 3.4053222809343118 -0.06506459370981697 0.4363290619860227 -0.1955930734503986
Ni 8.205698407674722 4.166658519499408 1.0142688082524023 -2.3854430306784917 -2.030277781956994 1.9316073272672736
Ni 8.808912505646147 3.3360430608748497 4.243312008756752 -0.2549783573872512 -0.2888744959140638 -1.151120680524166
P 4.985628918317567 6.832769240154611 0.5488807743494271 -1.0949639308269399 0.17206002332546494 0.1445142524967124
P 0.18423700563741813 2.6154056048234886 2.0886981467608465 -0.015467499507979815 0.5479360222317531 0.5519181468079527
P 7.596198783446352 0.8171988531737165 4.714129727171867 -0.4082361604045485 -0.3182323802508906 -0.44137999414636886
P 5.976684305343047 4.169193307617909 2.4733929313017518 0.8538988410866714 -0.6132001335468859 -1.6343134969412627
P 4.053827711110186 6.569993087382763 5.909544221972519 -1.6931431654849614 -2.7294658896299246 2.3393346663562036
P 6.510037397937774 0.32556500576330893 12.630533982832077 0.05558467924383976 -1.2984808871101055 -3.692834847124982
P 0.8775081034706593 2.699979605441522 5.714123282190113 -0.059530037044832965 -0.21245128265831797 -0.3424951094529972
P 2.7445020830948996 7.618927695357634 12.147067578171024 -0.7282986518856425 -0.4742746879918606 -1.930338744967495
