# total energy = -381163.51642379275 ev
CRYSTAL
PRIMVEC
9.27052902587201 0.00000000000000 0.00000000000000
0.00000000000000 9.27052902587201 0.00000000000000
0.00000000000000 0.00000000000000 13.56835630880351
PRIMCOORD
 96 1
Ni 1.0571369674656632 5.58902581803938 8.126522579959852 -0.06400632764863169 -1.4697644372808623 0.46764715537301393
Ni 4.711023283209634 1.8186460343813708 5.980578663722785 1.3938968394182705 1.3360560171504021 0.8443487355043909
Ni 8.68342643570281 7.201235711762643 8.845822001104478 -0.4479802730717059 0.7223465480672656 0.33292649192795565
Ni 5.152865967775204 1.6032452921417832 12.665436637439923 1.2605424601931194 0.7634834273168917 -0.12656075334208527
Ni 1.7798395998207979 1.9536434782588352 12.862693100242828 -0.14017885834615212 1.2163202571499503 -1.8731684664040902
Ni 0.4012322050538523 5.718321886557372 10.410592743625314 -0.19143508541796708 -0.7705197653383827 1.5023822233158834
Ni 0.2171194983235655 3.230241679683515 9.579055954448817 0.6106226026276967 0.08434066833060959 0.4829516469405683
Ni 0.7421299530109247 6.307352760687732 4.176910096058103 4.0847043932460485 -0.6051813770074674 0.11969976455619386
Ni 2.0938416889276232 5.118314706043895 6.262285010813683 1.2812210715883934 0.19125665085857385 -1.8655600579292129
Ni 3.3938850582939395 1.186154920112461 10.76780662269242 1.879065034394183 -0.6086945323670484 0.7495128240694123
Ni 0.4586853817250649 8.732829084955867 4.639862702300185 -0.541959235823028 -0.5992017623852649 -0.27472237278339784
Ni 2.2545092277162735 4.476349111096317 3.322130236473039 -1.1862180384479313 -0.4493524708288842 0.17972139652546468
Ni 6.398556225381215 3.530708796392243 13.018512152343668 0.35605973551130937 -0.20025345504054543 -1.7040502993157685
Ni 4.265472387028148 6.984416578579966 6.829971418882824 0.5834051616726403 -1.4196536366674002 0.47102404226504685
Ni 6.644429196574602 6.068645908442105 13.030642639592237 0.4532230095278839 0.05032471639648107 -0.21100143758566883
Ni 2.1579566677668307 8.053475446390804 12.605152241199956 -1.1793321099613754 -2.0240377145845527 1.6936370744022446
Ni 4.278460398212898 4.094264256721253 7.345500903521188 -0.8786647351774417 1.6119649540427334 0.24922937071861595
Ni 4.591674492351341 7.64945652030759 12.539060785569466 1.758155565800604 -0.7592040832152473 0.8315248442668455
Ni 0.2500669585309894 6.785202180043857 13.317260512968417 1.2191824091890937 -0.8806298293236123 0.33732436388533515
Ni 8.573867323510537 4.562194210004799 13.524163888290131 0.06281976353969826 0.710500447361957 -0.38615861177921884
Ni 8.749469684582294 3.16783247818763 7.235610833442195 1.5761980808557694 0.9984028091707388 0.843449106508257
Ni 6.250978673596752 3.1261243680376016 7.225136062680132 1.7854869066257055 -0.21779969145442493 1.131350439875774
Ni 7.756484778071998 1.2465616873357515 8.200958438779061 0.5746094177578814 -0.7098039355155646 0.0018177699350291274
Ni 4.385099293757636 5.937477193058076 9.432463859901285 -1.0217306852634016 1.2745827403362693 -0.5623951350798766
P 6.147742062209618 7.1814338617336455 10.716287511659578 -1.8687759937633492 -0.2285031939148581 -0.24507009713460373
Ni 3.3294363404092997 6.6719163151775875 3.333907516565192 -1.1809655317997403 0.7040783458856971 1.094007994671574
P 5.621398505446337 1.216237786846589 7.885019736155822 0.021209029977447343 -1.5647813543783955 1.2884466428025554
Ni 5.67185799500993 7.1807478425847 4.796264870677626 -0.6015692341761769 0.19989272926701704 0.3862244320201478
P 2.510116254401443 5.442069391700583 10.573996015533606 1.0361702577274994 0.9736495134854586 -0.08002738566723636
P 5.6653964362691935 8.518985791594963 0.9665815127520624 1.274186019118483 -0.8670065821132229 -2.348677026803052
P 6.473332312616184 4.717772228350604 5.789360096483496 -0.23578584361920035 1.5287026063779672 0.5315100154652459
Ni 0.570581594288269 3.716888831098404 4.939722599356805 0.3417494895362243 1.6405216826345037 0.18154430866681637
Ni 3.646812902086609 1.8814445980969279 8.320984905310164 -0.915923876639216 1.3587184917449247 0.018709660594361327
Ni 7.6695642977949 8.035963417034635 0.1881481680213087 -0.6209934043390595 2.096863440297027 0.4811104799667714
Ni 8.898456356780805 2.380736751122094 0.5873631059561022 0.3662629012965563 -0.6869288306896041 -0.6053127603790092
Ni 4.716270402646158 5.160356555239357 11.584635717547284 0.10266672033330707 -0.43873844275846374 0.6708003005588576
Ni 3.2591657302876693 7.31325151415046 1.0363153592422885 0.19204083732276603 0.49951289373335916 0.5672864017339069
Ni 6.471088844588554 7.702326347421528 8.499177452195639 -2.1334916330430227 1.4542761118372762 2.8514207687688824
Ni 3.236666156308092 7.987311680633802 10.755473110857881 1.075655460306315 -0.8461269104507363 -1.8324766451116827
Ni 6.758299104770378 1.0992807924805619 4.3298385972043345 -1.3959038425459702 -1.8420635174691695 0.26850518822909236
Ni 6.410459584668309 9.176340464748598 6.402703860073618 0.3193536383395274 0.3166478093725901 -0.2321135369739357
Ni 0.4577045597526548 1.748996549705407 4.0201547205242445 0.4689093099148892 -0.9560896502248243 -1.0668301487052014
Ni 4.5828489487054584 9.060570098099666 2.5009736586623994 -1.293242778639618 0.9813275988560067 1.4905435788097425
Ni 3.273961494635179 8.977135336741528 6.552661156662596 -0.6133777967753307 0.2636535165637459 1.0865327693404514
Ni 2.1887626357660626 8.884977007556948 3.137885888230387 1.2271379165907446 0.32412354892434503 0.3866790030590631
Ni 3.4328305507901096 0.42326639847563213 12.980548408872812 0.2279583771549816 -0.27038620730188917 1.3138026050688405
Ni 2.7577969787575904 3.2391970107359556 10.441650870014428 0.7597851525296979 1.0399256110048734 -1.3240484511665649
Ni 7.447692726285537 0.7844285958607877 12.579331963718326 -1.257344779191428 1.5009328924638665 -0.7599453322566461
Ni 4.553507724294513 9.240047540310055 4.84505659206696 0.41958578108941286 -0.9295725777709022 -2.4552538808240425
Ni 6.262344342199538 5.057379518665337 8.508960641491331 1.7464030532503663 2.443014144224741 -1.8303863382415573
Ni 7.64763022608675 2.8340378095808467 5.317032204223472 0.17951056606623925 0.7394752373277523 -1.3600009580017738
Ni 0.03292150272611252 7.9988349482302645 6.771410413991357 0.01445139953863963 0.2417531169462288 0.18611830119074396
Ni 0.9584892679532271 7.839724858320299 10.660480780945834 -0.1441519840612872 0.6655812182517633 -0.5529139350623187
Ni 5.466284013552522 0.23375917089708975 10.883693798007256 1.809665046533806 -1.3283385939014865 -0.43495866400105737
Ni 7.222279812682973 2.656729671165768 10.287093536915902 2.404600063222917 -2.465855567599289 1.3704954297751946
Ni 2.634044686605395 1.7662953568936606 5.287289565905105 -1.2432967857387942 0.6800341604522998 -0.9693873957749951
P 8.976041414314833 0.598784397733127 2.0128524931301843 -0.9109734746124762 -0.248167762223321 0.8288809788860949
Ni 4.16023334136842 4.257054746660016 4.976587785136445 0.5751853448660095 0.344587987426284 0.5651503292275105
P 1.6510719514580747 5.716282370168617 1.455003043425167 -0.6143982676200451 -0.021862090180413962 0.8194877105966532
Ni 1.2533569851219197 4.1336361935532535 11.86332914270025 -1.6516365616007425 -0.4271653932088837 1.0744899792433045
P 2.620630231084814 7.331959441752762 5.286951191595152 -0.5599736701225775 -0.21511597397467466 -0.1743501049112223
P 8.382458710425935 5.025655768291165 8.851493710771024 -0.8530460061680727 -1.2333952103543662 -0.45727583944101896
P 0.6888512955663308 9.068181202441334 8.897097297223572 -0.5168063907064842 -0.5717575501313831 -0.47731835991419086
Ni 8.03790095760395 0.032139997128057984 10.419358028832438 0.18511685650942314 0.8496932876457559 -1.5146229883564495
Ni 1.4218673914782352 0.7869427633363796 7.128272012954953 -0.9072327766231215 1.3572041119829272 0.884683944788328
Ni 5.489469606681044 6.551816611467071 2.7295598743552847 1.6007935108069462 0.9659737421077557 -2.386167310439026
Ni 4.387843370353415 4.70858513407217 2.7205776587686294 0.40489218363298013 -1.9080675922741204 -0.3066467322958203
Ni 6.955891160724524 6.987346065756541 6.607897749840394 1.1841950944806316 -2.4981280544797495 -1.5441675347827857
Ni 0.24864856758790113 9.26487401707862 12.391193066226057 0.2209498070476324 0.23205825825596807 0.9931554447288701
Ni 7.320065352994709 4.938373737381515 10.996949070127693 -0.06965555551460907 0.2207885988794198 -0.42846405741564925
Ni 7.990602718442928 6.595425180070256 4.2127036086807435 -3.0465821539985014 0.4492768803959424 -0.03824824484792123
Ni 7.710512224563665 6.427109454823777 1.7003318345639182 -0.557233388373279 -1.95458630466095 0.39381844231732177
Ni 8.869198567131221 5.585716239172173 6.177781357457259 -0.4852034190892225 -0.49642165640254504 0.7482488697553242
Ni 8.033821924826443 7.3165054698434275 11.54109482380609 0.6947025610977519 -0.511431499547816 -0.02772034873340387
Ni 5.456883697106172 3.5377265868753662 9.738240208591101 -3.9091756946456933 -0.589436969689017 0.25106282438292893
Ni 2.0137443180238126 3.082469446789217 1.3059987572214797 0.33776582229812796 0.3464744058157194 0.5014350504567364
Ni 7.097535573923519 8.372965688689186 2.937969710645965 0.08352202908405616 1.1930700283727582 -0.6890409919366004
Ni 7.7698343398893 2.248993262937597 2.7503054642405336 1.265728375269433 2.3472410656874736 1.5486034590669522
Ni 4.934850936346394 5.149287543565844 0.5699456359961392 -0.8441713293862623 0.004677865091643557 -0.20311637841063726
Ni 2.4276734396505653 7.350389253483871 8.415556353203803 0.03994440160342153 1.1719957242009622 0.4199480495248381
Ni 2.780954760298993 5.365439198657655 13.209893880894056 -0.4468793266980433 0.15102377148045604 -0.6762739220789191
Ni 1.2985693552489896 1.1480066931137132 10.481378795161556 -2.2517366674305603 0.029541718212858798 -0.28211557992367536
Ni 6.701229728001413 1.3759411906151011 1.1634272911185048 -1.3520390228422199 -1.91137891603554 -1.449027461843827
Ni 4.781822313486533 2.46415297142215 3.572534642261077 0.16526279789797343 -0.8978963297135439 0.9610127985580545
Ni 6.6590580913993955 4.512467092235351 3.6874178192809026 0.2243043253421621 0.3443697007678908 1.1324315887550949
Ni 1.5265502053955766 0.4403566187604903 0.9694729907595737 0.44117044923872406 -0.5635603590325714 0.41360385247436515
Ni 9.084386087202892 4.6548624182865685 2.3898626599088657 0.7777931590713444 -0.4432733545143398 0.44070019447052494
Ni 6.786972851090457 4.056950377336086 1.574865421592265 0.3045798224644626 -0.026294672030470846 -0.5705463034321012
P 2.3144153863714156 3.356812212663808 7.609365190422101 -2.0969742548432793 0.34337185563099576 -0.1031508590585772
Ni 0.324346145409426 7.76534740383404 2.123420238881986 0.05174885043751733 -0.27216129692444097 0.06345919689591006
P 3.9881815929189033 3.4019967712037587 12.838799238695668 -0.49177515876946915 0.2938431527732488 0.35262911256320556
Ni 4.715371161329298 2.5865703073926154 1.350934865583164 -1.158792595247127 0.49704977690484725 -1.4573519225491225
P 2.785015252018422 1.7432859038168944 2.9751334074606866 0.04386713369659542 0.3017410674640868 -0.4309040343157095
P 8.85130644608442 1.0314297904383176 5.9807687095681 -0.9595884074067023 -0.2068989853815211 0.047128578056686576
P 8.929846368109544 2.2930931695798917 11.702585585573475 0.350680473477267 0.06815274571683747 0.49383101285723335
Ni 4.114668691137838 9.139388135995985 8.978561144107848 1.0215085419502665 -1.9889107889744326 -1.0285178833885642
