# total energy = -340897.26731845114 ev
CRYSTAL
PRIMVEC
9.01560203391186 0.00000000000000 0.00000000000000

0.00000000000000 9.01560203391186 0.00000000000000

0.00000000000000 0.00000000000000 13.19524488765720

PRIMCOORD
 96 1
Ni 6.279862757742987 1.8857033463395185 11.303126379587736 0.5654876579622713 -0.07548270371934743 0.9709598824684375
Ni 4.6085864930124725 0.33631531803808323 6.1372007708327665 0.01131028280649665 0.12767944032756076 -1.0275994853393529
Ni 2.700695749774208 1.5475371251794066 4.8537126015129495 0.9130465550914211 0.13987881060723006 0.44726370662065557
Ni 3.6515622932580616 4.476228437803013 4.941104439423675 -0.4988837447897924 -0.8849675374670178 0.28621597524529413
Ni 5.137973635839543 4.599002907923741 2.618028988951915 -0.13231076845198503 -0.3002572838297087 0.2022249769446195
Ni 7.290421603082423 6.0894983182805715 2.7369447813511223 -0.19802430859971057 -0.3283545562865571 -2.0701748752622477
Ni 4.896211248502382 4.595703197535712 11.280470171377031 0.35150734025393654 0.5688833139073816 0.767017408612079
Ni 5.458270933532238 7.777931273908409 12.329293936934812 0.9353115371372085 1.321889238731717 0.7513843300605124
Ni 1.828066601774838 6.389645745161118 0.5646615878112362 0.38191449179088416 0.1281340113664761 -1.4379172108632785
Ni 2.6207363742784864 1.4129882786467474 0.2906612102950698 0.41085045809894405 -0.0686988480282946 0.5253910470517017
Ni 0.7088895848154487 9.091152899129105 4.746303422141725 -0.9417349241650491 -0.5069955752636495 -0.7383550076803801
Ni 8.645791168368797 2.3426771726730005 1.4116007774753874 0.06102410509185619 0.32315192903969503 -0.06435394079603757
Ni 6.850712654872102 0.46096863964751483 4.59810765862994 0.22382250060973713 1.5726353032051754 1.160280492646563
Ni 0.7115663170947 7.3936141853266495 2.448523046630879 -0.02243698884727749 -0.33083207129277215 1.2624805577560967
Ni 7.470913958187211 3.8397810194080426 3.6686874295478487 1.0830170428777088 -0.51641018370933 0.1975998194677823
Ni 7.588955237177569 3.7318642616356006 12.589702392644988 0.4768090243779401 0.11680598794816657 -0.08178087802323335
Ni 8.130279037255326 8.891700732696378 6.833487445398416 -0.9271768238452162 0.7831374541023932 0.002301651549983133
Ni 6.704723009207177 0.8800670197756665 0.4922527791187241 -0.050974177055021885 -1.1642181371380724 -0.9785379519260117
Ni 1.786991518365377 6.500402417611783 9.215229222200737 0.332803078976214 -0.4118891837761035 -0.8793213949248341
Ni 0.07924263512455153 4.803377593132053 1.4597765491406192 -0.27596935781662146 -0.49992658423201003 -0.5367537803626885
Ni 6.4184505940402286 1.8911307388356764 7.024264799439443 1.1863321954282924 0.1643246023544202 -0.4332136562854926
Ni 3.4434461331562183 4.471675558715704 0.6069195182231821 0.28679113102247383 0.21124672082725554 -0.865721287642896
Ni 6.071638410415307 5.6160169244047875 4.856734631354664 0.013374621534693095 -0.5593959432422365 -0.4070665655764796
Ni 5.23929998843808 2.850219511483144 9.337720602413858 0.18356108198652904 0.3004488310152245 -0.3239397150483131
P 0.24509816013380256 5.393638081696762 12.388157704952526 -0.020668069872312792 -0.069435469084003 0.5075820438947388
P 3.982615204319388 6.255205085854296 12.565014067708974 -1.232636992032103 -1.2358385296885361 0.02288976011397993
P 2.2993301575209624 8.39942180833141 1.3746142696423513 0.9217165720615932 0.47150920943158153 0.12420536573603126
P 6.480117312767339 7.779824550360557 5.8521175135898105 -1.0849710812802862 -0.17256884464108344 0.028996644342666193
P 4.56038006829992 0.9584396492924453 12.42528936398023 0.4370744247924795 0.22680652293872552 0.44410896304175773
P 3.9332277357247816 6.169349506550456 8.18029940112108 0.6268272374120173 0.541103572690952 -0.2959522286964516
P 4.674724950407512 0.9575831670879021 3.8012862013347952 0.12498492421453312 -0.42642362994685273 -0.070653143541188
P 0.3155821377666308 5.450679796519339 3.5768346716917754 -0.20775644828580994 0.7484093065925885 0.4957971354446687
Ni 1.741507805503057 1.134667624578822 2.7150801430094575 -0.7449560579366654 -0.09423041664049578 -1.223765400574086
Ni 1.9819358837215608 6.4594084746217 4.834804179117282 0.07212021500501772 -0.023609154778507727 -1.2656034196557946
Ni 6.031834526909432 5.644055447100887 9.26460587207276 -0.39486410997301674 0.21126189033590712 -0.3177137887432593
Ni 8.597007745118448 2.450611961649749 10.168862653985373 -0.13055110544840096 0.047041160549202855 0.11292722171905067
Ni 2.365585817743993 5.317717695965624 6.924428725876812 -0.15968967468557016 -0.23681968420035343 0.5092512040670456
Ni 0.5489266573734548 0.25638659558968185 8.877074721323426 -0.4756204033864777 -1.7076878960683557 1.952377212824773
Ni 1.3587774629002398 1.1075036152915732 11.34297534110438 -0.2939125725586035 -0.7185721686264979 -0.5538768131962203
Ni 4.082931809476778 6.9085747894906095 1.5346998092736268 0.32444416548855737 -0.32436806083498326 0.011460949451748003
Ni 5.4904205708101435 7.861145281781395 7.995381286919343 0.5958634420406512 0.000537360560708752 0.3073283317438772
Ni 5.303536153778818 2.770061792740054 4.924439098843695 -0.6515332247991296 -0.5343842516892474 -0.3745950753113355
Ni 0.6609969030578239 7.257803154492558 6.58623545791024 0.26383683621914567 -0.05839335233722847 1.0887968827842798
Ni 5.134187082935247 4.440247169610045 7.14263875414925 0.04255767085655251 0.3896216306271548 -0.11486866171613765
Ni 8.013472895759941 7.290556837114721 8.923020934576199 0.6338851727000632 0.14676371065252145 0.4996414488914233
Ni 4.641745877731523 0.2841907126297998 10.229666579586432 -0.11342575862202402 -0.24573472730179616 0.15592352277491855
Ni 8.151600936347375 7.161119837002861 4.538926541416436 0.5292456449111014 0.5444593765370622 1.0058129855918807
Ni 7.1874724420963325 6.07459552792152 6.9483912948394995 -0.26169973527148477 0.02146151230788562 0.24719639944898722
Ni 2.369823150755943 5.150270917176353 2.620866198949491 0.11439917827888685 0.19129881695041892 0.4765164328381858
Ni 2.3018094481130604 5.151208539800274 11.459107115558714 -0.05734331380615931 -0.20246846041399325 0.0009415379776628944
Ni 1.1821618167212802 3.417183684084278 3.8244698222714564 -0.22887780364545746 -0.40425994936561993 -0.083035833476257
Ni 3.650173890526486 2.6770838877352756 2.8033690333344157 0.08763887946590714 0.41699410910283663 -0.02653764127921236
Ni 1.165185437867019 3.5357568836016684 8.169057846796395 -1.072233836219276 -0.20284178459301194 -0.3053691511349773
Ni 3.4365131351004954 2.760640488490079 7.3550562580383305 0.5865053978645189 -0.00444749424839234 -0.7323843919192419
Ni 4.323954917437386 6.887874966947123 5.8998578316710475 -0.6329513480318841 0.24541899583359025 0.6312737032191451
Ni 0.8587144676362971 7.2286376815273234 11.328487268444368 -0.3117989659207211 0.05690031273146975 0.3727595647644935
P 0.113644369820298 5.643947259875049 7.962235425603521 0.3578577079519966 -0.3889585431218592 0.5464738358639298
P 8.578102027403427 1.8034810547033717 7.902434034961885 -1.4469363836427531 0.9209838076606268 -0.04431450564665917
P 1.7297514602954325 3.304164095493189 10.261282493216877 0.283748230431092 -0.4744528654409377 0.8890324515650109
P 4.0777929162495195 6.154194279331118 3.7632439664896324 -0.1511932071787848 0.6285696740244207 -0.57183545455717
P 6.801307155073189 3.907875862470303 10.527074164972658 0.6547414473237821 0.6293065521904452 -1.1301561624573568
P 6.317367662699826 7.751091826298672 10.219770153102992 -0.001018413962185343 -0.49631701250388066 0.13322839517024798
P 2.439342458958391 8.466254467092238 5.851246606421822 0.6957459147606018 -0.6432115923073115 -0.4688074942297023
P 6.799368800610276 3.754213939373101 1.4443914240663773 -0.10664704513729376 0.5186588705341906 0.36633592062633685
Ni 4.902567248020309 2.6975943826335467 0.6105455934091534 0.8451946284444541 -0.1660647249739785 -0.5332743064545203
Ni 1.4747090909867757 1.051976521630715 6.972315096712928 0.4561962332235949 1.3683243902658049 -0.7871314057531347
Ni 6.988930851481067 0.6017914437185067 9.216760071446332 -0.27011649858027026 0.576356225245659 -0.6780860355869935
Ni 2.7728205669988983 1.5293165932280193 9.288343952541839 -0.29423421756408036 0.22723126918096992 0.041211441241303215
Ni 6.251851281853348 1.9191512303274683 2.5973913740632852 0.42559136385354446 0.2514374341135283 0.3702985048185106
Ni 4.103000539869549 6.8679054081780375 10.449947491673436 -0.48010183619659896 0.054984583765995625 -0.9917567646091309
Ni 8.411854323700515 7.132441206553894 0.2551199034871732 -1.5092920630618394 -1.0922635011766415 0.3257374303786842
Ni 7.47763058179126 3.924888303733177 8.176710289903935 0.8850521267610241 -0.7003792997675551 0.21234946697313106
Ni 2.9000757913897104 8.382986365606333 12.290195975077523 0.6097402000227434 -0.8117229790495698 -0.20542857148358168
Ni 0.021370583343675628 4.94314647331135 10.16192244344793 -0.24617438594237603 -0.3516014426296396 -0.13421389901196887
Ni 8.723099956831511 2.3481496431799243 5.600563280754183 -0.30797162175483084 0.006676640689227211 0.581752970781198
Ni 3.56161363057672 2.7602798644039557 11.474743775933026 -0.6472024586342596 -0.7415809708168455 0.05022161515971351
Ni 1.1056824636566498 3.0759701893964233 12.570885929391281 -0.5625388597465925 1.6603901394236564 0.01061788472516236
Ni 3.066016964619416 8.374845276862096 7.977845039171375 0.1984477692903744 -0.22960182629567555 0.33403592294205053
Ni 5.653756235017607 7.790381820481821 3.4676313874920877 -0.24026856198090232 -0.15230623773730545 -0.21400371474710242
Ni 3.1942278428384556 8.221030088528291 3.547343735488815 -0.3272145291448429 0.5202285290141556 0.44704721973447525
Ni 3.4544181209765243 4.384584841916891 9.250764218087127 -0.5113420251578031 0.07403440130859507 0.16001877589021474
Ni 7.160642010088748 6.049910809226369 11.487344883062395 0.40966595087253965 -0.008031097834592622 -0.23968569289423886
Ni 0.395454963481683 0.09079973552459276 0.525691647504521 0.5624236743249668 0.7751058420471684 -0.2916978242954718
Ni 4.543367627037046 0.2842736561696082 1.5907660359432396 -0.29016287570818416 0.1415456567866917 -0.2073211605206042
Ni 5.898457708656673 5.53539940995189 0.35672303507180925 0.4281686376624174 0.06680471632937528 0.30748953991208977
Ni 8.095659124987474 8.741960596535767 11.299141483436074 -0.5723347627910917 0.2095402796591101 0.11023964758455852
Ni 0.01659862512404708 4.880821615627065 5.887771515424621 0.20099161875815064 -0.8762365853519232 -0.9210930795449814
Ni 7.909964767440358 8.924508508931458 2.543383409365222 -0.24192872329214463 -0.5636225797290745 -0.5142555992601724
P 8.705663782267443 1.6652899049008658 3.4759969647299362 -0.7173452381979324 -0.10921454875415383 1.0848890630894412
P 1.9279594736310337 3.1311727213797704 1.4492733726322735 -0.4433903397081783 0.3626134774694271 0.9732144828305691
P 4.770732097735728 1.170946407642841 8.143326416691272 -0.5380979530954088 -1.4371397092673057 0.6213217342127557
P 8.39845713890103 1.5809759935652032 12.429049771638281 -0.1014305339333608 0.0012091898167527564 -0.5761438521245368
P 6.4371669841100365 7.610484495119138 1.2671618153807929 -0.23608743402001925 0.40902523196474716 0.22487511024396759
P 1.8993980460100564 3.2756657770872835 5.98941431565873 -0.5859587813324295 0.42050135092514673 -0.7271365132567413
P 6.8768038075031335 3.770730522517555 5.9091213628833446 0.8656261568259286 1.25964385963825 0.23067629030677692
P 2.157370486018466 8.467507635791517 10.059025572954324 1.2947358182453765 0.4512430029833777 0.8554582151539913
