# total energy = -340885.39917610114 ev
CRYSTAL
PRIMVEC
9.10844915657874 0.00000000000000 0.00000000000000

0.00000000000000 9.10844915657874 0.00000000000000

0.00000000000000 0.00000000000000 13.33113603680745

PRIMCOORD
 96 1
Ni 6.639030022659458 2.0628086483799724 11.603940792787627 -0.20347941817701087 1.8867929991660601 0.5139560657418827
Ni 5.019028619506236 0.7879336623292424 6.4910896841281955 -0.27329232520509067 -1.039804512045977 -0.7050921318621921
Ni 2.7887975711568527 1.9134847364546956 4.96855414970424 -0.8300760276354607 -0.6377911926226886 0.0009196836007919645
Ni 3.491878744849186 4.7531165611466815 4.951010366200563 -0.7000761667048395 0.792656449336422 -0.1635941519462989
Ni 3.8731948512807945 2.576379433422964 2.8542363117226675 -1.268729623989602 0.5102433927769858 -0.7491726671211743
Ni 5.067194097501896 4.6018434411482065 2.9318903931621536 -0.12441233954051477 0.6966691979058196 -0.37161131009266324
Ni 5.405117553182497 3.3136446159877844 0.722226222519693 0.8352061497731745 -1.7192223790705163 -0.15531545687727444
Ni 5.448573963076085 8.486851950704413 12.627451735126057 1.0711364893900392 -1.1391272556077154 -0.4444138958766862
Ni 2.872249180346763 5.513954409568683 11.611752198598724 -1.5039220569991776 0.5735007580747349 0.4261580349902919
Ni 0.7908793347164961 7.818683461799781 11.418104752440753 0.2585617038631354 -0.15356633539665165 0.9005072849738297
Ni 0.8735485281424449 0.27171869455891745 4.943545081449193 0.818547458170571 -0.08261905765381256 0.7603214846491421
Ni 8.64747944776445 2.6284706529118416 1.670471318730749 0.31402554125839466 0.8173125573222053 0.07355334790711848
Ni 1.504497162142827 1.2115694442267053 2.786994098266698 0.6127792439593834 1.1761861081332259 -0.31955238461389485
Ni 2.14359148203041 6.956158889409633 0.28755100050673466 -0.47307038327111434 -0.5412007603904486 0.07711252601328655
Ni 7.74545153232075 4.282747149426954 4.356735080168019 -0.42925441452742846 -1.0297664110836844 -0.4501680247516441
Ni 7.6939341451151035 4.255112115342454 13.319564514604627 0.04209152985341138 -0.2720605096805186 -1.0845378503976095
Ni 8.403937740001972 0.01690892461254628 6.976036257531784 -0.7968818002716792 -0.823220438166208 -0.20492926324966
Ni 6.742757039190205 0.9321131222931067 0.616754027172009 0.5019569843984774 0.5905908807878022 -1.0301500196753484
Ni 2.128808469400502 6.803146055663585 9.517364557743155 -0.9930492581683091 0.15268676100517575 -0.8854179947408751
Ni 0.014873186274416516 5.327267640090796 1.7024529046495016 0.09524394550667468 -0.38938303225378745 -0.006891584913510712
Ni 6.796961418833203 2.108050314265836 7.301756213322334 -0.6678900688905981 0.3964155136205367 0.5675298852032806
Ni 3.779122790626637 4.82316964194559 0.7748612164102991 -2.1784399156189385 0.25148319974979916 0.06864485486190759
Ni 5.890679857734442 5.659926412283974 5.058579326494276 -1.0992895547854873 1.3007748253506048 0.7178391471152153
Ni 5.570791130955393 3.3752359477212677 9.682657402350353 1.3961362702717504 0.10039052270462065 -1.1276395666830903
P 0.24547816400715888 6.200922737085841 13.04912920050138 -0.933360841168741 -0.7249091665881193 -1.331882859609319
P 4.3178237862955795 6.49830448653371 12.718916957693535 -0.4329454902257705 2.3163112088778366 -0.17399709244717776
P 2.4834459288863284 8.893316484659852 1.3679341871827397 0.2883031967916261 0.3290623809868591 0.033667567455774275
P 6.570917041484808 7.98504017324319 5.891402157735397 -0.0573523126672238 -0.26631820788010263 1.1569275170139302
P 4.8247545120611806 1.5767635960341988 12.737087402484295 -0.3317350427230158 -0.1781810486215383 0.5868206151120926
P 4.187481881961633 6.300724012123371 8.407334280611764 1.2839965774510016 2.4675524956857378 -1.0905819997091604
P 4.688036693469111 1.1748806118956687 4.321860650865866 1.872952236628226 0.16233919649327525 -0.9517262310498061
P 0.19853777239395198 5.902447973765152 3.8099321191667883 0.15249958469503413 2.645837931095624 0.04050310232036896
Ni 0.9992332825332778 7.917327963821908 2.6105033265324464 -0.46445821612207105 -0.7546378040008036 0.5181559627558431
Ni 2.221286551490128 6.932631765797154 4.9259475580967695 -0.484160836757321 0.6163132252545709 0.07436890182987838
Ni 6.099755194707285 5.836602996376605 9.650915368638724 -0.37047693937790394 0.9707457095751022 -1.174130254045462
Ni 8.97419040279969 2.8223075548077676 10.243524719360112 0.11402199744512621 0.02441956649494504 1.7789701885531104
Ni 2.3603634583577042 5.5107391270928 7.336403842245876 0.8859304156009195 -0.9738513450836196 -0.705743649403262
Ni 0.5422724184983861 0.5024475471972462 9.683497201342636 -0.4659327437850685 -0.49050092004273593 -1.1723939880806455
Ni 1.3392607899190594 1.472499181015982 11.590156066161562 1.2394486156372977 0.8806018042991545 0.16979359588879148
Ni 4.180550352318158 7.292898246728011 1.4587727484631339 0.8545017647779929 0.3640959755522245 0.4461352494431671
Ni 6.03498501429368 7.9642364758638236 8.16865375204866 -1.0134928707346416 -0.02960676712283934 -0.5859618666562232
Ni 7.230550913732493 1.2824605023281102 5.131540735039783 -1.5597810729503265 -0.6254781795832904 -0.3506375360544735
Ni 1.3272649626648452 7.522103255858648 7.17934958970507 -1.0966073799676341 1.566791957050521 -0.017244646013060624
Ni 5.046190014245846 4.465344225330701 7.4496655831272 0.21557517299928033 0.10946086043700504 -0.2888480135515026
Ni 8.261290321149847 7.649931228285104 9.028258155708587 0.8982048620928982 -0.007216572353097249 0.3146528904297484
Ni 4.546755541958011 0.8690198073293883 10.638592762001599 0.2425182772470275 -0.8755027925096922 -0.11193940388448463
Ni 8.407125697131034 7.695947112330884 4.710929869035354 -0.328222401584067 -0.5623714809307927 0.03511766963873952
Ni 7.211723749773145 5.905289809834486 7.11314756111807 -1.0527767559359287 0.8570258167514273 0.16237159239310744
Ni 2.30737961087269 5.908687261289173 2.7013546396413566 -0.5231266764975571 -1.6822766550841028 -0.8339679064906991
Ni 3.3609630082320088 4.799077794498819 9.44725591540571 0.12629541549584056 -3.1243675377090967 0.38901099362634944
Ni 0.8375318993431933 3.945024079623037 3.7985201434896396 2.4319260047313795 -2.422355587434125 -0.49856955598348324
Ni 0.6624083057948627 0.5452590789058704 0.3280608271681759 0.48632750539133657 -0.42864326330599084 0.431093010398064
Ni 1.3181747306225475 3.4533864396279945 8.32876024582932 -0.2799442833039695 0.7151322897070135 -0.7049908303976374
Ni 5.215889526450301 3.3229079085599453 4.976059511630946 1.0645794049978117 -2.3214012218062345 0.6310381901695713
Ni 4.308068637480648 7.2923972820363 6.303107693211015 0.9487622633254756 -0.8788678523271832 0.20012284299995212
Ni 8.086526511334652 7.986889188378046 0.07302607853298239 0.26293129368574075 -0.23376392809316515 1.8584152193543153
P 0.01394685701720042 5.976026024303909 8.027249636476869 1.2070534871360437 -0.6042555227590883 2.151315548598321
P 8.756261653456994 1.8437595598176337 8.059458022774232 0.161416941789322 0.233397803002998 2.4855275921069193
P 2.098686828755333 3.6625346441923594 10.952621112732537 -2.4354350463259022 -1.5127041740671818 -1.093753712568923
P 4.110132933561642 6.486718539481804 3.606112357232427 1.040520821386711 0.5106439706495141 1.3831534848588372
P 7.303627999579541 4.506878752497912 10.764345829759485 -0.1491124133903561 -1.47303873715676 0.6440371735324005
P 6.6091725270335555 8.149666279387965 10.336695954414084 -0.9070355730106509 -0.4006169532963939 1.316094486426811
P 2.84189982847809 8.816632453032494 6.194072272637934 -1.1694886415083923 1.0182617528781948 -1.0267829029753284
P 7.016001398946602 4.085758724197727 2.2271924697829393 0.2733344912969357 0.002729740226337234 -1.4688825488965411
Ni 2.691792589943958 2.1933236132437814 0.3505359249280649 1.5130489590011105 -1.7420100663889933 -0.5510038625237995
Ni 1.5656057460824808 0.9852335965122243 7.532957794460658 0.04872214779605157 -0.32301746034435985 -1.2469978887394653
Ni 6.940291971355843 1.0187891224078398 9.44115052208111 0.28943011130721763 -0.04227253551596591 -0.21468068620946898
Ni 2.8788801311752126 2.0509403394109205 9.28528310043721 -0.7887491438622157 -0.18717039660434215 2.620243370455971
Ni 6.20136905108391 1.9285227856549294 2.7515066703508704 1.121476889515804 0.46694601554093135 1.1632107789194805
Ni 4.302640001912303 7.478510219230956 10.505201348962482 0.9700463695152326 -0.35535268214195576 0.18844720643423674
Ni 7.275519326150151 6.5137979581809535 11.90247749356111 -0.5648597945702853 -0.42022495733530857 -0.8858962199288744
Ni 8.039572457048036 4.045763524901405 8.630564147237646 -1.1355675632809152 1.1369387325968292 -1.4962203174795459
Ni 3.1040956396700516 8.937729281692159 12.59508395097224 -0.09003746160507074 0.4963658634639452 -0.7698278814776807
Ni 0.00037253556165327663 5.728121369499086 10.60893109802791 1.2026682135841547 -1.1889660335067136 -0.6199662486261258
Ni 9.182318461082756 2.6039051661201817 6.08563709885001 -0.02169111182018845 0.43600510298770073 -1.0122916513376887
Ni 4.084993614486751 3.1939960307096076 11.297964310919806 -1.497080608597312 -2.3643036775967152 1.2638000478984688
Ni 1.1298575487843694 3.788768638054285 12.981113679730388 -0.7781387153362211 1.065633814404255 -0.17462778405264118
Ni 3.5667410866885083 8.900411966384251 8.311270202174391 0.055642014844336424 -0.7881469915018426 0.7027976794010606
Ni 6.139094585679914 8.51332110332457 3.7642997008213914 -0.743231876156707 0.21898111335703577 -0.2839752588402335
Ni 3.4959411130765057 8.6254552182271 3.3676048891991863 -0.5777950145747146 0.22403435951022707 1.4576969645933668
Ni 3.449897903683906 2.5680816364384618 7.163112868624309 0.5711250587537068 1.03939056443701 -0.9028984109138256
Ni 5.298985906131544 4.810253861348418 11.932232974558884 2.386023842882626 0.2689834134170916 -0.7372980271707754
Ni 8.319384008490301 0.33766295404091146 2.2064625508399884 -0.8023705913003923 -0.8656179292958124 1.642783996306119
Ni 4.530633587333896 0.7226115099098626 1.4954470072758663 -0.38684535343359827 -0.4049112097963736 -0.46245609809037774
Ni 5.891135280181451 5.770202403602708 0.5997877193311395 2.311913079810141 1.3739445646660595 2.1030957943599846
Ni 8.086353450804788 0.2558809235417361 11.598368243726027 -0.06137171823926204 -0.036806370195072095 -0.7328078526099057
Ni 0.24778533412370593 5.29729173462867 6.0445898737010975 0.5841829203789294 -0.6258278496132255 -1.1981286738425883
Ni 7.0440736385802305 6.211725357528892 3.1534397509585714 0.7382364798246448 0.2822523626118559 -1.6011493514844681
P 8.777120001530003 1.834969906590362 3.9074362433816052 0.8735297279437214 0.2580125162278847 -1.3061623149147634
P 2.206749466981604 3.621683250695662 1.7290887418852638 -1.463903350514395 1.3459210828699402 1.6174329191358403
P 4.872555652099234 1.649585645310921 8.56637417502153 1.2825392761791847 -0.20829380884651869 -0.2502074183611691
P 8.585760597745804 2.132205920855188 12.709091673821764 -0.27155785901248713 0.5548834000838637 0.23169033339358805
P 6.614282366888995 7.8453803256434425 1.644622451483418 -0.3977542870366182 0.39821785693659806 -0.1702913614608164
P 1.9702394818009443 3.712421619037714 5.9903190023808355 -0.4921495113897524 0.5172388502582125 0.6139611800826265
P 6.946166920922258 3.8998370644308147 6.249449820504427 -0.6258378769155544 1.3036930274386647 0.6912523977656224
P 2.465802863289204 8.74019434952652 10.324578073944073 0.3508797339722667 1.5276793073197754 0.6871604870844359
