# total energy = -340891.3393031016 ev
CRYSTAL
PRIMVEC
9.07282648923225 0.00000000000000 0.00000000000000
0.00000000000000 9.07282648923225 0.00000000000000
0.00000000000000 0.00000000000000 13.27899866234589
PRIMCOORD
 96 1
Ni 6.582244765477145 2.0215255047495186 11.407257271414634 -0.8976340771910927 -0.2887891352891091 0.5450062501794679
Ni 4.505248000619111 0.5415715194461062 6.116293438826665 0.19191408193691464 -1.1195537043511623 -0.4504827277785855
Ni 2.618762442787347 1.6259502772828363 4.716368132626816 0.4615754952576373 0.3803548606132482 0.6884054152351305
Ni 3.192899965019437 4.098159356554832 4.352882584564421 -0.2553023163855732 0.8438905649210499 0.4103971726116093
Ni 5.1042087756573675 4.718931206061664 2.586576591424089 -0.30798704837379864 -0.9551411702686261 -0.2983649519030023
Ni 7.157471026867401 6.016127621710206 2.9531033508682927 0.4421459257781159 1.444068832286971 -1.1076268710065893
Ni 5.228860336440962 4.462424260397947 11.996048315432995 -0.061112551040604424 -0.6052911631124543 -0.9463760224814862
Ni 5.584751021592524 7.837624524625826 12.410126664892696 0.2466243289956011 0.1628215354463325 0.39597482653869226
Ni 1.5863383175782595 6.668436615498556 0.3861422099438131 0.8074541764708868 -0.4338091237776464 0.4880069499762885
Ni 2.845555882259472 1.4634831764056369 13.878677922079591 0.24625254747847913 -0.5793086230057636 -1.1674592697831894
Ni 0.5586601878161406 0.24764097978572497 4.815522329608815 -0.8121469539608659 -0.36733427998386414 -0.18506723421841031
Ni 8.865593892112754 2.4051155286500663 1.2116714183615074 -0.30033955913086985 -0.43236082136689413 1.1499539139095745
Ni 6.955918190212072 0.8642710840783706 4.9520175578679835 -0.41785851398566104 -0.4656560930849142 0.08718405131667566
Ni 0.6117235198198478 7.7035281516451475 2.4207343991565775 0.3538411305934358 -1.042795990574133 1.0521936297389491
Ni 7.548791098790922 3.784611551829577 3.504871819813247 0.4541311231644502 0.6863500753679986 1.0698059435040737
Ni 7.749908439782985 3.84825742845065 12.597825295760373 0.07473734091289065 -0.6670210360220835 0.37651311826965483
Ni 8.097143648627133 8.6359697308294 7.086669412129288 -1.2805222457491559 1.5441207407052502 0.03291654822236266
Ni 6.9439148409933 0.6915888880496865 0.41653436354399415 -0.3123484106662879 -0.7338270379030395 0.29465690692379576
Ni 1.7924729315242005 6.489602135943606 9.209170937385467 0.1421346965209423 -0.21325038152084563 -0.14487652093213757
Ni -0.10667738456491989 4.8337478231165 1.4289529067217963 -0.3796642623041268 0.16750197164113734 -0.6190537641141854
Ni 6.267907624862222 2.088355943408225 6.962457883422117 0.8500691829279359 0.48473959207892653 0.05703195321332759
Ni 3.467235014398109 4.072011471106231 0.5047304008990601 0.5203493708627361 1.7815063247114027 -0.44306200983448213
Ni 5.63076839667764 5.523001365671922 4.958471059228009 0.7488793042504716 0.8592269381678042 -0.2918906570325683
Ni 5.075674736887121 2.8696805274391495 9.609480365624906 1.6231011731652112 -1.1558710507249577 -1.8865659707569185
P 0.16167685770489762 5.39625398200886 12.452274479553166 0.41753146966354543 0.43961673159835907 -0.1727681051360831
P 3.9480857364280797 6.134382839939581 12.685174838419965 -0.03903217420179729 -0.6439608117685103 -0.9936182432979016
P 2.4767273467783806 8.401954321608113 1.5989504534429715 0.20275693818868953 0.7536073058537601 -0.7811913861196159
P 6.41048709045027 7.810723594592828 5.765488980108999 0.3429103426135449 -0.17351038261874635 1.6711108682752704
P 4.6922933879918896 0.9108482525473088 12.476017158744853 0.6506107129848602 -0.2233401616566799 0.4192919039980779
P 3.782415927860611 6.257374073506974 8.227162693460484 1.5316868858172716 -0.13708504991217682 -0.13697294981434474
P 4.791359578558603 1.0624461074954923 3.990033948909552 0.3012083348890684 0.6833987060491585 -1.0996417959185836
P 0.3093244040742051 5.630723032546049 3.4328072676516626 -1.3563633612491865 0.9153536059580429 0.49277891744363517
Ni 1.6555549095586108 1.2036192850042442 2.6219778524344615 -1.5651194544441045 -0.7517687099831246 0.3721522701977978
Ni 1.7637302177486396 6.6630655023182745 4.704005499485851 1.1259503519061254 0.049246138620321636 -0.5021662721958061
Ni 5.939834225201781 5.845422394536223 9.213354417600717 -0.27997565076253716 -1.604395883446224 -0.8834379881963688
Ni 8.792140290241877 2.114503828856825 10.199320228365632 0.18657312933997547 0.5573897114454851 0.7091688730347271
Ni 2.8197618370372757 5.26898037441935 6.594934927648193 -0.6571374583597844 0.12815406597113413 0.2892707029112179
Ni 0.6419741373294674 -0.08109745804382895 9.323596515625995 -1.8503632955841167 0.786356218150007 -1.4594766822016092
Ni 1.7155353643471944 1.015122245420579 11.76361248527368 -0.7130728360748235 -0.2862992789877198 -2.14434760192092
Ni 4.103693780608838 6.70926433392975 1.4674352995497766 0.06063998227956007 1.1212933127500884 0.49949746711439136
Ni 5.460906942351235 8.01207682906916 8.082169856071834 0.7562712258391684 0.014827294820819625 -0.44579792070840646
Ni 5.294701837031003 3.1662077099917543 4.654129451367671 0.6977290066289016 -1.2367810961074635 0.8343484297585695
Ni 0.8387410581020288 7.3441444283611395 6.921558489663011 1.2366111461885025 -0.06499131726972032 -0.10781072642809175
Ni 5.181364090666007 4.633120414745611 7.261142584073153 -0.342348556572804 -0.49309284913962814 -0.02383592607733314
Ni 8.371905120842753 6.9677763742097545 9.371294178145213 -1.0474671707975574 0.950774151549182 -0.25538716278989565
Ni 4.517559825932695 0.14004905432794632 10.38006000144737 0.31798118347203297 1.5861693331358682 -0.2942599285956932
Ni 8.381667481960967 7.140160074252575 4.829399217462262 -0.5712638983244162 0.42672702011988445 0.06273491713537582
Ni 7.329029099715279 6.195433888233693 7.102670248623789 -0.28393129297617553 -0.11603748521325821 -0.6323075438002981
Ni 2.1864785600378616 5.292342902188311 2.3351250245847854 0.4882316643925849 0.23498443076382758 0.7137053274524999
Ni 2.146431104670019 5.629679657519475 11.504273910516101 0.10669383921482915 -1.2523560677275851 0.03386579950950942
Ni 0.9016248173123862 3.532359761709023 3.683435021861287 0.33209242606243455 -0.9124857974919447 -0.185396592533371
Ni 3.8882685925132208 2.53074695467601 2.4729349053774388 0.1585185371956044 -0.30400415246665063 1.6595730428389999
Ni 0.980010407569752 3.231169146428943 8.306598009722846 0.13175438172788276 1.231025424570609 -1.4091936176763409
Ni 3.591741409960615 2.640101730287385 6.800347344619217 1.691748342019964 0.47604489251840587 0.7312813886630503
Ni 4.135983969474753 7.177358662156552 5.768091066697013 -0.15827505372623063 0.35454586996994425 0.42807427817639826
Ni 0.5251379091362346 7.515502899030021 11.642972928287923 1.430658986638968 -0.42702372542469685 -1.4929367616322675
P 0.23858720640294967 5.567367486367154 7.909954003315899 -0.3927280374666204 -0.8516941201258688 0.46837452045734174
P 8.615737328140163 1.5995302070446944 8.012786324087232 -1.6155063915370889 -0.7019260754293847 -0.1985117897590904
P 1.8151731429719447 3.183573099564489 10.29041412644668 0.3272934620118944 1.3768936199920545 2.4613386535655417
P 3.9260841326068245 6.157954042713857 3.70930255697666 -0.993100680231535 0.6849948468916848 0.550659077589871
P 6.868283760806094 3.917954880225858 10.288475263462516 0.30608108960033736 -0.21786782568819898 -0.43759944405801404
P 6.2785681957859225 7.529801673307257 10.330171251372347 0.30425149259076634 2.69109834559532 -0.47074482046173116
P 2.3956797892793014 8.62363068703686 5.76319174048527 -0.14321250296615334 0.008078663243076408 0.574296514503153
P 6.759972360221294 3.942950516732067 1.425527007504103 0.9535529998458997 -0.6306234712296558 0.02941367727542676
Ni 5.217201754622277 2.532008077534218 0.5542498869429398 1.098390954230618 0.1628061088273648 -0.9520291070022056
Ni 1.478453339830408 1.1147509512190112 7.1510066381157955 0.16927294749863106 -0.35233934923692867 -0.7724043839556053
Ni 6.895311710407544 0.706488283429177 9.26151751611005 -0.1286811421191977 -0.28200682225995305 -0.48878959377858394
Ni 2.8136648977515506 1.8090217667283115 9.126124636248523 0.7336069514724334 -1.4313277305712186 0.01619563592325598
Ni 6.371564665545865 2.0085332174620807 2.6775507281977395 -0.0006211785237666721 -1.2446121621161081 -0.6330847882859548
Ni 3.9671295988696516 7.002452716397315 10.407096116592507 0.054024533845571474 -0.8402570819335207 0.33540477826511916
Ni 8.210535831950036 7.099586394958285 0.15036304328629782 -0.9670181242118702 0.5298246573430231 1.018204160167382
Ni 7.602583886030599 3.813889562357903 8.039371519764362 0.47864530625573054 0.2620928569448454 0.8293491767717652
Ni 3.1481618584451665 8.342491017919656 12.613269060718945 -0.007986874860218502 -0.6237647964366095 -0.07401074715951125
Ni 0.06958404144623216 4.8078993409363955 10.079742192059088 0.17406651223253247 -1.1004313816994145 0.5391631611351295
Ni 8.867217928023685 2.5993193759877804 5.816612541845909 -0.6299290162657926 -1.364517872035521 0.5872430473614918
Ni 3.871384062735342 2.6607242645082967 11.498377480692005 -1.9953812271901248 -0.6784120514678446 0.7632628266656533
Ni 1.555790111365408 3.074109450037298 12.745554497566543 -1.6143223985313166 1.6685801314336166 -0.8001478726174608
Ni 3.110065060735703 8.379535367776228 8.098754982581218 -0.7673511378024139 0.5632263727319202 -0.17950413830833603
Ni 5.706834972528113 7.938922630466778 3.786347183504219 -0.7463254274803662 -0.17674508750596013 -0.7819537182069373
Ni 3.3024452699834907 8.498824888205858 3.649453658169688 -0.36227023519739543 -0.4727407678458374 -0.03467055479899191
Ni 3.8077563317669054 4.647255878149123 9.813990036377286 -1.796070852789139 0.6087770647785258 -0.2638882582823713
Ni 7.153714876771731 5.797436216140093 11.251202844179028 1.2357192305018525 0.8489209282561058 1.7149852010607174
Ni 0.632119233382809 -0.027567782767374198 0.3982861879705139 -0.4494861681932711 0.637457977652986 0.1367567200384806
Ni 4.693881132597547 0.21223155323166604 1.4861452819828451 0.3217455356104717 -0.9055697870984016 0.4969009100318087
Ni 6.228477121684007 5.712342178103166 0.33929013483743814 -0.20032981680443565 0.7321781894457069 1.0878471172765005
Ni 7.826274418901954 8.844209240481126 11.481792354182623 -0.8870449888213369 0.28871380196648344 -0.5551232840088117
Ni 0.0782930474289218 4.86481318042948 5.618463829625109 0.12267838756854356 1.5028625053864118 0.6403957201250713
Ni 7.680174696702505 8.761809831860658 2.7412238232977666 0.44008647214592594 1.1062639292207914 0.2265581543733453
P 8.479944336638011 1.79530365333543 3.665481713143143 0.48772284307696656 -0.887647398292026 -0.6696708149401048
P 1.9479902474417787 3.1805427755742626 1.734569246679817 -0.8840805068763743 0.23853435289861497 -0.518183730669985
P 4.737702883713696 1.1927681847278646 8.181868422632915 0.24054007047473416 -0.8816384730937848 1.2310349376523058
P 8.502744349175254 1.6130577910848967 12.502282990935587 1.1524599681608798 0.024311580162171033 -0.5335869525989326
P 6.359134893490146 7.654162903648675 1.4577682031079013 -0.03426483472014099 0.12458048968726286 -0.19180146761845032
P 1.8800075598406811 3.439508457170169 6.085671742720638 -1.896698174094914 -0.8206156535535093 -1.4762145637815802
P 6.970507294931485 4.155064123221599 5.941435579046915 0.0325301114172214 -0.8731756870384123 -0.17033147067013246
P 2.1846821404268892 8.352797748616954 10.367577606999008 2.43763745329386 -0.09923584027488716 1.4913395923484767
