# total energy = -340874.3647606202 ev
CRYSTAL
PRIMVEC
9.19141721467961 0.00000000000000 0.00000000000000

0.00000000000000 9.19141721467961 0.00000000000000

0.00000000000000 0.00000000000000 13.45256817637167

PRIMCOORD
 96 1
Ni 0.5310479070243177 4.7164561693203515 8.361685770897434 -0.653555654545797 2.1346028638293304 -1.727459422268328
Ni 2.5502781481517274 5.999669903272131 5.313131713202982 1.2739078257564318 -1.3197133141263209 -0.19225475310578502
Ni 1.1517029388412425 7.774017815721005 5.71937304471095 -0.32430018371152536 0.4321561615552557 0.5406443736663463
Ni 4.141569798689681 2.6189564163279875 12.92515999488512 -2.7674446828665435 0.7366413674233829 -0.7295124696880856
Ni 0.36986721768559977 3.0844465412635502 4.229137348039527 -0.908145775355694 1.2038100404980818 -0.8359592258891152
Ni 5.803129832553051 6.328603145138275 9.933160726281747 0.2261827733117976 -0.008834567572494463 -0.8845906137435733
Ni 3.384279756758436 3.141598772462692 10.641357571480784 -1.110254024216791 -0.035043364757378355 0.282724674262584
Ni 6.766362764842604 4.771678202939593 11.538335093127706 -0.9369848110745734 -1.1867628552078078 -0.38325146543475286
Ni 3.8639154725295537 7.638306543019924 4.320614926201228 1.047538647465441 0.381702118669762 -0.6811407632529173
Ni 1.2565494330980147 4.062624717671761 6.2058582044656 1.2868736418884805 1.7749538683048656 -0.05794006684989376
Ni 8.767775444024124 8.066497897578175 3.684389633906441 -0.19853930056291613 0.8183240293058551 0.7730633576958429
Ni 8.146886031072498 6.916329925383806 12.659632824376997 -0.0003828372607154697 -0.1428648898187475 -0.0916883669449324
Ni 4.5513691277365975 4.864631003537361 0.12093055494756942 -1.0609672621665212 0.7286390659441968 -0.4786093108114725
Ni 7.756131318147263 0.9656227007218116 9.89231866463276 -0.6069857772060578 -0.45976003931545334 -0.019235965411476548
Ni 3.529173255089615 5.824472302936519 2.6915088667896185 0.7731939697364361 -0.4203496558386309 -0.039209837430242145
Ni 4.753019626333891 2.26563834503577 6.9994249311985115 1.4133768025197528 -0.8715823744093634 0.9039237668545466
Ni 5.488691455370252 2.3466974519745336 10.919045905883987 1.937007158126606 -1.3474580883397567 -0.19865911397023206
Ni 4.897205385552439 7.031342126894719 1.0703901487919782 0.06126218924459127 -0.018103651579246243 0.503691707701397
Ni 3.989304783886692 0.4163399414176648 5.615478781260262 -0.8553384017466752 2.780122021223896 -1.245201973181307
Ni 5.092982568656607 2.491894267068268 4.214460493298647 -0.17834405656196384 -0.12586424149569292 0.4846161791271847
Ni 4.6564637902536425 0.9716706531388324 1.132076506020476 0.9297543547644054 -0.3418757307014435 0.11184992949447188
Ni 5.507929091249925 7.0024443116985 12.264867896194092 2.5027866362976834 -0.7933305925853111 2.4120238664908134
Ni 3.691741848402451 0.42960499450010303 10.873871929380684 -2.019525428536496 1.9082411417375071 0.07996207964693972
Ni 8.321918185901263 5.798800675123846 9.951846877138589 -0.10690801210816427 0.8880135233821933 1.0062750128299638
P 6.2626087707397815 3.7195091193018732 6.05797381902728 -0.7900182403826265 -0.8038096377397641 0.5014643610327751
P 8.03543090795883 8.027268929620966 10.698167881965773 0.12182503842931279 -0.7368375425945891 -1.9901634304346112
P 1.6427819688360545 1.8410316431259044 9.918914949000378 -0.35603505292096105 -1.461044283799045 0.5203797098800392
P 1.4223993622966817 6.01428425637709 9.909349441279415 -0.31920579990775344 0.8883331115051409 0.464917929367309
P 8.937255982956414 6.038963211148672 6.6063273260679605 -0.176762828117773 0.39690145211801964 1.3499710845695978
P 7.346074629423026 3.4356873523031126 9.763402606554633 0.8303732471609053 -1.1526718270613696 0.708740784358373
P 5.907810881302974 1.6751817139272371 12.922214145721512 3.148537964307713 -2.3002911793004963 -0.6344477300717526
P 1.7186571165602287 6.823864269889538 3.2229529238886685 -0.21362807657523855 1.5296814253514688 0.14803717804830635
Ni 3.762341122741564 7.269960504855626 11.044787248514032 -2.8579351728486326 -0.34301061563683505 -0.7872316787764249
Ni 6.6163588386332135 5.952021597299737 5.8017161926112 0.94287649396866 0.4975295447547432 0.222086748865553
Ni 2.0300531347004216 8.33009854707322 9.35614010861273 -0.12375773667565136 -0.8519993100711133 1.9796504467184293
Ni 2.1992671225383433 3.0985921320991046 8.352147837427614 0.9576382256588669 -0.49490393420643797 -0.16349490736427327
Ni 2.2363085332383337 6.400856874545874 7.747482194705901 -0.7804185125093334 0.034885241912959275 0.1965891188150808
Ni 4.374351626825651 7.9558700019987505 8.808311431485441 -0.32880655622231114 0.23453474482091868 -0.6614227159986996
Ni 7.126813375763405 4.56407166609575 7.982283377167128 0.4295269514625248 0.6497859030907197 -1.0276030848837785
Ni 7.168340197982402 7.011176157893286 8.190273196101836 0.9024746931128458 -0.10115156924036127 -0.5985839262956079
Ni 7.937735336164735 8.201804747929184 6.078273982717603 0.6060766351282272 -0.8084137121706786 -0.5368779646453786
Ni 0.5430096171694709 3.8795592643437926 10.529822483038807 0.6637716758468504 0.05586390104715541 0.18680298596259443
Ni 5.328622927494239 8.004088175828068 6.563090900278195 0.48375691645068297 -1.7258010607292988 -2.062698364379544
Ni 3.6626142477800516 4.313936442574772 7.126794073787606 1.081293889539015 2.586288867887397 -0.2917037378327428
Ni 4.7085515506598075 4.890376162686411 4.8030374796210396 0.5832287839957763 0.5712340735277452 -0.4264588540601624
Ni 6.56693658917072 0.7915979252014145 5.159866672225265 0.0851348820971308 0.37125186987071546 0.2963101262565026
Ni 0.31132983993745356 5.735453428834929 4.545232937715925 -1.1273482606949168 -0.6851375431171361 -0.7782338461531887
Ni 5.226451135598186 3.839319240511396 9.198004535741727 -0.11938968951494276 0.07891924020472216 -0.7366781341985893
Ni 7.126142402318964 1.9970191818329857 2.95532735286868 0.034716063324946665 -0.4113353681551626 -0.13710870406126063
Ni 6.879711319867984 6.5233508895331624 2.7413640319950328 -0.9059353979679367 -0.478588484875866 2.88675775350728
Ni 7.593268599488918 -0.0034265602751752987 12.365358577912223 -0.7407188799268661 1.9930847178464641 2.2791060605824494
Ni 1.4041452080410537 5.044727629159102 12.442791670825887 0.16108809769499355 -2.6755313443949986 0.05303080247373448
Ni 5.821678112154187 8.755909324616262 2.6064487360102335 0.007258995555258467 0.5351825792208267 1.2584184718715812
Ni 8.823907427931033 3.3667333416154377 0.7716929924441195 0.08436483670032568 -0.38247782049352197 0.6219971630132255
Ni 0.8000880371278615 8.244287477521082 0.3126818973850884 0.18224030629257648 1.6878227817133125 -0.3524843594552252
Ni 1.5041294426798868 7.135609561877522 11.844151921120282 -0.014275021861775416 1.3859971249552194 -0.9184047340795408
P 8.64079601751783 4.757403932265379 2.6701461752886466 -1.4658548178138109 -0.8066288523561139 -0.1091171039443411
P 8.992808907589353 1.1115088720940818 3.5905039044783877 -0.30807009500590815 -1.0562240910545808 1.0772821972764608
P 5.081971251034129 0.9210810937113515 9.078425119100089 0.3526201137021411 0.42119220634458426 0.006853532586723681
P 5.276728186846063 4.537048899977147 2.4199282290142445 0.39082567823758496 0.8980721931697759 1.6964107804926398
P 6.45686937003117 7.867522101341602 4.55253735684329 -0.6272139313274747 -0.45729460849409626 -0.5200230978715689
P 2.4115612820762293 3.5737424363512162 0.5022557931241389 -0.6166017030292672 0.6676504420759662 0.16619456568362342
P 5.135741040759921 6.0795617002459075 7.601050972302735 0.3048117359696105 -0.9266564325653719 1.1033071605853129
P 6.98911675698014 7.7579144530544095 0.9772608729869053 0.4922950358286813 0.15549440565729994 -1.2721044539991058
Ni 1.968580937489122 6.252737188831148 0.7844047222203197 1.3900121596518833 0.5811518468620894 0.6524374817809537
Ni 8.256732656202917 0.3106965513029053 1.624088464845573 -0.44090099762742135 -0.5538657574526268 -0.06092743161299185
Ni 6.997297118152098 4.051098680694642 4.087428675715183 0.6125930960905063 0.8833791099339755 -0.9147666231063214
Ni 0.2926629910564087 8.598193799504317 7.821376592056415 -0.978055355862638 0.5252174975883149 0.5607552854836084
Ni 0.8847740772334278 1.3866631328173857 5.752694688931961 0.6409983867060768 -0.9700386562057486 0.02864543165083454
Ni 9.003866182297067 6.777613059308308 1.8136890156940602 0.7869370303541414 -1.057016247938573 -1.0057831607952097
Ni 7.083613715641827 5.20600023266829 0.8865645652742116 0.1473203544869398 0.3469590587616218 -0.6868974632310363
Ni 2.388840099135689 0.4652272504080145 7.563235644287375 0.7505062983309333 1.4242970489766826 -0.40425455004898125
Ni 3.0796853872331296 8.432536890063641 1.8736464673759903 -0.22793369456463325 -1.0769099015387067 0.7531691898750771
Ni 8.448327744550634 3.2493589459234085 6.357992701146519 -2.315193550333625 -0.579757280507408 -0.6125843543397579
Ni 8.285373111721817 2.5010489184472235 11.699926638808432 -1.1597642151317769 0.035575840222080664 1.2302288968112427
Ni 2.846738113590311 3.6301961198547748 4.317681945021484 -0.8035566411886935 -0.09992618147369242 1.1946965082325876
Ni 9.089153341077516 2.542024255643392 8.549268805704076 -0.879735342533801 -1.5834380502476344 0.4807446119869205
Ni 1.5637173993965214 4.425097440342933 2.5380020915435617 -0.34405834017505904 0.14190818233243302 -1.5296534003270108
Ni 1.815369206730278 9.197391468224685 3.8680709121765675 0.2562248281998426 0.17342270800094647 -0.5750261935803258
Ni 2.4893114788780206 0.9648046646046158 0.41380678687947187 -0.9338480652178046 -0.17575855522297473 -0.518655528100081
Ni 5.698035170036005 8.73287563349612 10.81634928407454 2.5313104547689886 0.5229032476328414 -1.086846186815812
Ni 3.3478265967494627 5.150015311434136 9.525184974376984 -0.4047402314361482 1.224639318538607 -0.5477205637868373
Ni 6.64626770970462 -0.0001810709158287376 7.7807900518013415 0.41906101893419445 3.0044299461104838 1.756731431759568
Ni 1.6014297835409534 2.1652037309616277 12.076236120702376 0.7547185366400679 2.525805722900676 0.7771089885201262
Ni 5.9652296635964825 3.147536427875147 1.0042459542956155 0.9351847817513572 -1.212634323657931 0.30327138806568416
Ni 3.6200855611029166 2.8886050182400522 2.3037652620890285 0.023032199229115174 0.24054341290884382 -1.4472839967901592
Ni 1.1614182666600739 1.9572663031040878 2.2492151210559332 0.7067067846474796 -0.056188374266109675 -1.3660965293765506
Ni 0.6362197774445587 0.3334453084945868 11.273158115609077 -0.5907716293400407 -1.4666372045057903 -0.9735487262415362
P 2.7641256571705806 2.551886646134977 6.205655993290562 0.43005094228679486 -1.7351974143425342 0.07464580964034886
P 3.908861501890088 0.8656375469412739 3.2935384111022112 -0.41625131739954113 -0.7149602829055236 0.31005421531547245
P 4.640351236169999 5.192139575761197 11.318196978281787 -1.3654830641622675 -1.138222227294943 0.7756558010133674
P 8.269122686382467 1.154019175937123 6.845554175837388 -0.9604003617850362 -0.7790483716346841 1.057706332027062
P 8.46732640358708 4.829547364668413 12.674578987637357 1.6685575057257975 -1.1186319638678413 0.07109434484366467
P 0.22251685357771953 1.2673217738772675 0.11661978035245887 0.45984925659515 -0.2980793023417834 -1.004124027925232
P 3.670849757454293 8.313471273634937 13.15431121328747 -0.4709829046144663 -0.31776675346838174 -0.4909932862981221
P 3.2197258173634165 7.889719373510455 6.575897301649981 -0.920356458489273 -0.39171682259328666 -0.05531291363969183
