# total energy = -381163.56280845375 ev
CRYSTAL
PRIMVEC
9.33028075958294 0.00000000000000 0.00000000000000

0.00000000000000 9.33028075958294 0.00000000000000

0.00000000000000 0.00000000000000 13.65580901088507

PRIMCOORD
 96 1
Ni 5.796502106817851 3.2275959615830145 5.480417393368666 -0.9976885567125333 0.5790628255435447 1.1810094976637984
Ni 2.4494225724462653 0.38559157147243517 7.596166740491333 1.4585174036121333 -0.3058610031697313 -0.917849118686387
Ni 9.281128637132676 0.9251878207592448 3.8891744327910507 -1.2127132565249823 0.49974660701072 -0.9720076070066614
Ni 2.412913184634171 8.860659543917233 5.313174913502721 0.9770461978718336 -0.48232815442395643 1.5978598820999192
Ni 0.8709443686960777 1.8079844448444622 5.935114620800483 1.7749998910514526 0.2644078782312672 1.1997908920363594
Ni 5.305729349619753 3.1354127896986568 3.0191901499640923 -1.8472044382401607 -0.7003093657615681 -0.7856928735343952
Ni 3.5905158843346197 4.068842047272218 6.258470421886254 0.6225023847844182 0.7070124888133565 -0.05580373723318132
Ni 4.678379945656145 8.096173676354812 8.667109404998136 -0.3768532752178929 -0.9886174476492006 0.5462984866283301
Ni 0.9524350390642943 1.9726359058002576 10.356319378376215 1.7860507495489757 0.8895479577488488 0.35109519241718246
Ni 3.687270893690975 6.645436343684455 13.265607220653765 -0.3549215081418081 -0.05812338650529345 0.14925510961580746
Ni 8.657893886893866 4.491298490245898 9.87588083992094 -0.4874729318496895 -1.120998921438121 1.6200698425380549
Ni 3.7903798241053512 1.1269859276890477 11.824087272143789 -0.6945410958192232 -0.47545225323972956 -0.6492521420744366
Ni 0.5903417791698707 0.1273629947173506 8.64459077287841 -1.2222808456087595 -0.1049503741611612 -0.1383873136633681
Ni 7.431577792415258 8.164331375809795 11.342446060524964 0.4001886075097237 0.44100384175387275 0.7596375712082402
Ni 6.1106993045107405 2.4139021943730112 12.66436953985165 0.65008672216059 -0.3616076619127321 -0.430409096957162
Ni 4.657293511601627 0.8835430465296251 1.523797161528987 1.1924604198132174 1.9065735242270971 -0.16083921490898104
Ni 7.774213685240081 5.207518816496803 5.58052850464069 0.014003256257627496 -1.3505264428524355 0.8497976744341041
Ni 2.3355558285518625 3.681103578244056 3.957207106486595 1.2806556860032265 -0.39075163046654 0.8441864988949139
Ni 1.282876255203607 7.42067069444635 7.10812122429949 1.6846873214081246 0.3873354056961394 1.884914808306741
Ni 9.152090857055686 8.53006904328904 1.9633634729846023 -1.1851052649997267 -0.31072475901993585 -0.48598297756772424
Ni 4.246481258760709 5.362448125114187 3.1838108209940557 -0.10829460804304575 -0.45622657224089813 -1.0104489417019953
Ni 9.07012434237916 6.550174179216916 10.145050103654933 1.374099345076369 1.7284099591070559 0.8681005865083502
Ni 2.818631104292006 6.017891003829192 4.736886402904936 1.3906703620611727 0.9373671341146567 2.7857828190540994
Ni 0.8441067497073969 1.141559825916109 1.4825974416818455 -0.29272395156714104 -0.9031853460266251 2.0694397968684357
P 2.4139675063368973 0.22173225133576743 9.997881722403276 0.626549044049966 -0.24601780575985374 0.18105502773522367
Ni 3.744204265638176 7.9634970868613335 2.028501893651956 0.30324079193806486 -0.3042646052168889 -0.10158814255714761
P 8.282825938859524 1.3549060210889554 7.893575964381437 0.746173218173218 0.26984833252054813 -0.4551302538529258
Ni 1.790060975898121 5.888274746357785 2.7716923288754245 0.29107844554391804 1.666679571976794 -3.3812636809443513
P 5.787106514298869 3.312538835756617 0.9340450560901983 0.7141159326273573 -0.22741844549111154 0.8155624074003179
P 9.085808543992277 3.289884914568842 4.927780210949997 1.2078268749669585 1.1035647851220736 0.25110576180572236
P 7.610066059434262 0.7883816490920806 12.056549346117917 0.07893106727926406 2.0729956325404943 1.0790734848489285
Ni 7.01743462941617 7.39720503885028 6.380225917989992 -0.2582297744450133 0.5749020092976357 -0.701463019750037
Ni 0.8216730231407219 5.388936791610107 4.513804993000902 -4.143979891077915 -1.770091912226874 0.690387992882798
Ni 7.615636236925654 9.009906711676564 0.3963559161488505 -0.8385673529359234 2.4212356148970686 -1.9817944896446256
Ni 7.604495881942869 4.328195855862248 0.21660059703046414 -1.2913797572889503 0.15218719566093789 0.1898119479922473
Ni 8.13549147861399 1.3521349277640915 9.979665282647506 -0.5288216699998053 0.0396096439718221 0.7038688009780524
Ni 4.418419668830035 0.611071796507185 3.5734386718346256 -0.5508696509387803 -0.9921120910660203 1.3600055859874642
Ni 7.562388325797716 5.7636501889833545 11.835570981451001 -0.9390146970204087 -0.7555438607548407 0.08103242989298304
Ni 3.462569747082576 1.8679874790942903 5.301540053650515 0.36814006371461117 0.655163108242233 1.57438828134054
Ni 8.978566299291993 9.03796286530574 6.108352738951133 1.265100254767131 -1.8165386337251876 1.1147557687418868
Ni 7.3108626225934135 3.177977529591009 3.9142738205123164 2.340063831212744 -0.7943469496649674 -1.4102189736170616
Ni 0.8017426108469793 9.269717704013793 13.170180843248454 -2.745784681394607 1.2808937701559617 -1.1924935870439979
Ni 5.053578517618258 9.191166072020431 13.389588921697946 1.0306853233535282 -1.8423864480262269 -1.0554108511246663
Ni 5.544379265658022 0.6324278756697465 5.668471997040812 0.5915666144375102 -0.6747124911290703 0.2215015657860443
Ni 2.293802823067804 2.7563701421478446 7.860952638420541 1.2828835468924809 0.14789422471253885 -0.06457248456474686
Ni 2.560751480029682 8.314259654049648 11.874599545012972 0.2406244026584243 -0.5087094726309626 -0.13309598335744174
Ni 4.30718406405217 3.1461706031786836 10.984582216806166 -0.48905518873514486 1.3784141704016388 0.1574438160741869
Ni 5.865994036392213 1.3746862158657607 10.533926866910818 0.6881840432529439 -0.4877981763995921 0.7924456188771966
Ni 4.270058877723439 4.258927853021208 8.855423390469713 0.19484693931299346 -1.3637156878491998 -0.5452134810942675
Ni 3.964734776838447 2.906438374596023 0.027382507373098462 -0.6942701015460236 -0.11587859103789075 -1.8708539593383007
Ni 7.4779492867740895 3.788467116591556 7.796511189710652 -3.5078753421290294 -1.062342802357809 -0.8555754574581459
Ni 8.255133666171998 2.0468582876160535 0.5036578746446873 0.008927127286300754 0.1879137025282699 -1.566265909343722
Ni 4.162406100678731 6.094408634661542 10.722936891311804 -0.058049852954880674 -0.3815303689785881 -0.3605062013184372
Ni 6.57562718457122 5.320639137946798 3.6478485922895794 -0.5582204348768967 1.1527224777936471 -1.623924440397455
Ni 6.316376009067297 4.389393166023129 10.054539851074104 -0.2888770670172251 0.6774792552409301 0.4026874626721775
Ni 1.5561415121012858 5.8049553410007695 11.93513627131055 0.34558891788697255 0.14521667788037573 -0.29977854442107726
P 7.536338182487886 8.88717620125482 4.532417969680266 -1.6450077434303152 0.5194191457389827 -0.9119013857433843
Ni 8.130406475711462 7.917610767091367 8.510026667628635 -0.5415398888974222 0.6138169411952784 0.27049805028940505
P 4.130431229216414 8.595548952224709 6.677868398893972 0.27709113012589054 0.23712358859401744 -0.6083129806579136
Ni 2.714150622636031 4.787394943661898 1.0583635802624207 0.8015774059751356 -0.14021742489357142 -0.599074235668465
P 5.4116933458839895 2.6474017955448677 7.520035383273965 -0.7578383132159722 -0.03316465967742676 0.6353028789831963
P 9.26475399475848 6.720078588125231 5.8567850494843325 -1.692748244039388 0.3043013719920952 -0.3620483489945765
P 2.057373513801648 1.1733667523284346 3.9394002660471927 0.6401890034309039 0.6426318085444416 -1.6531853941451011
Ni 0.8518303559509062 3.3105608162789366 2.2982589650609184 -2.759071885421816 1.869833488493586 0.31061625846652957
Ni 8.483725539771871 7.0224169992325916 3.6808824505949 0.011186612744438799 -0.430277199364988 0.08517499130644686
Ni 1.7942875929895798 7.7475570736941695 0.6865276414123649 -0.04660818677684231 -2.0113822306040716 0.9229185627894944
Ni 5.3097227096973345 4.852996146244784 12.541876951584062 0.05977377762452286 -0.511779369805538 -0.8491189031995248
Ni 6.379532678144749 7.951694281959135 2.6492538562350543 -0.7437772071372157 1.2753952089352358 1.1872063705031295
Ni 8.576216610914548 5.7503638694728965 7.870156960188144 0.6488029703521601 0.7814125009914865 -0.505651145420613
Ni 8.641929776864096 3.368604491612195 12.01215493820871 0.8827728438085441 -0.7038340910853749 -0.415343203762975
Ni 7.831454956445601 1.6054147237127527 5.881160407434524 -1.9128292753288219 1.6210481472909246 -1.1313013318053935
Ni 4.982239192493987 8.366145344216541 11.20048024371083 0.1279964573473473 -0.548009812892482 -0.7053528417227465
Ni 0.4037744222182081 8.894603104576676 10.894303355183103 -0.28057883156417485 -0.45039968114647594 0.38586396335693546
Ni 5.570653335701175 5.502075773621213 1.1162365114615205 -0.5466147323171683 0.12414674458395394 1.9109711390741606
Ni 5.684734676048345 5.880679897985936 7.764555911837501 0.4077754187180461 -0.0896836778100778 0.3736697352835887
Ni 9.020020735798289 7.181358328488668 12.85667035420442 1.406092353043198 0.6788925906486888 -0.06570685527950619
Ni 1.3929269143509753 2.7256175374382448 0.07783973158700713 0.05506428796399549 1.320243475598178 -2.446643256336896
Ni 4.5476347242375725 7.467732629566258 4.305881556886678 0.7840417110842174 1.1420187182228978 0.9225300691018242
Ni 2.746983879909417 0.5266458198763351 0.28095993927146723 1.5606675893203381 0.3129546767917191 0.07761620512258245
Ni 2.5429679652916675 5.413848640692216 7.98344522668813 1.5943359281070606 2.848456029713604 -2.048531585960859
Ni 2.85946041200111 2.410244724395414 1.8777282919938116 0.7187760571071878 -0.7835385461955537 2.19580540348058
Ni 1.8629211367528729 4.509287271156125 9.66229019139755 -1.137920379783808 -1.4100076289372039 3.4839622829568575
Ni 0.38532099333633735 5.160802101757432 0.3185992240587837 1.232035611002678 0.08276741030621874 0.3385111851045848
Ni 6.457048648996493 0.2423055199597562 8.194550288471643 -0.501924074278013 0.8607300050758918 -0.5398023373810251
Ni 1.0703044733168336 4.568861112500418 6.619189331454912 -0.6884730352482724 -1.0326393617561056 -0.9820670481251926
Ni 4.223407474947955 1.211835499057099 9.008094771192765 -0.526295561143842 0.6452345362746114 -0.30329015711876156
Ni 7.562873500386581 6.989070576528675 1.0360866024090711 -0.015316061531780074 -3.513651839601491 -0.45693131161740663
Ni 0.1419163663271908 3.2571356298204512 8.359936042507124 1.5741324565759922 -2.1998764882261597 -0.5098862665478832
P 6.691378645137753 6.81334407255398 9.984376141299775 -1.5654071608878524 -1.62979761134878 -1.988051526297931
Ni 2.121789770754037 7.1507643385485045 9.653427357898265 -0.047235535948196065 0.5835892526589885 -0.010046585602724633
P 5.35597291040895 5.781312410074153 5.52443019280317 -0.1584383187769723 -0.671412994442192 0.2172016528591098
Ni 7.266413166028932 1.2599424255991787 2.3428856969559466 -0.8585612795593471 -0.8591711452292041 1.0584568370398417
P 1.7831938894095696 3.6028318546673477 11.733685250817398 -0.14924251121031717 -0.08405501876939073 0.05698053115010186
P 5.784624659671213 6.966127416643692 13.170153785434845 1.0263882386400711 0.8691909913590514 -0.5805851757253421
P 8.39488260832624 5.165066039971112 2.0810770915518715 0.2077883299650099 0.09986164678434414 1.0684648560951469
Ni 1.4132016139972008 8.36559485766379 3.426911280857106 1.301240452133114 -1.244286146235257 -0.9454601955354364
