# total energy = -381170.58874286903 ev
CRYSTAL
PRIMVEC
9.27985392248957 0.00000000000000 0.00000000000000
0.00000000000000 9.27985392248957 0.00000000000000
0.00000000000000 0.00000000000000 13.58200423756808
PRIMCOORD
 96 1
Ni 4.341375383374967 4.704421818706746 13.143400109363164 0.07222434468304981 0.19920315939916014 -0.5850444970482763
Ni 8.143823264784466 7.4337010222893545 10.993232958099204 0.7093390800640041 0.37875589155724443 -0.24070642084926933
Ni 0.886990685559435 2.244137733496466 5.492276755480182 -0.4831519358768324 -0.49486356788680586 1.8496305311831502
Ni 5.66019106773699 1.5393514068624 11.674669316925343 2.101830554494316 1.7867940554729036 0.19648473202673258
Ni 0.7103347511441852 6.930417438275661 2.5964037628182015 1.4358220188971464 -1.8049519573288526 0.16344245685978304
Ni 4.277678467774606 5.608307405860297 5.1437904105587995 -0.9382863034948165 -1.9915924495716537 -2.387668834685217
Ni 1.6555444546817653 3.0103102921667197 7.69982773789186 0.531966386276374 -0.4628075678925255 -0.4126859686457861
Ni 1.587634485514597 -0.006829044316769493 9.257426121028297 -0.9596663118324891 0.4297431812383889 -0.5922595267394768
Ni 4.719111827068542 4.219345307596303 10.972276264553127 -0.1487771415381244 -0.46948266591985593 -1.8942258012950215
Ni 6.031255296640842 7.391236411889114 8.832662162884262 0.37865484720300596 -0.5818928387931721 -0.782321128848685
Ni 2.741259494672362 8.745575376105185 7.084481568927934 0.17094724987726043 -0.35193337204776165 0.017857339896395052
Ni 2.463457795165892 0.8980476312088859 13.556659832910785 0.3552986889755687 1.2754643716102745 -0.5846585744637672
Ni 2.7633177068492354 3.975526432234431 5.933475334476232 -0.8417907449692276 0.14534369037654324 -1.9410592167087926
Ni 3.4050010285179084 0.8818459346840214 2.390228613874288 -0.41276155907872786 1.1691459134569928 -0.7247461586476938
Ni 0.1741874933386625 5.860673026453512 12.541948665301396 0.04528509709004459 -1.333608326940858 -0.5434034244687221
Ni 6.912275324348111 0.39841752558561583 9.01324904331471 3.0910918063751023 1.1555892578184808 -1.314597075945678
Ni 0.554798835699632 4.738154086802216 4.635375067464833 -0.04175008735359262 0.6465265156131575 0.3870104182565528
Ni 3.7425371461070607 6.935363600282508 12.321010197151681 -0.7932259486866468 -0.49435526079181963 -1.06364840854311
Ni 8.827414405633096 3.8184185095779455 7.663360696919433 -0.01098221004311657 2.03828008343618 -0.1877920893487411
Ni 5.413950150566888 6.4637057575808825 3.3471216531841366 0.5411580800779712 1.0538316795630045 -0.6791494438545014
Ni 8.524575660921238 3.0264479577012517 3.7077376948393805 -0.729787320616027 0.5585847601948509 -0.43120973848158645
Ni 3.796610853450199 2.5506513002621904 12.233881651031083 -2.0952397886506753 -0.2015336073045497 0.36786958366204386
Ni 1.3810742226433208 1.838543169081404 11.450430932810084 0.7827443324290326 -1.6495886779327782 -0.2936930003486297
Ni 2.860663371862025 2.2709101113384014 9.579007386200242 0.2939079445729132 -0.27393587232636046 0.6736693945765366
P 4.721264753120303 9.025530001663416 12.438344666972627 -1.5453864947915514 0.6789692095228952 0.9684111479046549
Ni 7.879672230028596 6.5013726836330195 7.710028153047443 1.1105666703612034 0.08165875062307226 -0.16039647094460763
P 4.9381534931278255 9.329500888523182 8.89337374955854 -2.6746628257471166 0.010859568422323234 -0.7305583944540966
Ni 0.8692708049739326 1.61251377320757 2.0326016130865954 -0.19879281133461893 -1.0202744124328493 -0.11317790427727606
P 0.6518855927949901 3.1035357021494163 9.518865582541387 -0.14707224303187574 0.27480670496708803 1.8637939671677257
P 7.130101329576443 2.5937098212973995 13.293970375108161 -0.32016070762185506 0.16729525494696995 -0.25010997355135633
P 0.9585810446926732 9.293495056278223 5.961874470666761 -0.3666259410629299 0.08307954222999886 0.49658389301202227
Ni 1.2615218677949156 7.003190050766633 8.36091894552886 -1.334580203935824 0.7998560524086548 -0.3796519210089526
Ni 8.280831024388739 0.8741297363562678 10.985790515454758 0.7930811955786664 -1.8891386165801012 1.5600651798496488
Ni 6.996935429392122 4.693842785521371 8.996474779818321 -1.6948321231516104 1.1702985390041976 0.6814942899375941
Ni 6.772381530252038 2.823952270738041 7.648270726864399 -0.16561709591359863 -0.5952106389480006 -1.1852235357451457
Ni 9.156951289357517 5.249947296632566 10.087531303582166 0.27557597903294473 -0.18585990532303476 -0.045302066370909076
Ni 9.186609701691252 7.275377438801919 5.864681923239548 0.8925306945262564 -0.7657961346104681 -0.5962159402840636
Ni 3.122680040273476 6.1337327207339065 7.159468354504898 0.2540530173595044 0.618436956465793 -0.08059071436987411
Ni 8.897477300852024 1.4035871476500916 7.529360537890054 0.8550373255664887 -0.4200264681712572 0.6474549409646978
Ni 5.9641712344504265 6.192223638424622 10.92833801338987 -0.18790881743226348 0.6112723203965537 0.4090591705264761
Ni 1.7690277852290868 0.23007262811845494 3.9620604365718894 -0.2891912558235342 -0.7108627157973822 0.12542561129637753
Ni 5.573210999275133 0.5917298693556281 6.58280339959939 0.2879044186913106 0.35673285031893404 1.126911173157498
Ni 4.17868098880831 5.146170693025509 1.6820764843136113 0.5481548231107786 0.13013355829500814 1.5034746850491139
Ni 6.263028921937262 4.200432965814027 3.6067014320214823 0.404537885617355 0.2970549748423271 0.6821509496849865
Ni 6.0517916128156095 8.725976325151228 10.924549049135843 0.6174288269162527 -2.0881260604240297 -0.6548460912224463
Ni 1.5161981719523037 3.2108015307369127 0.04533579712616616 0.8835392896609234 0.6927264112079877 0.8018627984260384
Ni 5.4807094178788045 1.7485471481763484 3.3551218150342343 2.8894221877133206 -0.8488520226913832 -1.1548413239088628
Ni 5.320956736925976 2.3579180193612723 9.227667486274912 -1.1884710961481662 -1.0119370962117473 1.1439208203416171
Ni 7.792209609175828 9.017911241799212 6.366347100772952 -0.4663580042479452 -0.5152871258484802 0.937831989566217
Ni 3.468261790995715 1.7547739299898453 6.936492030488948 0.1897042187697894 -0.27428014303965664 0.3135601715862019
Ni 2.170242258711257 6.8905419070497365 4.912841764253767 -0.22316969751708662 0.2249357882785739 0.6667510701901485
Ni 2.2206875432688857 4.600877211441473 11.60089169628176 0.024593887289280227 0.08048967001563558 0.06833889358571456
Ni 2.8736180475872732 9.05619991804733 11.094555040410182 0.7217973604320149 1.232295035311652 1.514418071434495
Ni 9.208333839135955 3.4394014460777194 11.794109385544324 -0.5297917472225586 0.7703996948207507 0.24062311710684367
Ni 5.459439993263999 0.9218782954369931 0.7279358496026941 -0.0561624061241807 0.7933560465066078 -0.3739085907672722
Ni 7.3959598574078464 4.450107428842541 5.7004350091536695 0.9877766969154601 0.5873878004694723 0.15300352091464617
P 4.990593946224802 8.780467625909578 2.849409693314741 -0.6265459587261726 -0.18269102067674992 -0.7982051470687931
Ni 4.090819334247672 0.9654852558241809 4.858595451632341 -1.4845405671487724 -0.8538751869375875 0.13435222436204605
P 3.7564569266141326 2.7912686261074358 0.8884095751857892 -0.19944330043442426 -0.005702706811732115 -0.12236522720349892
Ni 1.6036886323660864 7.045543302922817 11.108055371531309 -0.7467609723558882 0.34681070610921566 -0.3816429832970524
P 0.8721438476705922 4.581222481365487 2.034190324035136 0.7664147420310737 0.9533581102262741 0.37109966056356736
P 0.9524563412695616 5.424046631361351 6.704443721523856 0.3361984778110081 -0.1496222631472391 0.2432322725949166
P 6.755158121837954 6.605028649142347 5.170872735513359 -0.22236725622044928 -0.45368632231754763 0.9011408047927706
Ni 4.556278234696815 7.7122636697968785 5.752100594469084 0.18392052220847682 1.200207410748488 0.13641373487676509
Ni 7.518500325138437 8.902330664322157 13.1446501056527 0.16844350961880022 0.49999214736262276 -1.5561802429729459
Ni 8.096672328280176 7.505851884584344 3.6466187225889293 0.3880026069664931 -0.8694990095177736 1.1228089780636663
Ni 8.580161984412813 0.7769678124461714 4.351225948047138 -0.005347380354842403 -0.8523152986496353 -0.5222704991448489
Ni 1.8547643532989786 2.7269314006037493 3.644717280571663 0.9599000251098502 1.3496206432087143 -0.6353270473529122
Ni 7.729858272357817 2.6078523182925846 9.82281790969381 0.44078324110263445 1.0504519644574941 -0.5531638462895958
Ni 2.542976861275958 5.075996439562524 3.288855307952268 -0.47759295373181615 0.7773298462816807 0.1365021808255133
Ni 5.549361775339683 5.723145595043642 6.892663281599013 1.4579859565886955 -0.17317305388398563 1.7958646503156037
Ni 5.854427684932672 3.399989907535363 1.4986518246304559 0.18583676539458316 -0.6758252645772748 -1.015749527979302
Ni 7.138378959051316 4.28348765617289 11.51065347119588 -0.6167405425999766 -0.5860749951953197 0.5485800835736552
Ni 3.116044944898438 7.54640484512828 2.827352409123235 0.30101421660039124 -0.25102220095298056 -0.16323445461403502
Ni 1.3803039947885962 8.481730576520471 0.9692296767805832 -0.8550252413816306 -0.1686823651024837 -0.4237676803812444
Ni 3.9262875286540813 7.3531890118364505 9.874904800365908 -0.9651697581492216 -0.36367637151630267 -0.6680978140260301
Ni 3.931410007880684 3.8360316718462273 7.883783205205018 0.9189266680212819 0.0656394923766805 0.48232969708585327
Ni 3.8629246877858896 8.363245404844275 0.6891933885100444 -0.3232064364267143 -0.7228314581234841 1.0188050269761746
Ni 7.793833583568319 5.650011068259485 2.3507864518148156 -0.010314237441814495 -1.3672380991801614 0.16143108285670907
Ni 5.781061161806732 7.312784528951256 13.287885575055835 1.2436996776041678 -1.180937506775282 -0.13979782085764955
Ni 6.817964171485863 8.259459521383548 1.6325842407280335 -0.547386063265554 0.06532016136404879 1.768021917071723
Ni 8.986749493170713 1.3831157904510247 0.04842877235483754 1.1071728141883062 0.2473825473178643 -2.3711757221261998
Ni 8.41548170116048 6.942796763073284 0.5780123896585923 0.6042730062605851 0.737639212560278 -0.04485083776610341
Ni 8.573712486111203 3.533898196013395 1.2580911058926059 -0.9201988498654863 -0.06709576520723283 -0.7490993906810777
Ni 2.1966248826989943 5.088784077921687 9.103677505400851 0.46579904642068165 -1.1294233980563904 1.4637344290366985
Ni 5.332259598697718 3.392668102988643 5.865455863035742 -0.9360314460223685 -1.133211661454229 -0.6424490031096742
Ni 6.421222587473299 8.67231093136963 4.391876347054624 -1.6302575817043343 1.5252172189325282 0.9845707883836529
Ni 2.338996397725326 6.242771001372636 0.5285127221900773 -0.7059046004611584 -0.5097913928412316 0.43467095755730945
P 0.5021718575438615 8.872338177256253 12.311271918708934 0.25242730883062336 -0.06274237333454355 -0.21382065220201887
Ni 4.08617012755831 3.3401070117939393 3.757420175425222 -1.0084306257203859 1.1195282504298654 0.02211791494496191
P 8.801347296670185 8.374000755249407 8.81064571004891 -0.6014725606973125 -0.03672435200422708 0.14838967629171862
Ni 6.8088884745952525 5.186408138544619 0.14765917564828482 -0.06009413707841908 -0.1428630900465346 -0.3894311118829035
P 9.019219701166875 8.925381820841869 2.4021272422517326 0.07920051889056683 1.368005316363489 -0.8459837000046526
P 4.712356093595776 5.391669221901901 9.04479961781204 0.4877758078020889 1.2442015569412508 0.5652076648280072
P 7.447175369820199 2.064980878516779 5.749846518012307 -0.09833801105096612 0.1002406273903177 -0.432204755405004
Ni 7.61956721147345 1.4532343647919814 1.8780243065262958 -0.7083803156951607 -0.7753506110681228 1.0521368083590847
