# total energy = -340889.1618167355 ev
CRYSTAL
PRIMVEC
9.11280094021309 0.00000000000000 0.00000000000000

0.00000000000000 9.11280094021309 0.00000000000000

0.00000000000000 0.00000000000000 13.33750531203924

PRIMCOORD
 96 1
Ni 6.4895353515197955 1.763390762506131 11.42352014691286 0.15920322196745484 0.8729118918540644 0.8741781601609977
Ni 4.67925011561551 0.37902417116453796 6.066124549763005 -0.1484228435224992 -0.44725393642864264 -0.1168574100113923
Ni 2.6335721198302093 1.216640934495553 4.799434290199955 -0.19676883892605468 0.7368452559040728 -0.10173958053334738
Ni 3.3830270909166775 4.476244250110133 4.997456364896656 0.1658045293340564 0.5195566997581117 -0.13047165836071722
Ni 5.253320120704919 4.5383206497969235 2.682225363800816 -0.8941823711970666 0.23349884735723658 0.5095103712657031
Ni 7.0606072451152295 6.235078612169494 2.9510967316045176 1.1055627893887088 -0.7551767072234091 -2.487908176523954
Ni 5.147028411082676 4.4112973181418775 11.309617425984332 -0.3394360109116993 1.223423700963951 1.3228721714702765
Ni 5.7380026618296 7.895631416592033 12.535387564415034 -0.4670046366930086 -0.38432618655617035 0.825065718905063
Ni 2.328056357073407 6.351266823562122 0.40043743070417687 -1.106282441163553 0.4460411470674641 -0.24775458594530234
Ni 2.7905583408232126 1.7605566814282403 0.3025613927071168 0.5259641459463522 -0.9184486999435989 1.2673995923242687
Ni 0.3132097005512176 0.10190571855218318 4.901559627253672 0.6770676216248082 0.6908045115949264 0.7041063709101552
Ni 8.86426747476991 2.40986197069471 1.2530957831900684 -0.484650631909546 0.260506486294332 1.0062084212580866
Ni 6.940974394984845 0.8295574022207691 5.0270656775599445 -0.6697592608888531 -0.1273364551658452 0.002405781228015212
Ni 0.6276241133805611 7.36738057439534 1.8191027820488734 -0.14035163647859056 0.0250739122494923 0.8842468572509095
Ni 7.59068064749063 4.029252253481132 4.079862927083671 0.24296024988045253 -1.0692194748729844 -0.3508815337444796
Ni 7.504300407820771 3.804967997889339 12.696371571160032 0.727655876095321 -0.5612512512834206 0.413051836625637
Ni 7.880139655073015 8.732988465097582 7.202212880760118 0.40617824943425535 0.7588230457267449 -0.05492441995202153
Ni 7.22974082969932 0.5156150324777108 0.19980636111165578 -0.8835775990980266 0.8679725455709181 0.6900768894002826
Ni 1.8494793925473976 6.437273438395347 9.284743954638982 0.13672201014580324 0.5641738242468541 0.42267676130991083
Ni 9.629132192167354 4.962257260165271 1.2948433466435512 -1.21586337211819 -0.39723878085278036 -0.03206602729660929
Ni 6.075559032528087 2.2188485511652307 7.062822567012449 1.1675502868350989 -0.21142798360012618 0.10319276804010616
Ni 3.352845494357275 4.220274785811505 0.4694012853063045 0.16329307576611232 -0.3280313686191834 -0.5000435694258485
Ni 5.95221727243403 5.731687490810376 4.9132167221566885 -0.5564471450265578 0.43226414788802975 1.1260549958047896
Ni 5.199982897075033 3.1219635709185605 9.183192724041556 0.29522203539864644 -0.3510435132436405 0.24950293609497678
P 0.2597804376323067 5.426208179257149 12.384980785667166 0.5223509746737972 0.49191348411954633 0.17856362877193763
P 4.284255760885045 6.000651809183193 12.777369790622169 -0.06593156969580259 0.5842731660998906 -0.41905587672787187
P 2.505938230515296 8.382008938682912 1.401344650686346 -0.5317707253258004 0.8910073159031945 -0.34961500832723014
P 6.231916470259436 7.888933507935281 5.976909317735165 0.4059982722129653 -0.5198030114409629 -0.9545390179082528
P 4.905110885761885 1.3425069404371197 13.025033848186425 0.4902309542108008 -1.3916934040090483 -0.7574953280542567
P 3.961471240434985 6.414773932989197 8.397053261678057 -0.17013632394019088 -1.2538087410137118 -1.453647991334974
P 4.704875311728143 1.1209747507151764 3.8551120960861294 1.0041114295197415 -0.9707184558815927 0.7611699486923665
P 0.09797354496662093 5.985451657292769 3.367559933960073 -0.38629102359202505 -0.7313865467823468 -0.017856568565446665
Ni 1.2533199580920493 0.6768131900437082 2.5032763813742935 0.5302735719549835 1.187487134968342 0.1296944138750605
Ni 1.8366667944910813 6.354857267114176 4.569362494760677 1.659370697020207 2.051175451341609 0.38006689705918417
Ni 5.893029630630493 5.9068993135904595 9.499170893504232 0.25668299878318374 -1.6866159058894052 -1.2277169290226662
Ni 8.95445686521327 2.2417854710142695 10.119431863762813 -0.531732158778381 -0.19632660918231348 1.7163813100772956
Ni 2.339192199765312 5.368186975967983 7.171630320961399 -0.6397442025840014 -1.2376046204500235 -0.6793618169756236
Ni 0.6634492675333327 8.970003303537649 9.01665993283248 -0.11235335149345166 0.24968445597816355 1.0070327169315947
Ni 1.579011462027148 1.1588840024323006 11.725307862824115 0.22669982215753215 0.02697292904441806 -2.4989580065802124
Ni 4.177517524019017 7.100238816201233 1.6740032985414028 1.9909938967557061 -1.3301242250469996 -0.3339562187440506
Ni 5.647822384187133 7.848326867153669 8.058454386557349 -0.7016550811561851 0.6914467731646157 0.35243910803958656
Ni 5.298783884362788 3.15244588990745 4.848022833284217 0.8148247579033451 -0.83666885036163 0.27396518290239913
Ni 0.8989595825458758 7.393862373791965 7.281584465262756 -1.4226438296439756 0.12388757738529631 -1.6078524745362568
Ni 4.862235157557781 4.681437187829959 7.129230280963939 0.33859603150890716 0.14043108356627426 0.2703147306340054
Ni 7.947455915273592 7.177788751805253 9.274501166434643 1.4080487054386204 0.4379894804075812 -0.40093011366143855
Ni 4.680617035749541 0.2996908604256519 10.861704125184993 -0.5702629678637277 -0.7884573236534098 -0.3525920886776831
Ni 8.152074746537124 7.413254414093418 4.691453978572138 -1.1642484761553755 -0.13479316855420656 0.7360451286002808
Ni 7.280881868313864 6.164126344412397 7.056274108290351 0.22752180383819526 -0.5792605433766475 0.28302420778087384
Ni 2.583050751676427 5.133969767402234 2.666594176428128 1.2742446402705603 0.46881083666381196 -0.9637602793962048
Ni 2.456729105690184 5.194241832512104 11.618247032806456 -0.42363012636211556 -0.11461849337854452 -0.6087780932197903
Ni 0.9670230924197217 3.9597215826634256 3.8010157761418113 -0.10911813238560564 -1.6598077845576251 -0.19834081139886484
Ni 3.5701675700664026 2.710438595367214 3.1731255689751587 -0.9343671709460684 1.2589684308377802 -1.808109786231544
Ni 1.277979197309967 3.2149870424398106 8.420700979996791 0.1393725603947729 0.23399121361262284 -1.0112850644500455
Ni 3.5890675191196038 2.498884922623697 6.805275676879148 0.09357427111373562 1.120463103539309 0.4096690361963332
Ni 3.8909928383243515 6.956520833309223 6.1045495860107035 0.749847581701012 0.1322035534501594 -0.8074084108346158
Ni 0.6691930659365305 7.394691638673278 11.155488979351542 0.2612207387525372 -0.5894469969913461 0.8063902539827467
P 0.191163780744223 5.505854059066683 8.085115708131577 0.34024076620118177 0.38743542160911343 -0.314722053104787
P 8.62515669212433 1.5647225902260782 8.15871159942789 -0.1456077426712073 -0.8356044136528576 -0.907347704934431
P 2.0956890470890457 3.119384648265689 10.724874508488409 -2.1063711226771464 0.38850268653136316 -1.6994922476314407
P 4.186384279288432 6.338818737541547 3.743370931529549 -0.25461737450340666 -0.8663146982525209 0.5723345056807756
P 6.919969388925236 3.659181409194496 10.450388744054198 1.346808884791532 0.9723667901182932 -0.649502824632662
P 6.285007648265196 7.837892710130567 10.434104168857443 0.08857347546503455 0.538436310271434 0.1887842780586813
P 2.1542752440336104 8.368585782966727 5.716828157673372 0.5486739288390422 0.04164184391050248 0.03641736228676954
P 7.177287547756108 4.142132518149404 1.7283137693067188 0.11014220277474579 -0.7687865846973598 -0.09843956962583691
Ni 5.339627457967631 3.151370579402012 0.661668626238735 1.0614832825709914 -0.19703391966198322 -0.02596788481867141
Ni 1.6479862519903479 1.1115247761885763 6.977875770923143 -1.5837118727343114 0.11202116496501353 0.411824134866123
Ni 6.599836693535197 0.7727828300938399 9.255161980378373 0.4317337293058565 -0.14777158309174548 -0.4885949612692747
Ni 2.7825664144395783 1.3497971811519511 9.445301482302163 -0.562002013406516 0.433610377503279 -0.369793283047318
Ni 6.453794946415333 1.9658042959534283 2.616431852629551 0.5128006119812007 0.2516251246443022 0.35966056548869024
Ni 3.978849351738965 6.814506944184304 10.496083061574673 0.1402793884797584 0.966282017376794 1.822721879717764
Ni 8.218734885073367 7.09601047658663 -0.028434672628111023 -0.07961600916143062 0.6309471731176618 0.23947331977311656
Ni 7.889708096011232 3.8465223699638793 8.346344169825867 -1.1334137501627062 -0.6212091198942914 -0.2715827987131516
Ni 2.910081837342876 8.360192893343779 12.52577173691217 1.3077003488258447 -0.0439308970549953 0.028251538646525538
Ni 0.16923564795409912 4.711755476402765 10.121059410002399 0.32730426064517176 0.2858930446882367 1.3739710470286208
Ni 8.725115005125565 2.5742295604114807 6.202420156327228 0.06956505268333181 0.006654786312356281 -0.801344206918407
Ni 3.859799720865766 2.5052638832491745 11.504051790969246 1.0785307249715814 -0.18145946226249393 0.2887410556599931
Ni 1.1417337111506594 3.3515059126259246 12.643248498351143 -1.1112703812964475 0.6057195088991245 0.5860130316091328
Ni 2.9608036871163157 8.424684185267356 7.884119215223225 1.207175871646521 0.266730869937489 0.8119672338498919
Ni 5.88645930118625 8.14281614082929 3.5483633713684313 -1.1404323475723843 0.8992011645678966 0.38624242974227674
Ni 3.2087994506330975 8.337620485530481 3.567395456034588 0.15958554500753805 -0.06321828452969758 0.5168845522425872
Ni 3.208462277000036 4.370216811713802 9.382121522427164 0.6376086442982374 0.43662319618767387 -0.378640963245935
Ni 7.472022867055854 5.86344036612917 11.373104487249442 -0.6867899911188946 0.1526098850206533 -0.27622955345654365
Ni 0.7198365456222865 -0.14126026049102247 0.01246084394182579 -0.7144380918534664 -0.4733472910815848 1.3812182155093373
Ni 4.529508571332871 0.36831936395489717 1.6551580262935635 0.5436726189697089 0.7231379336203093 -0.2311941104834599
Ni 6.1875189043061125 5.699646882868692 0.5363821944339978 -0.1338032938371115 0.5817444861407658 -0.41573683965696795
Ni 8.172368954127037 9.105191704793306 11.289317750713884 -0.18800857623492137 -0.9857357552260314 -1.072963772406765
Ni 0.07307646164538188 5.453072716291302 5.530863229838912 -1.0257472626219626 -1.5651837320231368 2.213629319035878
Ni 8.14377298492311 8.988411161342597 2.6021876335528598 -0.6287331961854784 0.07891538354998022 0.30301710596303294
P 8.500192853471225 1.7002663907165834 3.813659787381597 0.17244337480681268 1.5048355699523825 -0.9031485792514188
P 1.8563413316202328 3.183803037782119 1.6555444090514495 -0.32851267913097615 -0.12666128347569153 0.9490563975271269
P 4.562979889014841 1.1585286031974524 8.329312344955841 0.8681466092549371 -0.966726046892748 -0.7678319340935744
P 8.704984827951735 1.6385909542691086 12.522636933404792 0.2814738325746185 1.2059983063986521 -0.34947951119063037
P 6.622126604520793 8.039504317099233 1.3905951907523273 -0.9514683494027292 -2.218294071501399 0.6203585989685381
P 1.7346125372843333 3.388622350665311 5.864740762816678 -0.05757111354624924 -0.5658753803189931 0.8572901261564075
P 6.970827930712079 4.0550961568152095 6.3048917798149 -0.7858299133328919 0.955335545667619 -1.0136797899344672
P 2.5116337310737586 8.490988924568748 10.36981700367388 -0.9165139448147311 0.05017070731712005 -0.1435644869889334
