# total energy = -340894.3960979898 ev
CRYSTAL
PRIMVEC
9.05676114105401 0.00000000000000 0.00000000000000
0.00000000000000 9.05676114105401 0.00000000000000
0.00000000000000 0.00000000000000 13.25548540138168
PRIMCOORD
 96 1
Ni 6.324435849647442 2.134470268601469 11.516193315487888 0.37664038787613846 -1.4092465824014633 -0.32934700210681345
Ni 4.618622080462155 0.36787114210619576 6.090431786607814 0.5280210284753809 -1.123544313567794 -0.5293482319272367
Ni 2.808673672986413 1.625190482521377 4.657301695457013 -0.27876517539420376 -0.5002862815642739 0.8737572705734952
Ni 3.2899952377756163 4.325155852898612 4.816168151986892 1.0376915794680321 0.13286072741818408 -0.2606730937791833
Ni 4.954419609066715 4.433411317456431 2.804688698134456 0.5620434081674126 0.7682595085492963 -0.03869176014324304
Ni 7.27486140860019 5.918729182674121 2.6795967148271185 -0.3835882799488813 0.070501191344356 0.16598759187913992
Ni 4.909036179559542 4.590138567031691 11.442665095412668 0.17445731991304794 -0.32869728433795653 -0.054473191347215864
Ni 5.528219760704399 7.996332048785959 12.609837059267761 0.9996276827167752 -0.45041202244165013 -0.10802284243889784
Ni 1.7961730739534096 6.616380541358422 0.30157021733066014 0.04097721374331007 0.03246506250724086 -0.2718756473632221
Ni 2.8908818928300786 1.6226002488676052 0.3939011789743988 -0.19619676847266854 -0.321830124904478 -0.05966296307827144
Ni 0.7704867365409421 -0.003670705244313935 4.547798209229649 0.37148018383143766 0.4215683587370804 0.5089984646262912
Ni 8.805943087288194 2.4942772706890683 1.2184495334387526 0.22565852537721134 0.13487312986252253 1.0030878733512336
Ni 7.327182317054179 0.6715497734039823 4.795543190099707 -1.2479887918978247 0.772641696777392 1.2528803156621715
Ni 0.7086372098102628 7.389683024902713 2.68006042099171 -0.39577042383737 0.3652743121310419 -0.7114047043437812
Ni 7.867001501317904 3.7436302841047464 3.772803017049379 -1.3315997811512617 -0.558860896674373 0.2522964396797139
Ni 7.734338065791848 3.738730576389045 12.640947939072209 0.043558601317241104 0.9318888846089047 0.2844038617372199
Ni 7.861730466400089 8.928535404552033 7.301863235926609 0.471536206014775 -0.8583615048437152 -1.4946529729924258
Ni 7.176984992179512 0.6196173999980593 0.651284364929576 -0.5312292510000335 -0.32652418794603766 -1.040702084159582
Ni 1.6994649797052375 6.7864936837318455 9.082115429670349 0.17169441245593012 -1.0422113217152567 0.36579547474183455
Ni 0.16077381040220115 5.023866852623091 1.3249715339359713 -0.6663931726300975 -0.8330538793168621 -0.5900378364978096
Ni 6.41404344325031 1.847914349701659 6.930564109771628 0.5482741222974622 1.0218042188138143 0.39749126318321865
Ni 3.669075027329044 4.553268492890062 0.6514437639236542 -1.3006637536940373 0.2169928792824134 -0.3031148078831618
Ni 5.864270878617719 5.678580107277555 4.982657684273343 0.6171300647289113 0.2191099256254162 -0.6059745623327242
Ni 5.027371819140607 3.0438958703841963 9.33947053966634 0.9082180233545262 -0.42375122532101217 -0.20548050776743965
P 0.2268582785891873 5.578357989750839 12.295655302206761 0.1701268108584941 -0.6412146164819409 1.039124969480449
P 3.9839604947218565 6.24144874835544 12.565881880974574 -0.20341539770829484 0.8453283258088409 0.519157407437164
P 2.20768512474515 8.461369557248302 1.44539113422939 0.3614829634094097 0.6023737323553432 -0.620890303102292
P 6.406209344961804 7.905999914300919 5.717621087037397 -0.47471974594907923 -0.8149291446916933 1.255660963731102
P 4.958585719139215 1.0279876603894724 12.913811846651136 -0.25553165878755996 -0.4625807965937001 -0.9837282378776995
P 3.914766840474241 6.111221581545694 8.15692200693931 0.43037952927080714 1.5692643298504134 0.01845383582981338
P 4.772487393552828 0.9833106582424194 3.776872219778889 0.05082171063755763 -0.7443091683812859 0.02493378712720222
P 0.12695224202231964 5.527250687274492 3.6796958909856117 0.4382021106390195 0.0843866910771966 -0.03639113703452443
Ni 1.6124566765171693 1.3099789717315862 2.554756509476336 -0.8020108939681284 -1.070876293750117 -0.7602793185572971
Ni 1.7939451107407247 6.357565481484848 4.798406032260397 0.5620848029283094 1.0558407395732332 -0.3371775538948258
Ni 5.851890286293572 5.606162246104265 9.225778301463908 0.010534580982736696 -0.1854482717069129 0.4337649008032723
Ni 8.544229863885926 2.316456824681519 10.202097140193349 0.28940542871686936 0.7223655742306592 0.7234721770312766
Ni 2.1823352506300875 5.2648491500341565 6.989126937925545 0.6993711702180149 -0.4041889869183684 0.4854790413481123
Ni 0.42036956307631707 0.20716435173559572 9.321827063509302 0.5503898830888844 -0.4844259174932496 -0.025398128358130455
Ni 1.5405912777665376 1.1558057287659902 11.468870833444798 0.13942192557546956 0.4249419031950037 -0.8584229542092701
Ni 3.9987501854792327 7.045951773638349 1.534825743696638 -0.0004373446477347307 -0.8337930714757318 -0.13192073210241798
Ni 5.641175684235323 7.7695416959044765 8.033751868321938 0.14760986070290064 0.5454878178015767 -0.15985088285378277
Ni 5.216558500237261 2.810322003493359 4.734448091562591 0.6551209421503879 0.23661451016808283 0.14358736980706882
Ni 0.6307753295835387 7.34247012966805 6.81834359523611 0.28792473040628475 0.43753748047182717 0.31874557244188334
Ni 5.020026785947569 4.479392493191398 7.059725295808476 0.17253207786587704 0.7585422812615323 0.45821223521235926
Ni 8.164443646972378 7.206066251837771 9.104370608542425 -0.06598144909713152 -0.5112651491732808 0.02680863555241189
Ni 4.819519153566946 0.2898969580427346 10.397456909606126 -0.4071946065139116 -0.29195699149412946 0.8533270277436013
Ni 8.27012699139848 7.32531662428258 4.83035194543155 -0.22468150617592272 -1.386412101005451 0.2032786150201144
Ni 7.209453480461934 6.137884686009697 7.063543626257532 0.31142744151391527 -0.15298783718536232 -0.6998211132712399
Ni 2.184046978464224 5.428957659846564 2.4718165033416746 1.3883501985684283 -0.3262411094879801 0.772254231530986
Ni 2.3526476417461093 5.364573145704378 11.43495054636972 -0.587693247525033 -0.23688910398570812 -0.675029765259173
Ni 1.1888357362320965 3.498346025205772 3.6671694848089262 0.1366065676138615 -0.47904485568699434 0.24599723693456346
Ni 3.646451238283161 2.502872136903857 2.5519724611365824 1.3150647596107157 0.5535875640905755 0.17166021678388502
Ni 1.1638843596022301 3.17788159302022 7.998731184782058 -0.6047936546507454 0.30971611524976334 0.7336120936787559
Ni 3.89454309310056 2.5239834468582014 6.793051684391623 -1.2639697407071135 -0.2949045041582276 0.8647113583211431
Ni 3.8480275684649903 6.7980410540414935 6.058883465245754 1.1024651242999917 0.7149345718739106 -0.09123148191317192
Ni 0.5404721767337844 7.397825053066143 11.172385987430896 0.5068137982701465 -0.24618826989944698 0.6239283185976674
P 0.2641612659079147 5.463844303323241 8.110567692650024 -0.8228301447063248 0.5901450514996353 -0.7852038497131186
P 8.426374232639299 1.7902408954806102 8.12537368557725 0.10917109711072812 -0.21764542526474775 -1.498998137334999
P 1.9395053739694776 3.2374479102959484 10.305185722585165 -0.7038050376196524 -0.9622795810856201 0.9860450589363341
P 4.020613206598833 6.158851087787606 3.877892237952099 -1.079342165129283 0.47219260865185125 -1.21250422583797
P 6.817377238834512 3.87072381159909 10.390881701100396 0.25226610066241073 1.3654408980704227 0.07532200977176705
P 6.34489507280783 7.4845797669454495 10.30018820185037 -0.34062540323411017 1.042028002059857 0.5040267224433126
P 2.5637064007233903 8.542518136051788 5.8862308070803095 -1.1096343883549211 -0.1408080072897188 -0.31303360965877053
P 6.804915135661119 3.9837793595013125 1.6797085612005584 0.6009277439374361 -0.020851132417396348 -0.7466889814673721
Ni 5.2796841245966695 3.0095345190470955 0.3245589938459379 0.8673876196017255 -0.11617658189428377 0.4946866759893094
Ni 1.429718409271864 0.8476974356498125 7.089272072983531 -0.17899351722050463 0.2870970922986668 -0.20176603503032997
Ni 6.983876733558092 0.48924079663136494 9.393738651741172 -0.7054839679839721 0.47922894667334237 -0.1243290357980891
Ni 2.947377968117595 1.5854222448510524 9.107194506630698 -1.2264732864235524 -0.01658155850776499 0.5932563434351074
Ni 6.351207635243771 1.9453741551150867 2.489738022062248 0.7594113141300469 0.8064925838885658 0.7388895400276113
Ni 4.017425226717267 7.054836456206007 10.49290973677593 0.02140134849391153 -0.5259775156827909 -0.6110812874316701
Ni 8.185228913529743 7.1822288568142465 0.27580192085614247 -0.4221206316961246 -0.28537085363617953 0.5111975291601389
Ni 7.562024130488821 3.970782907427317 8.26035474625016 0.26184474548978126 -0.6604996899637979 -0.46856118254685114
Ni 3.144597996245353 8.50846471458961 12.55580804568405 -0.18457949594871437 -0.359809946582361 -0.49543383856797907
Ni 0.08996895836785147 4.732012728522383 10.139279445708864 0.1925450306526942 0.14349481009326254 0.7701317858713447
Ni 8.8912306058811 2.3842829080140304 5.765380104961999 -0.24890129795523588 0.05212783104349087 0.23175075431787828
Ni 3.8342522349426575 2.339134954293564 11.480483412433841 -0.7219169167290148 0.5122568236625887 -0.21813290642412755
Ni 1.3400293048197522 3.362730085584857 12.462528841160765 -0.6909443796069002 0.4825729234449108 0.611734861855269
Ni 3.2638211984070815 8.289626197889987 8.223796224687865 0.1929612922545064 0.8804524232054837 -0.5909539205541757
Ni 5.493034244113826 7.837204757538499 3.518058971257521 -0.5345570298216858 -0.21196765815368013 2.0062945316685186
Ni 3.0408709122011204 8.421836795364685 3.4508532760553705 0.15528743185281643 -0.3914414574447129 1.075695055294999
Ni 3.191865232046178 4.472835398207724 9.200009099313288 0.2869932197309509 -0.11503218387719545 -0.2258539292174691
Ni 7.202162787835058 5.904627805754811 11.627460153087243 -0.20629786146241247 0.17697648679047587 -1.3497067751646175
Ni 0.49262349687501467 0.0179658968496066 0.1386155388731153 0.9083383509824743 0.06456322859336622 0.685659219948561
Ni 4.809574829959108 0.23667671321874745 1.7011422918474701 -0.30315003199647145 0.32080142652964755 -0.8049054419071041
Ni 5.855250344634654 5.680264664828609 0.40465517701806614 0.8275015820400653 -0.19812612428489748 0.6544406282539117
Ni 7.846678129572924 8.829717084984528 11.504873269880022 -0.6171850863365629 0.6275080655291257 0.4756923942749936
Ni 0.13410164917717143 4.951231629185149 5.905875827424355 -1.486634987783956 -0.9665625247316904 -0.473571748387565
Ni 7.6520211648158565 8.54552498071281 2.8894572643205043 1.6514856378451752 0.9548236390282071 -0.8956841525535736
P 8.637396764572472 1.57171030865591 3.3186562637222137 -0.19118054620499977 0.2163544743674661 0.2885083708238967
P 2.009369228533104 3.346074702055883 1.4590442014778557 -1.4646777667865742 0.7570623542818962 -0.049952420658726876
P 4.895378583930562 1.056824387499997 8.380727251386237 0.35385218633702925 -0.3397625410131826 -1.3249359959778406
P 8.64461500311113 1.763595904538662 12.374061493771219 -0.6127234510207834 -1.0255112353517564 0.5445236541160944
P 6.395884637390825 7.572883186960403 1.5701516400831332 -0.8952681480620776 -0.10866073313321287 -2.4112026561410986
P 1.9138113429353827 3.205233011322288 5.922338301943451 -0.7975855112069231 -0.4043887616340004 0.697849848477482
P 6.763118183520707 3.8605983527707086 5.928449804284588 1.386833761923902 0.3501307716213841 0.033089840575433335
P 2.261953236819981 8.5248574520488 10.328461598425006 1.136182571157095 0.280977095443858 -0.21355865678988384
