# total energy = -381175.8583767451 ev
CRYSTAL
PRIMVEC
9.13474989846022 0.00000000000000 0.00000000000000
0.00000000000000 9.13474989846022 0.00000000000000
0.00000000000000 0.00000000000000 13.36962983106690
PRIMCOORD
 96 1
Ni 2.779549166439338 3.1035587526916206 10.624885447994425 0.14124638037871806 -1.215349665706565 -0.1598151445198409
Ni 3.0781915516478486 3.478348414781976 12.811381060265742 0.09214910863143486 0.5579571539131811 2.4194921498434008
Ni 1.8885456411208252 1.8775291324932453 1.2910233672010534 -0.2399733993379867 0.38143575238225275 -0.9384084308949774
Ni 5.634423482251 4.451162762047922 7.281608929126686 0.34906582069197944 -1.3694518190020284 -1.4042002782268075
Ni 0.9678176389580798 2.3994430797874142 3.250370629441816 0.1586720320543332 0.022541375635625697 0.8792427191680986
Ni 3.2792839404766543 6.258463935727873 7.397616601570145 0.20074607840624784 -0.1855356892143966 1.5626334547974572
Ni 0.8895995142272531 5.647075111147515 7.155145621712143 0.09197941582278998 -0.5975932802475644 -0.13929234197614074
Ni 1.390720029855618 6.5677757090599425 0.07336939937467463 -1.8657716597193865 0.2056039207191814 1.1975815430898664
Ni 1.8711622116695115 5.013077780055333 3.657208648803316 -0.5269799888053762 -0.2274500700599954 1.574015985602786
Ni 3.5853528775211707 2.5118370450890235 2.864496861573098 -0.6419993171667653 0.08322866621335342 0.1560849880534473
Ni 4.502134667638216 7.967036730264473 4.226126366241825 0.18226704576545386 0.5617335902364777 0.004371389594818279
Ni 8.239060453664719 0.21865394590718248 10.874603025111348 -3.274398092038348 0.15616469225144716 0.585487755233282
Ni 4.917382137947104 2.0543413555408683 9.65259178148451 -0.18068093222525655 0.7790072339841034 -0.220861103988568
Ni 1.4813915594056648 7.063984469556426 2.568385715618901 0.5360040466808575 1.1745814826502674 0.2099344297737352
Ni 5.538572549390972 2.9959605311955495 4.126135564633854 1.2036166935403527 -0.28979417951485575 0.6076889739206696
Ni 4.293168124218221 1.3356283519676135 0.8499117654426382 -0.5904733813733315 0.028793270082608475 -0.7080576422484194
Ni 5.98758205609085 6.762519446565228 2.665449743292978 1.249400841754003 -0.13233699370423013 0.08721850409903688
Ni 3.448751824439224 8.515002984860347 9.126911576721724 -0.104212210443556 -1.047494681601383 -0.817623917915037
Ni 0.33473012897643484 4.22501375367894 5.380647335662074 -0.11170569060712375 -0.057665730142584554 -1.432088005776011
Ni 8.07281713648949 1.3180348232638668 1.8834603257369331 0.0432608675711642 -1.6517018676210393 0.19582087319048858
Ni 5.238642164417545 6.379106580375008 5.791095408265382 0.9470745912104077 -0.3554943499261426 0.3041496769055794
Ni 5.489153551318661 0.8106277726126991 2.90661079998581 0.415794946588413 -0.6702333723117941 -0.2131598786895684
Ni 8.291009777516333 8.006124325967138 1.0703616032206187 0.01186281287585699 -0.1628331054105583 -0.5966581700278047
Ni 8.842730414405684 4.090449749870585 11.149790112473228 -1.9614136119954284 -1.330598850690573 1.1339462256274084
P 6.847700991301695 7.304913503596571 9.906388024523665 1.3920495017968866 0.718634389323001 0.5309929666195113
Ni 6.749484158164268 2.1441268143306536 7.176897288664044 -0.1402737320528036 2.143732336934424 -2.5067422785113216
P 3.7345416162488925 4.832465500963703 5.9239895797544 -0.33326047822860666 -1.7993898898600431 -0.4988775741422054
Ni 8.720014181484535 6.013049739385785 2.4827401255770587 -1.0516729813487888 -1.9325835751376137 -0.5227564376423319
P 6.02609416253685 8.516656374629495 1.2385424008932828 0.03659579684616278 0.12675872828550425 -0.5325813941525538
P 5.363413716112496 0.8692719548168443 7.89655847929828 -1.8715147328507509 -2.7647959323897866 0.3867157698342694
P 6.787183271850853 7.815271992006919 5.071689077159098 -0.020866559036364064 -0.8514637492826175 0.15318812612162652
Ni 7.064249377309493 7.586821026611279 12.229869262856385 -0.022940410846257264 1.7060750430552811 0.1874287924720514
Ni 8.171691671634536 5.685943472847641 13.277366586562216 0.011581534190012314 -0.9277224119360411 0.6667186742903163
Ni 2.337071006065097 8.79754994038246 0.41049740025387865 -0.8788601390176993 -0.16082096007653593 -0.6875242981817579
Ni 4.919017258216039 4.392864786872786 10.54266173534221 -0.05393428812461034 -0.33518006384882276 0.4040354920596396
Ni 2.162706896045825 4.644856003291039 1.547655036673047 -0.13199529409409524 -0.253372446352712 -1.4010954140492387
Ni 8.248277416521457 8.154445263434809 3.505971899101877 -0.5889656864795534 0.30443121270174023 -0.11060474423346113
Ni 8.595909466547306 0.9457937564530262 13.11674388112708 -0.20883374051038875 -0.35030894907046123 -0.7712944387208781
Ni 6.117560415346101 2.7109106541444508 1.5614521632328284 -1.5061362910416771 -0.8932742575605002 0.9090065806940926
Ni 0.23273242277022219 2.3538424072593234 9.644931380045795 -0.7985872129985602 -0.9906769012813905 -0.2751772009326293
Ni 7.8026112283602975 3.0956845981004317 0.20218216451642648 2.4255396415890615 0.7822617363656592 -0.855981691757629
Ni 7.3097549211526385 5.301178663641766 4.273481824265238 -0.7868532123910835 -0.29990170026250285 0.6243718338929891
Ni 8.006252212468619 1.3747524866707013 4.201700044458949 -0.628126415839415 -1.1540517381280317 0.7485944260202011
Ni 4.16399362297228 8.32764012544054 6.724749995302827 2.0249864516510674 -0.6921679676013562 0.2311581150392019
Ni 8.351582305467808 7.773279545770613 8.54630868694789 3.118517763796539 -0.5150855513606355 0.8660264775881408
Ni 7.657852843433883 6.0647158859841195 6.653356442376034 -0.08915017390411098 0.3937045424472768 -0.048578937349967946
Ni 2.3272511497013757 1.4047875450185308 8.949991563622852 2.486082693279441 1.3971215170031552 0.5358281832246256
Ni 1.6935004568620504 3.1010923701630575 7.433915358065512 -0.3914491707541968 -0.2035858618478881 -1.3038889454995544
Ni 1.0379268460199988 9.111447358267636 10.06099458353913 2.097776181919284 -1.2041175444361714 -0.4598489994848338
Ni 6.194255777234292 0.7498643283840113 12.66357989007909 0.362217270472273 0.6396159045362532 0.8988579222958648
Ni 1.5464949234096121 6.8058090273165535 9.105052119718575 0.2144695986399274 -0.36685348369270365 1.4357243169770177
Ni 0.5991135473882001 1.7823907101414684 5.603600094969041 0.627522463706829 0.9038119238670306 0.8045516581121112
Ni 3.462590970849492 5.908968396680443 12.853214561850207 1.5095016079694843 -0.7392317538583785 0.6255260021020905
Ni 4.860436105787625 6.929137288494791 10.93044831988308 -1.3001978698012122 -0.8772601415204312 0.9809391051683364
Ni 3.13023222300052 8.757731564671332 2.5262187956555753 -0.007808440300825262 2.5385252273498735 1.0687785306808237
Ni 2.4522967438995003 3.0879017910103004 5.093588727062713 1.2848730665186838 0.7199880751374181 -0.32478586509869223
P 6.987206894917282 4.671200622596131 1.773401202562363 -0.579573446631376 2.2089074880801767 -0.8241671183501935
Ni 3.6325064575672457 4.0715225476513925 8.60472084649935 0.08843437878400899 0.18580076995032518 -1.0370009811589107
P 0.7249154988950844 0.932347404297307 7.749198517541736 -1.7627436993919188 -0.10016426562642748 -0.2848741165054191
Ni 1.4239796549907902 7.916850413183276 7.14669597786429 -0.7719834943681028 0.4306914040842711 -0.3570683792814819
P 4.521061869857407 2.232158401100128 11.941633184968385 1.499642198676901 -0.40990712034906823 -0.10746105639815685
P 7.475669387324057 3.182163277351922 5.337437227236668 -0.11629742374286424 0.625227239914749 -0.4547918966769006
P 0.548397414800868 8.466058993793537 12.203330073374039 0.5921114311973867 -0.4507604069200043 1.0930829117541432
Ni 6.9536458230286184 5.568278756734992 11.102541531026052 -0.4458004918115678 -1.6641377793915468 0.059296837988104326
Ni 3.443298378626069 0.5082565824110059 11.17888246461014 -0.21716077231884534 1.0866201868479353 -0.19248229573555883
Ni 5.96409661356887 0.6938838393107137 5.308465453801153 0.15090164408029497 -0.8322504095789602 0.2068020547923406
Ni 1.0463582203676407 8.663031610324634 4.886359613112839 1.3632189507184393 1.932487930100014 -1.318406165279123
Ni 7.560841797310419 0.9445788346889564 8.738737678776369 0.9682162582850294 -1.0686718298996305 1.3251648241591953
Ni 2.532335424326411 6.7758105079691475 5.2093826463536965 1.0700049468887571 -0.31109576920610943 -0.41868280965916926
Ni 2.4792077177111507 7.566861597630133 11.61596290114687 -0.2989766173450722 -0.11520136246520805 -1.6830423296055337
Ni 2.6546040544923764 0.6240541556020318 6.6908984383608 -1.446132142573903 2.5859296847757656 -1.2164575540587632
Ni 3.7920814071652478 6.6390358946351915 2.031301688824051 -1.1632040940512611 0.008872362788965365 -0.7666823938701636
Ni 5.628769071935517 6.018274816446296 8.854919824946847 -0.7153822009342905 0.29940419180079403 -0.7925332934949965
Ni 8.266848363486524 3.873042697352842 7.313534880746413 0.042888828943726136 -0.7303943580724067 0.6254347279398649
Ni 4.311803014434028 4.930061171093937 3.674255005975726 -0.5564512587916159 1.2163135722817309 2.8933104670241336
Ni 5.581277506135528 8.945414140344843 10.148378516526105 0.8762538117431038 1.6797199501005202 0.023186465418792324
Ni 1.3980917731909883 4.323139239315309 9.302602052456356 0.3685846074511975 1.46735248540526 -0.1711035729494666
Ni 4.4279970357796445 2.141614758051562 6.247574400126763 -0.049910511677197913 2.0866821288886515 1.8130347343369873
Ni 5.860216235365855 3.908686492265625 12.673955139249243 -0.9077549676751785 0.43662653862178347 0.6030545604724518
Ni 8.394826212468606 0.07955910604635623 6.3088073705108885 -0.939703238447001 -0.9021029115957239 0.5459197631326727
Ni 1.5318701884902466 5.0161013823403495 11.627259846602698 2.0175513355292605 1.0836024830675337 0.5193967771414797
Ni 7.966159794254317 3.2589408519910656 3.005172013202226 0.08560513686532999 2.0391596578276556 0.5036824517300165
Ni 1.5795444492923512 1.5521950074756234 12.36268304854447 -0.146624871081812 0.3853309736716009 -1.3384353160158564
Ni 0.25449413794723974 6.647001396727438 4.94177648810461 -1.008326496042354 -1.83779317222859 -0.133840317722634
Ni 8.538762469885501 5.2786158308804705 9.095319043480858 -1.1116120809065824 1.8668412386344815 -0.18921082407313866
Ni 5.67479907771858 6.295459673656312 0.15222421618787463 0.36209488596179573 -0.4268126378551552 0.8112876912843641
Ni 4.513260793267065 8.412712053175738 12.838909543184544 -0.145121289953092 -1.862844715880579 0.8853449754110945
Ni 9.011303092857888 6.782515414546796 10.977322376575918 0.612546559123287 0.40097793618023847 0.15773255095919933
P 3.6100532418072198 1.1001801679909406 4.6399972297097705 0.17469129030072494 -1.0480472116707433 -1.558300117529426
Ni 4.601758252291934 4.510282864732578 1.6055593041186236 0.7410384680498141 -0.7056063524944494 -2.529904318450082
P 0.7745701735201241 0.03199994309558419 2.2258700391273036 0.6546882254883435 0.6299364724649603 0.2075682435344038
Ni 7.013332280219834 2.3543813575155643 11.247120874850394 0.33047828749777924 0.19421701903847843 -0.9397376912293623
P 3.0989000301376692 5.73731730744259 10.184716552446927 0.7714096241425037 -0.33724285991512243 -0.20145313177560145
P 0.7997300157364947 3.771117155672465 13.392491842145455 0.1538391294420641 -0.2452513599074744 -0.18546884053220314
P 7.228601801212823 3.6095691000516137 9.502210957867982 -0.4057082517763723 -0.25884298254898 -0.6986851998945838
Ni 6.592768385349378 8.054090898772627 7.383980246612226 -3.0415520477737616 0.7360968077738226 -0.9197190820155902
