# total energy = -381174.8710071917 ev
CRYSTAL
PRIMVEC
9.17869851450784 0.00000000000000 0.00000000000000

0.00000000000000 9.17869851450784 0.00000000000000

0.00000000000000 0.00000000000000 13.43395307304615

PRIMCOORD
 96 1
Ni 5.268719667840651 8.846456931555606 7.246596054534535 0.08863081106553124 -1.6407577099047097 -0.11105057352162809
Ni 1.4548053188646441 4.054956144321717 13.032076435141779 -1.458988943931913 1.6194445502492303 -0.9845494482274142
Ni 4.2153997901327305 7.450762429568704 9.653799627856454 0.5423220184790853 0.9156472259390618 -1.0475263061702669
Ni 4.3523643257615605 5.09667414741264 2.4938119344857395 -0.22952726430399825 1.3909644962628238 -0.13695546631284802
Ni 5.314548908317446 5.606284654224612 8.445375353122891 1.3314434580790555 0.30729387896151594 0.7956325012456104
Ni 5.3207353509534085 3.2853590089286846 9.323969530507103 0.6901288256841405 0.5478884568232693 0.15491513611506222
Ni 0.5432779720771203 4.197152537966123 10.478079776080365 0.36660382957574283 -0.48666714811894246 0.4418415071638197
Ni 8.506193407879401 9.089793401469553 8.833159751367596 -0.11961106149712948 -0.24828320475526272 0.2974110726301652
Ni 8.22717015908026 7.452194306499283 13.279260615371742 -0.9878268334271051 1.4469564382474112 1.0351271611749655
Ni 6.412807692769688 5.944657366056591 1.2231248778875066 -1.0928841654797756 -0.15319326832794908 -0.5939207164919836
Ni 6.788785531425907 2.9761470215098393 0.7847364803244223 0.6683089015955715 -0.8919228857389284 -0.928036343632034
Ni 5.839533734736595 3.8977984724924175 6.762584937205796 -0.2907411168091573 -0.86741255930239 0.6302758580822501
Ni 7.3730096764986195 2.7150038769463873 10.592322444134526 0.2740286891504829 0.012123779846727509 -0.5815899628407726
Ni 2.957110401291759 2.607438711885789 0.32695808265974985 -0.19505468444842536 0.352487958999651 0.8254012478676108
Ni 4.702146159546806 5.606137795052245 10.882898920449819 0.17900277319188526 -0.9066828176569224 0.4895241579517634
Ni 2.8978068317502856 8.69773448343914 4.313884468991908 -0.035019967718610656 0.7007045443174578 0.5316902497968521
Ni 2.7085787881553287 2.862689132158012 9.546919193687017 -0.4285031381837007 0.03631503238095036 -1.8684384079182725
Ni 5.236612581281903 8.409275532815414 11.62841574092379 -0.24532746456104845 0.9101226965764068 0.7821925736906206
Ni 2.975770694880649 5.403793391625255 9.44745422985229 -1.9411132098751795 0.31022365101380117 -1.3341207478009023
Ni 1.882982414599081 2.6087053722474547 7.156763216667432 -1.460760434010039 -0.6560871627183991 -0.7649520414426182
Ni 7.091710110527788 8.493701199529928 2.67084424168544 1.5847788805462448 -1.2792112402472162 1.7260170333948468
Ni 3.9644358219539706 0.7847860452950962 -0.1573421636645864 2.309357917488455 -2.274467790479489 -0.20000637202674587
Ni 6.747077526473662 4.062978326612268 2.6989484979273586 -1.474122714249558 0.43889759404414735 0.9958964978091172
Ni 0.9166004133229784 6.425676227748351 5.406440528207171 1.3633647322676843 1.7938563616363237 -1.7154659973518778
P 4.6770515984685845 3.1657881065270788 1.5648000853580903 0.2181272499971727 -0.8253734799534688 0.4337615583691626
Ni 4.18194343492786 7.1304075024465075 0.27712876547560633 -0.5407562166538623 -0.17347644405701737 0.19952094774989507
P 3.5011410266272605 0.17911495383783035 10.149351122523763 0.3847180226779503 0.0038417423435933833 0.6143800127876
Ni 5.08733941126906 4.286397021273932 4.603667905776419 0.5481473669116109 0.31999692835048116 -0.2765815374793237
P 2.7002904236148626 8.460455954385335 1.4638977373738198 0.4771093292271783 -0.6450692143413407 -0.24291345580291718
P 6.935727312077424 7.543063419401402 8.118970745969001 -0.66902161139188 -0.7313024717089727 0.924483079063137
P 7.0491668440327055 4.9732573704346725 10.55558103281777 -0.17886264806959518 0.1317078447606635 -1.1760449545696716
Ni 4.6784834753991635 7.569378747349924 2.7123952908972173 -1.2470436543757364 1.1599632185164603 -0.841435418512338
Ni 7.743085612165338 0.46134891129284666 11.345832992934403 -0.7970615203826531 0.9015802063230345 0.9813947046485163
Ni 1.1226649431599915 1.6155610404169374 2.513882076129353 -1.0476440626950538 -0.8027971373148497 -0.2884885733295548
Ni 4.1193263553098545 4.717492943059163 0.13111495121948402 -0.8937619958301961 1.1036439750994411 -0.2433122339032326
Ni 4.821634453663955 1.7587854482679128 10.948805645528846 -0.4752972157191041 -0.35580648184992275 1.6584196459608471
Ni 7.185975341790894 7.616493005584932 10.474198104580738 0.6063139479500139 -1.2058309275828525 -1.4489179328491562
Ni 0.8973407507368657 8.893066361385602 6.744529519833094 1.4578052080364572 -0.6821596914357348 0.2271104273323895
Ni 1.6555250926973235 4.003142392570965 1.975113598513729 -0.5299264730282099 1.0613693827009463 -0.8561781240391514
Ni 0.5838395576150751 1.5711544981724475 10.014985076376004 -0.7744815781996081 0.2616866226453622 -0.35904350072998165
Ni 5.695556673627239 0.9871873566513785 2.0795084411908538 -1.0024057596825446 1.0913579586432365 -0.847775758908069
Ni 9.423035220966959 4.236437366574312 5.8410023264602655 -0.895894725902483 -1.557260363411002 -1.260595939138874
Ni 8.525624712123218 6.106055596487991 6.96747918301301 -1.3216663240876334 0.2495255618027961 2.5386522398460407
Ni 6.282084671966459 6.351677562271899 12.162106562654824 1.2861123382424238 -0.2258888962204626 2.1691996279675934
Ni 5.6334260650177 3.7083226040440906 12.27102925718999 0.18318981469003934 -0.7142419166822602 -1.0781388888498014
Ni 0.3312362739247678 8.416324773089034 1.7844986536097303 0.8177691852436497 0.3350836474802745 -0.3661857682017178
Ni -0.3213710090210105 4.05989428399256 3.362424277498127 0.9147275423382699 -0.05177276169691729 0.4838862429396956
Ni 7.7583497873932386 8.721938710784885 6.542805596409355 -0.6292494737002647 0.9112444688856758 -0.3952037527006226
Ni 3.6389316451006546 6.478931035127957 4.793664206416821 0.8315245871565292 -0.08727995346459162 -1.0403819818160018
Ni 6.098547421300725 8.176806641656631 0.7288170968361823 -0.005678795552332155 1.241628911118068 -1.9898685249020118
Ni 3.318025996082082 3.7440185616275596 11.406326121772048 0.37255619050443584 -0.6192620234702496 1.8623924588345089
Ni 5.882251396498863 6.200164789880457 6.163846516554083 -0.40465615636277397 0.3325122872086725 0.25540824583581817
Ni 6.676502515453017 1.576202782222565 7.328638013307566 1.2716871639560292 1.0174701102148347 0.37683682015766073
Ni 1.6591873933082273 0.47841027564258987 0.006018472457567585 -1.03877889899494 0.404458181419355 1.8991517778417293
Ni 2.6058691544811157 5.003225820295825 6.166990220712566 -0.13786306572878193 -1.2569190045079193 1.4445074624862866
Ni 9.18989628483425 6.367079417973894 9.412149284815248 -1.5846354129898452 -0.9595223300554572 -0.163162463725519
P 3.804386860168694 3.98864922799799 7.951462256097305 -0.39900667138648055 -0.2340117824379131 -1.2360691576421035
Ni 9.074969803758751 1.552328988014645 5.61767633665116 -0.6992662692090345 0.07608177075592704 0.563141783437914
P 7.511424446454574 4.900378506147518 5.057735355729341 -0.8695506886913152 0.16341726004880242 -0.0228517077871929
Ni 7.683763685227318 4.104906620323064 8.268288891603381 -0.26931842815900714 -0.43367696907515635 1.200633185431997
P 7.17750340328497 0.4489842868493674 4.558851993588956 0.2136465885179998 0.08372668889569453 0.6757381041801073
P -0.07037491539829524 2.7715263009111597 1.1018779451812615 -0.059151313549175556 0.5263901777401773 -0.3021187625184797
P 6.2340341865076105 1.195718202714331 12.997362598273515 -0.8987008278927104 -0.6051736636979835 -1.2210166341843554
Ni 8.586433588181453 5.460600355236489 0.9516795623825053 1.5585700833613612 -1.635725289687125 -0.18896888326566164
Ni 7.1086631662379105 2.79025084538796 5.019408783220848 0.09522054846790698 0.4016559360838695 -0.006579967210362861
Ni 3.7198510490749053 6.777642591722557 7.280463615422034 -1.1188870173014407 0.812455229229904 -0.10044605853290442
Ni 8.038887521407416 0.6380507853547207 0.6279633959527583 0.312234767906559 0.9033763789915087 -0.3753460945447471
Ni 6.250968884821187 6.189939720004401 3.5650890174948424 0.20708667591229496 0.03618056368561511 0.38744493469081015
Ni 2.413043061163166 0.8262765150982726 8.439047558533527 -1.624526849868144 -2.446411599942064 0.31752481266090476
Ni 6.009257044501552 0.4369142986204497 9.513575736470905 0.23000986036737162 -0.31806474432477483 -0.9444734061421346
Ni 4.326608898407687 1.687962612393898 7.765186999736752 0.8919269995039866 0.8908391657564464 -0.08246813389824507
Ni 2.6598490790242835 7.780810062067126 11.978652838143375 1.5473382192012834 0.5017767500668713 -1.0339405970660323
Ni 1.796418111186972 6.512534249505195 0.3730617662149065 -0.6789964632164048 -0.24739668838525133 0.08593295251839393
Ni 5.134306810331699 1.6303112085415539 4.467071435948334 -0.30917824046842235 -0.7216263820717894 -0.24318239319358761
Ni 3.6311756450600194 2.9318781597394437 5.772811023381103 1.1927293572038877 0.9271961071189259 -0.2103920861364441
Ni 0.376624019014635 -0.5332887947466783 4.220545368384542 -0.3908842993896623 0.30958550320917005 -0.17032581424317764
Ni 0.0753185622881014 6.196970602881474 11.886482185826154 1.4746929849307313 -0.9017506704626277 -1.2383998626578092
Ni 3.3486461335206146 1.0842979843790972 2.472814744316559 1.0026374160773766 -0.8780862369661523 -0.8027752829379787
Ni 9.289393374112933 2.27225100835452 12.25946226162643 -0.3837566872059455 -0.5202113026229751 0.7315127879475659
Ni 1.7116436539380866 7.808795913101323 9.627536618488088 0.9596729967007085 1.1974131358328024 0.3015788308546096
Ni 7.859168609223226 4.285791227187917 12.410150786912963 1.2384003768784413 -0.004593018687321123 0.5498368387988919
Ni 0.5775503135584558 8.622854662928484 11.80911585595336 -1.5078262771495903 0.0018342249952613575 -1.085684305297227
Ni 7.76403140162419 7.042622432164099 5.069906309639261 0.5781315719785269 0.9020170367501368 -2.1141582228217333
Ni 3.298741551010633 3.1838609634265 3.3646950874508526 3.1833977522993755 -0.6920119016394662 -0.6392860320006603
Ni 8.830871501888153 6.586606344567831 2.897192776835826 -0.7929248725064602 -0.56900029910122 1.1165298299231738
Ni 7.725251401421013 1.766238551265541 2.908813926719197 1.3407819618711618 0.09017707250672856 -0.279705427820286
Ni 1.5182760174220329 2.8051019791935787 4.487047954869564 -1.352273250340213 -0.9916940296919954 1.536954047753482
Ni 0.8237881699964782 4.372713499832671 7.9636469780546335 0.5653503610534585 1.381651446392014 2.2508244400289366
P 2.1326246502265374 4.829601563764868 3.9611489301024307 -0.5464918335860589 2.244617539887276 0.6385211288101778
Ni 1.9857195843681126 6.949082318064553 2.810946974253788 0.46195730407708824 -1.0693832541443582 1.0355989586050616
P 3.1530205372294176 0.9416610132175899 5.945800113991573 -0.3534243547709913 -1.5200143345753498 0.5708016139760169
Ni 5.387602167871787 8.272494571152045 4.9561345088065 0.32022318542867434 0.4714680717810009 -0.5299454991916035
P 8.846732292503795 2.0587820226207247 8.119762867629955 -0.18481475188797203 0.5318028641153163 -1.034163768820432
P 2.476835014160107 5.653362197666527 11.596375658862435 -1.2894311182030114 0.5346817283250083 0.8802755313079872
P 1.380586364629641 6.840663534064572 7.704922420486103 0.558341019615161 -0.39344357547640624 -0.8001640705673767
Ni 2.2852755812038237 1.4025968830881541 11.472850573244846 1.1624682443265013 0.1825822630130275 0.18542333200624841
