# total energy = -381177.0202407942 ev
CRYSTAL
PRIMVEC
9.17368112657067 0.00000000000000 0.00000000000000
0.00000000000000 9.17368112657067 0.00000000000000
0.00000000000000 0.00000000000000 13.42660961864612
PRIMCOORD
 96 1
Ni 6.3090707751322865 8.681513150462443 0.8804431304108606 -0.41369255553342943 -2.1622697336169794 -1.6507024798222476
Ni 3.417957641611189 2.5906016866115515 5.719681943739799 -0.46169942243001133 0.2810012638135741 -0.7451355209373232
Ni 8.750857006228646 3.984927831024388 7.707115929880831 -0.821882693191391 1.2777256568406252 -1.2777400550183284
Ni 2.4051006802021884 0.5714827231678484 1.6394028709064532 -0.5188900127083902 2.4355710576831346 -0.42629995988479485
Ni 5.3919044817345645 6.9998489652626 12.303809035343734 -0.2677019756015067 -1.1833276042740137 0.309237375841132
Ni 1.5679105390163661 6.239781961452946 4.294098315565593 -0.044045568255988654 -0.07661938842695191 -0.2532261505828349
Ni 0.2730481976692654 4.0875629756615455 3.537025601281287 0.5646823884521565 -0.7641753111775936 -0.8878512867727161
Ni 6.948072708886829 6.101984096991494 0.7450395967279467 0.2497615890730021 0.48084977010621704 0.3067560041801749
Ni 4.035061998475412 6.220287889022311 3.6347977775441005 0.8796067873757367 -1.226460688018062 1.4180428405368546
Ni 5.201211171797794 4.128239077853282 4.573533230047192 -0.8583795025658444 0.4033916878280536 0.23223437882251619
Ni 1.2469509568372257 1.449661789072412 6.386903955428988 1.0815553707305179 -0.2927362928623152 0.3791338437219535
Ni 2.9750981843928503 4.284696209761283 13.012224544841173 0.8756071792980404 1.0442059835477824 0.8346585047998206
Ni 1.4507993255342468 9.004518463536657 12.216308629857666 1.556001037082604 0.04921322849985718 0.7096962062931068
Ni 0.7871651405404089 2.6740638376581063 8.836172240866254 0.9430230468488533 -2.1743942847946554 0.9785721475980567
Ni 1.4056097722197458 4.459390619783217 11.504053017433419 -2.3038135906314583 1.4215801642661519 -0.8719276735639242
Ni 7.658271581998629 1.3766301134863905 10.268456325747911 1.808703968172117 0.8944649354344917 -0.19557636127985029
Ni 7.4837331245561405 1.8183612079240379 0.5874274983639373 -0.6686963668419774 -0.009384269428377386 2.6343484423987857
Ni 4.396119740934229 0.4367763892518654 6.365193521634002 0.5490894191099059 -0.1040998532354078 2.478245199512893
Ni 2.86030791224012 1.5930280779881696 8.470659758843995 0.7822085145302207 -0.23327747537504984 -0.7349544666392633
Ni 4.85415246676446 2.6960439776787206 7.483898250816729 -0.8457358456599048 0.48820286803717855 0.8017746095876063
Ni 5.392344818429469 4.979116351305698 2.18908801030845 0.6220280162511609 0.15351208511994852 0.5770586506293223
Ni 6.928569462775049 2.532431374478533 12.050986052492268 -1.1824984235044989 1.5247114829407031 -0.7107459877138598
Ni 6.5090295030243235 0.6031649483661757 2.8633856822638744 -0.7151256048387942 0.8551224290811273 -0.016860008980132252
Ni 7.8895217362722665 3.9952298749489077 1.8794973711708565 -0.8288133588729533 -0.5795076263904471 -1.807296032080997
P 3.03279146510639 4.930165588722226 5.608831767638343 1.0587162613488155 -0.16958199409861763 -0.576170334487098
Ni 3.222365585943614 6.307988280757314 8.68673480976951 -0.02932034623067209 -1.0061408012449446 0.6156848476419525
P 8.407201736899673 7.417535841422271 4.241721183074903 0.08785305235924225 -1.095233896658875 -0.9613611830364088
Ni 5.242997289407934 8.413329755903751 4.454935880219773 -1.3716457413295537 2.1534827314529688 -0.2255374264183148
P 7.031277996861357 6.215490053784088 7.548198416690055 -0.5924276768862249 -0.23434062653224158 -0.1072124307224605
P 4.374910190129697 2.703538875173229 12.088970596636406 2.4743628337393515 0.7352205758164564 0.10874249421374177
P 4.702456475370107 6.955420827483036 1.0997216307918019 0.7925713458217833 -0.5287936449753473 0.045780034448592126
Ni 2.5048277679167517 2.1237530532021007 12.730829214699138 -1.3223168131874388 -1.5303062034196613 1.907594509292444
Ni 8.420320100935347 0.40493270726540664 12.419842341291453 -1.3111355997596388 -0.22179338599485027 -0.605960421265337
Ni 1.0112056988031115 8.893149974450575 3.574982624381993 -0.06350213431870354 -1.5052549168779883 0.0687124748750494
Ni 1.5973947502126322 3.07074298399841 1.7120272350496888 -1.2913085377313824 0.25472176129175483 -0.08058454372228702
Ni 0.3986019499080503 7.918840821207944 5.898148571448074 0.4623295998148425 0.7625845696517061 1.1937102330599183
Ni 5.82342526905913 0.12465931832726164 11.931140164661173 -0.07917352230737332 1.477915862743403 -0.22577859589484342
Ni 0.35323350981124474 7.231099119536237 11.06751422652318 -0.06184402988999028 -0.05178741698493661 -1.5281850433116004
Ni 2.8916543807085833 8.349242419432962 7.811117953008418 -1.448545380001086 1.1400348550236494 -0.05663703176775407
Ni 2.4923423878800004 6.695236882881762 12.523321464593844 -0.17188544542081363 -0.5147379382132296 -0.5258253063756428
Ni 4.7877166679208525 5.267729533771697 7.212533423637357 0.296944674516708 -0.6160028931030036 -0.5039907269990547
Ni 4.738325568642477 1.1298305696739628 1.0464775854330193 -0.3325020027960273 0.5910037999555047 -0.7683636382273282
Ni 9.127665959211416 3.3729974303252837 -0.31159692320374865 0.5743016567094754 -0.037858208498354154 0.6436988163563753
Ni 8.543678591276414 5.518005902737636 5.839111346446963 -1.114818760769338 2.4176520113108686 -0.008823254718584805
Ni 4.13467900201625 1.5806986505308633 3.4162394111329495 0.3839446348470355 -0.4760598049167413 0.6264793671542953
Ni 6.857280786606355 3.9912118026079106 6.284163313458677 -0.32875899081382737 -0.5123290716614208 -0.11445111456274483
Ni 7.131463768633113 2.893507464299637 3.909466047303366 0.3304530906867986 0.6132389572046213 0.6671637322475349
Ni 8.760204987314207 1.7584937647794108 2.938386947191476 1.4683277048343357 -0.45570515251978944 -1.1107055099319127
Ni 6.689952842542916 8.935238823538462 9.270482744626658 -0.9734865055450332 -1.8719451355199501 -0.35411521019042885
Ni 0.9815838823896882 4.0641609150636375 5.559515892545347 1.5902103359744615 -2.596154704937884 1.1883775079930954
Ni 1.3473202022318573 0.2166896875621528 9.727887073298538 0.3685961774154233 -1.1756366633876592 -0.1804312781082957
Ni 1.1572415289317233 5.108685423781135 9.10960573314356 -0.6213682711799751 1.1797558277623552 1.529065903254657
Ni 0.7550178097080893 1.894310114113797 11.125476296094234 -0.9490841654412687 0.853108483974892 0.6208440232453888
Ni 6.018476077539219 4.66944957061461 11.01300237843032 0.8484223913531324 -1.145964076023891 0.5196245768815696
Ni 3.860982225090116 3.298956649813441 1.615234807933036 0.8723331365324588 -0.5596597384265846 -0.922276044109489
Ni -0.029199827080807268 6.066436082559156 2.2894113872973625 0.21093921688916575 0.9226362556623852 -0.9674688385960434
P 8.458748651246847 2.070288839495866 6.13404060838049 -1.8689978799661684 0.5030916122235529 0.23469389610660224
Ni 2.475994888081697 3.9390594253052438 7.6850422183125495 1.6174000090153757 -0.7964866217157895 -0.3536377563333781
P 7.246887024784767 7.788079170183807 11.351299300603182 0.9092089265128858 -0.6787681492556826 -0.5926485346477793
Ni 3.3359449321853587 7.945838964814232 2.511286039442007 0.6884018156907048 0.39693307668690353 0.5264230878606417
P 3.059716219263528 -0.0026860538389130908 4.9346414277523 -1.8633185701932038 -0.11482752406555707 -2.131939200954238
P 4.554530866925865 0.27394446631701747 8.947264602149907 -0.20476316998544092 -0.03537452284455198 0.512171205927318
P 4.433484144233044 4.1396236161527735 9.136794689317641 -1.208857373114002 0.3649490675811392 0.06955322560878989
Ni 5.554214422212328 6.622471244048911 9.888187977605803 1.2016839952940144 1.086724059415651 -0.3335705532698578
Ni 8.50140626856565 8.980281597954662 1.4982887207115057 1.2387477329155312 0.026368719801515873 0.8378710981998473
Ni 2.7737725780103824 5.4795498313827045 1.698653842678215 -0.4582616003930559 0.5674370683791582 -0.12794837771823125
Ni 5.860973145980821 1.8832007862486202 5.5110458308538135 0.7467445172956558 -0.6615787819605896 -0.5282652832757031
Ni 6.887728234322723 1.8426622892740403 7.90754801971989 1.5608887041922084 -0.8211910664410051 -0.7997352105600743
Ni 6.041859790774839 6.637543602168223 5.4556074409654265 1.1556887595108225 -1.5360665029422063 0.809455780281948
Ni 7.466156351484565 5.315882186095654 3.7437554232255845 -1.3357842515462541 0.10480459261191628 0.974302059467793
Ni 7.99801886316033 5.926766787144363 9.622810812109007 -0.24998553215835012 -0.11385924661501681 -0.4124782235103541
Ni 8.848942005018465 0.3733724920262922 8.076078633381284 0.1302844820505756 0.14475130820818297 -0.3814411516988914
Ni 7.041414914525288 8.711254224730737 6.7694281117643635 -0.40108078030668987 -0.440682453858712 -0.012798437316248926
Ni 3.869559616959596 5.399922279054271 10.836630102127181 -1.872790000018749 -0.2703072744348377 0.7714553897787747
Ni 8.822347503382504 7.355567625295707 13.258334227831584 -0.864003533620841 -0.8305439684108149 -0.1802713554916637
Ni 5.305818657880875 2.1866386374430475 10.066761937383461 0.16479537134325167 0.0871089751043661 -0.375007994479038
Ni 1.8196088285595986 1.8026466921246591 3.9901871024241453 -0.41902630904151705 -0.02984613682715505 0.1071761781678864
Ni 6.576630359373199 7.341174119581041 2.989232992299262 0.3221299155330839 -0.32108476209802117 -1.1086838515161939
Ni 8.143421709290017 5.268316649364902 12.098462604515925 -0.3625430292428079 0.0008068121720115137 -0.4762706353759668
Ni 7.771502328356908 0.28486022951005946 4.654428585109705 1.0460456078596823 0.48217028868985345 0.9677357191041851
Ni 2.85537247178474 3.792042011294242 3.6160541122310295 -0.0019928620603126964 2.0050246638171596 0.9333641836028507
Ni 2.7604799140329743 3.0286816559539553 10.406938546822694 1.2522853623906496 1.2757122259550222 -0.9916138112733632
Ni 3.6268607086184597 7.115253874051966 5.811761850852866 -0.5407271631881397 0.21584693860342827 0.16422510066207846
Ni 6.556934465957398 4.0320071626545175 8.764112058113364 0.6385278136783972 0.8109210519735648 -0.02183020850121402
Ni 3.4765591167579677 0.9186524297430223 11.006785374719147 0.000399549431263828 -0.517923792140379 -0.05349360104276593
Ni 5.319570005915473 4.5843361569621655 13.283374707881778 0.013514746656983176 -0.6438595103039556 -0.6801488316532932
Ni 3.6888289247450237 8.572291302764018 13.254963817379341 0.23709402090766268 -0.04651074196702957 -0.04273636252626189
Ni 3.562039477656165 7.9396467300421465 10.555651257109075 -0.14949730753360058 -1.3107386214315364 0.003293583149607231
P 8.359782979067221 3.4521662985965267 10.09705251515227 -0.3429494233815965 1.284525453371278 0.8143524462526169
Ni 1.488310507731363 7.6779216070087095 1.1324780940520718 0.30431885549359206 -0.21811233759883727 0.2304286930723451
P 0.7136151519697608 1.4381029508311876 0.5290727952399276 -1.0693223189994359 -0.8727054322702131 -0.1631768619032222
Ni 1.5269317053468827 5.959553523552406 6.8408305415792405 -0.20007039249546188 1.5022662665633095 0.9902632107827397
P 0.8645157852089449 7.676995065213183 8.31640155830617 -0.1558816137933896 -0.7719310438636124 0.3371824389908322
P 0.9640621514049751 5.529216141095395 0.21078458900987015 -0.4394017873740755 -0.5010537558579178 0.04888129908173517
P 5.864798571017798 2.559970765272307 2.210758079906402 0.36749060305607034 1.447452146936907 -0.529296809864011
Ni 5.139398908250675 7.638786683249136 7.810178568059291 0.6751295240618308 -0.072810556203823 -1.0288786091620925
