# total energy = -340875.8389259124 ev
CRYSTAL
PRIMVEC
9.21034358533631 0.00000000000000 0.00000000000000
0.00000000000000 9.21034358533631 0.00000000000000
0.00000000000000 0.00000000000000 13.48026883293582
PRIMCOORD
 96 1
Ni 2.9121172288445045 4.757566144781005 5.696438177147336 0.11357076884032052 0.034766456946907866 0.31729495603828584
Ni 0.45042540647728124 5.403625696545347 2.0487847505411936 0.5118616451066991 0.29931960250678774 -1.2993882294157235
Ni 1.168488661396917 1.1318499145593868 12.406322696714824 -0.1755999181579234 1.0265826140390641 0.7858566528057691
Ni 2.2690786697806935 7.940043799635782 8.521983702365725 -0.5952962566832717 -1.2218468433951346 -1.0801026974443915
Ni 3.8286569410859066 3.1260643003098108 7.642395888644225 -0.21026507364027658 -0.026638171412818643 0.2792981650795383
Ni 8.542639739955602 6.826135634407593 6.194345667981459 -1.5051831830997884 2.1179153758713203 -0.827725010904781
Ni 7.402970243680513 1.215940351619882 8.593779251755679 0.36292509517257493 0.3334702802465676 1.084004860712275
Ni 4.570669852466485 2.9646806597650137 5.419404857199459 0.5211037325302574 0.9643161518996748 0.01835459124778774
Ni 3.7677949905825385 2.301812230932172 3.4593332151711875 -0.8196275786086271 -0.34969419830459775 -1.4092290988999665
Ni 2.147244244650767 6.703601223164129 10.962451208943003 -0.5882923145616127 0.5666464541570627 -0.9805714374162725
Ni 3.964122674742617 1.3071503842825418 9.183406107253496 0.5118888988002087 0.011495402234109236 -0.19650350107980996
Ni 0.711906140223585 3.527469495049187 0.5823138426800707 -0.15644931337140153 -0.6726532946071964 0.73107287219667
Ni 4.556808285349722 6.262775757820271 2.411188745309851 0.44785094658269325 -1.096949336688085 -0.18837521554572073
Ni 6.723569248087148 2.8433159621586452 6.325453988081398 0.21034837738270223 -0.4423842670411672 0.8280206877683288
Ni 2.6737535364977774 5.122710216770417 8.869746934949129 0.513295035119116 1.005680059558442 -0.8323697087656439
Ni 1.6784469657962051 0.028809033743868902 1.2608868283838706 -0.28154273813934094 1.4446491302704734 0.3833100865868302
Ni 5.6029099010007615 3.74783617600312 12.605493613943969 -0.47696097657477216 -1.6065005884940526 -0.6575028121190032
Ni 8.595350536373697 7.684825178502559 0.7741883257099467 -1.4758790348190323 0.16788249490900764 1.0353341349794491
Ni 2.628751797672194 5.337016491636091 0.259226962667585 0.07018108900077591 0.6520371610187415 -0.006732433627827115
Ni 8.577454838760495 6.0681059355080444 3.935577977860045 0.09908954450501 1.4786743381759824 0.42372885672350896
Ni 5.253211575227171 0.447425597567029 4.473386519234527 0.18760954102428978 -0.978370830220528 1.0553355178020405
Ni 7.988103372536292 2.3736437006621616 12.647768170029837 0.5546710269627415 -0.2674687765447781 0.6319817850297632
Ni 0.6369836791817116 7.9888954620858215 12.382530537129428 1.0915790735151072 0.18778977535589592 -0.5719005034671505
Ni 2.4042312517550313 1.930515649418509 5.758204583392143 0.5866678915843122 -1.0306485565783219 1.136488789543604
P 5.347092607533592 0.9012560680729264 12.358589169977725 -1.035933202016029 0.47885947914906557 2.1363728112455593
P 1.454976399049349 3.4571945733874587 7.518457821036247 0.7990119592408046 -0.2633465268462884 0.33181911779638984
P 8.801975384677657 0.6564165831416173 0.3548091454367746 -0.8256796983399781 0.07413595988346587 0.7020536021461845
P 2.6238611052210308 3.1941840015693312 -0.3868390363372761 0.6298696237827669 -0.5123920636888724 0.4256407290342411
P 5.198594237684045 1.089961271870325 2.438701883709315 0.4716385359205942 -0.49509933804669576 -0.9404506581359867
P 1.711963406153614 1.914894906674303 2.6521755435136236 -0.47605132027630914 1.0774174373027445 -0.43472623627527707
P 5.1174603209188865 1.275697060891349 6.665696054081712 -0.7304930884338 0.41774821366004183 -0.03808497979717958
P 4.6018192345189055 3.446455312750817 9.857163925323645 -0.6984028927674746 -0.08483586279947325 -0.3194204870217209
Ni 7.22216198848505 0.5139417780059327 6.324348746849496 -0.5280187144825359 -1.3837450956962491 -0.178134511654319
Ni 1.0013853974770301 3.5571636428129367 11.687648796014562 -0.6070351423867546 -0.028017568258848522 -1.2238476758752472
Ni 5.343666359714698 3.905756727354626 1.403511762120222 -1.6404869727418263 -0.42307065431421975 0.9728771540958084
Ni 6.850893038002184 2.085194159823104 1.3037278206010872 0.5040637463288351 1.2039596787020685 -0.4868203858673552
Ni 9.341867305774274 7.9935282649162085 9.788576338609287 0.06911228141662935 0.47577081292141293 1.039354568992752
Ni 2.340661460233505 2.943229769522528 9.594082433859805 -1.6224861652890314 0.21661364156612373 -0.20457110857929284
Ni 4.008866523947424 6.80398475805157 4.79313833382975 -1.1927563537870813 -0.1177297853140166 0.09280139750345308
Ni 3.462140527900217 8.922916406478464 6.457062429838771 0.18355542555957421 -0.6555300046633484 -0.34281624023784185
Ni 3.9878853612284964 8.301770834149899 9.970491677105372 0.8346302226650465 -0.32310436363121126 1.1657155476192054
Ni 5.9501214340025745 0.9789766315002301 10.413359075625166 0.34441700906605843 -0.028110127972654813 -0.3791852657851792
Ni 5.807490053025703 7.478145068137004 6.12721331555577 0.5073781554140488 0.22787455919192368 1.4417864640106974
Ni 8.95331975069935 1.8907177547264606 7.079163114798572 1.7386272659596895 2.0236931867609402 0.13256402211337168
Ni 7.45589287800139 7.8672360334842795 8.118316447238392 0.5588701526457537 -0.23195824234299406 1.0778676374662857
Ni 6.622909402891731 3.750562437708477 8.624136544258569 -1.0396114221985644 -0.8341643387722214 0.29582393064870344
Ni 6.987252174988015 4.9379230931401095 2.6472682724439816 -0.08602319823935507 0.3142302010700331 0.16604492747963662
Ni 7.373699771722325 5.679300490812344 9.769205143951496 1.4496656096484581 1.940902122305638 -2.557447518175673
Ni 8.725953208610042 2.848961902784941 2.713484195681552 0.618667070198728 1.0354662896819393 -0.2676664943778809
Ni 2.814874421124383 4.286539962775443 2.4441074343676727 -0.3969744714478002 0.09852107359604968 0.688514430009169
Ni 0.8055836239364648 7.833093289762126 3.2298455309509886 0.0977181180787801 -0.05316809938254714 -0.2653728132476978
Ni 0.16668787742356375 1.6153653224854347 10.337438213337142 0.06661368336449172 -0.7921422287041647 -0.9565275090931914
Ni -0.2942713990280974 3.792865545859501 9.227297999675379 1.3824564587918124 -0.29030274372015813 -0.058305677719428614
Ni 0.3033352981640485 5.64361040936553 12.590786537284801 1.5782441647515209 0.5998057145178508 2.048350066077672
Ni 6.242826153584452 7.05866917925604 3.930522420258456 0.7458811408540961 0.47273973940457303 -0.7068240269516344
Ni 1.2017011604155527 3.243321184670946 4.451575504557314 0.46339892161962126 0.8076534369658864 -1.8313425315072396
P 7.777711493700269 8.624298646305913 4.624110108097636 -0.024196908961177682 -1.4405705893257255 -0.9475623294801035
P 7.366119658940201 5.681179400906577 7.536885876509483 -0.7194774540495866 -0.8921375728528959 -0.08887532297616953
P 1.4915783045124824 5.699001415770986 4.011647126680016 0.6366658207689939 -0.7644254795151867 0.46871364896431533
P 8.322733576181628 3.1072844097110863 4.897650865752704 0.47771868067640305 -0.6068163415077292 -0.05221190611686492
P 4.556918809472912 4.666337691431147 4.005526853358362 0.17306789576468903 -0.13302167847608057 -0.7098463587177258
P 2.0846599598943523 -0.3551840064212612 4.616614730476624 1.195333627595954 0.6306211572368107 0.7786174547448526
P 0.06464003344775113 9.061642601769284 7.794574711796004 -0.01954424068051473 -0.2887384845568317 -0.12778716955001862
P 1.4738483930840647 7.212362182895524 0.9953765693129265 1.1351083642563093 -2.308830070009443 -0.4440840233410932
Ni 7.898661725844674 0.027032358463587466 11.854723507869291 -0.7212021500501773 0.36357378450016736 -0.1394412088491792
Ni 6.034838174427814 5.883235918785344 13.550770519249165 0.06725003139690998 0.3934808564722449 0.14727176063719152
Ni 3.9708830669444137 7.6778253173671835 0.6154434486063141 0.04399208931023391 -0.6647049862943972 -0.44390276056822264
Ni 6.503893342903152 2.5408206473308415 3.6641528361297087 -0.6084114539089909 0.3884900881258729 0.6286920585348978
Ni 8.210072653276482 0.5681170190562977 2.746389069223975 -0.08065730594175141 -1.2574229407275312 -0.48041139701721775
Ni 0.45664146737236644 6.049270782847726 8.251353413287998 -0.4731580578889141 -0.06460848000900485 0.06099787983961107
Ni 1.9362352727935983 1.02502834949612 8.079480112418098 -0.9959890575229232 0.5858942466430813 -0.1297795173896991
Ni 3.0403712634630584 8.84193906555449 12.263378164055581 0.3537781385659843 -1.5054333514373814 -0.05599039932269067
Ni 3.2551472658522904 4.531737730072759 11.359836088701337 0.2433045205937487 -1.4049543827840127 -0.16135806352692855
Ni 7.235728824606639 4.870190226311754 5.233484861306452 -1.4233195155547618 0.6303748455539595 0.641606966824353
Ni 5.5025355764569195 5.3428742701651695 10.773592192407499 -2.0119702418970578 0.13116996997932248 1.0952403244167783
Ni 7.6769503347252614 4.541086228825925 11.757531357038964 -0.22820134640372314 -1.5444506132408433 0.500966338350434
Ni 3.582888132485441 8.468791204977393 2.8443097582329964 -0.41294410740317916 1.0836978709948175 0.8558371957599648
Ni 5.223158224063053 6.720769303632997 8.70009793205843 0.532373906127438 -0.7273733118578957 -0.22886109147490905
Ni 3.3104277481345568 1.8397937649666054 11.481899851386885 1.2073077692386949 0.9826486316602754 0.49836875282658694
Ni 0.46936924119207063 4.792961495232646 6.048947499787394 -0.37521034029783124 -0.6500939212494417 0.41163593011471694
Ni 5.366554063558656 4.8782676976482335 6.880086143074139 -0.56774842897199 1.0192999643347218 -0.4013975402161603
Ni 7.673109621444404 6.787608767132232 11.791689758345235 -0.44053384409598967 2.0870066021076057 0.5646857308862662
Ni 1.606422078850633 6.995219122201303 5.91847193029272 1.5256964725617919 0.4496471192511675 -0.08738896823863014
Ni 0.22018247408194955 0.9924145228114308 4.9823344489409855 -0.12907606356477125 -0.7679574039278452 -1.456389558635853
Ni 5.39563111830126 7.922590198515339 12.030371207546136 0.5294197085951206 -0.08628905030623203 0.37326915741106037
Ni 3.8645864914663006 0.9991196529516324 0.5299650127654226 0.7306296140116643 1.206009876362878 0.912364698533048
Ni 6.3505134909460415 9.148975079776688 0.7412364794151675 -0.2338865697139585 -1.1722497491932973 -0.46583632741652026
Ni 5.451786583225449 9.003856906028041 8.113207469643926 -0.5183089433939396 0.42173753732509306 0.281784936057134
P 3.7164381146735224 6.616821365772674 7.100111120280542 -0.40508141682565074 -0.01278661024170701 -0.29015979038439055
P 6.645161593027345 8.069274130675849 10.29323685337033 0.47434847865258944 -0.6790900513714756 -1.9317896184814087
P 7.42720265768995 2.684630952288407 10.580474312991733 0.10130866364351584 -0.33643373375026575 -1.1531958178856396
P 0.2282194199065923 5.654791766494931 10.462603098712533 0.6611306386795774 -0.28383796193142086 -0.21428833586705676
P 7.765010429877003 4.324735257681234 0.7572781348618558 -0.01596937884506282 -0.9961150415778264 -1.2924927878474708
P 6.705710391848341 7.164219716902621 1.7474877014156436 -0.9292594174058576 -0.5517991047315851 0.7536674696677342
P 3.896288494134671 6.372765681081655 12.115621226865768 0.6310268773156615 0.8910412544649234 1.1411208889989766
P 2.055988160270111 0.10799772594088163 10.45679321397017 -1.0467279786386876 0.3287024265442791 -0.9975134645872499
