# total energy = -340860.1888651592 ev
CRYSTAL
PRIMVEC
9.41450938025455 0.00000000000000 0.00000000000000
0.00000000000000 9.41450938025455 0.00000000000000
0.00000000000000 0.00000000000000 13.77908611119419
PRIMCOORD
 96 1
Ni 8.807847606272063 4.212926948508439 6.945692527678074 1.0115588869367222 -0.38592798382565147 1.2574229407275312
Ni 1.0272453382122209 9.150563983302659 9.649796575154387 0.18757405980066405 -0.34711152517908606 0.6884097861105047
Ni 4.4789621484131334 4.780763068624926 8.291757394314546 0.32279274592806345 -0.9976348206564625 0.0578837596906616
Ni 6.01863922032245 1.8576050463159104 10.819820476418297 1.0545857841202098 -0.8809846415598699 -0.8592405650145589
Ni 7.423801785322635 9.176030230586338 12.602324100245719 -1.4358027356234369 0.7080237036866904 -0.4831406230229228
Ni 0.5263369637296256 6.565641031663047 9.311520080644671 1.232083433521478 -0.17625220702994163 0.36189459702553156
Ni 8.98821077280098 1.6783998644139406 6.508124029387664 -1.0169396916326616 0.32829362114163463 -0.5465208870517813
Ni 4.488988600670849 2.225090996952185 2.0348538932139806 0.9811720471147489 -1.460188106446337 -0.4650981636989151
Ni 6.189277198886842 4.059093868798527 9.758361870459822 -2.179796686757149 -0.23778487632710016 -0.13929131353487623
Ni 6.208548699141811 4.854930571804527 12.579767877744068 2.126557110706718 -1.240976879356366 0.43461747861155475
Ni 4.412015573760919 7.52614691442462 11.554851689098568 -2.1960990234615987 1.0222402779099686 0.18976001170838933
Ni 4.283338062532334 0.3349616458337143 9.943566919050843 -0.6443055967024387 0.6293168366030903 0.03433245473328281
Ni 6.3591149441724495 6.479027547371052 11.171724472940259 1.0678053681342772 0.6415516881063854 -2.676305246446546
Ni 4.7499682091554565 1.8779592151245292 4.759048503242373 0.463978191161859 0.13784532511696906 -1.006115347323648
Ni 7.130718700595016 7.357655443949204 3.3646043569233233 -0.4791333016357426 -0.41972693465296745 0.3086902450884103
Ni 6.70626555501843 2.9195710943182265 3.2060489594176644 -0.11800617890385484 1.8317487658067226 2.760306014939233
Ni 2.754817183980193 9.305658607240304 8.113442824979318 1.1144094411460614 -0.6297269275573155 -1.04412576512915
Ni 9.058932565627225 2.825548391315601 4.084919750332201 0.40635616977301636 0.04797935609275608 -0.48914260624262856
Ni 8.563390461367069 0.6918082596658167 0.812376112702106 -0.03837371468219198 0.7988031856641081 -0.061123606784197954
Ni 4.155875022985669 4.740902036832283 11.030695125690903 0.2851196568573219 1.3264619457040638 -0.4795212811027806
Ni 0.9397949040557088 8.573868810064567 0.4803885103127223 0.1917572446440762 -0.7787573227568265 -1.2788492289221072
Ni 4.4783596198267555 6.852425809761171 4.594167497030649 -0.16202243658380483 -0.18159290251656468 0.2020797096160068
Ni 5.41396412585438 9.280446551704003 2.656676574670033 0.7530619748732514 -0.6775677011896782 -0.6951579034676157
Ni 1.3910031432202747 4.595551429877489 13.53898491420134 0.4758600302011094 -0.8613676386598909 -1.0886734698325378
P 6.67880343179237 1.6305741578700998 1.7177007329114333 -0.09753531264401266 -1.6823159929624707 -2.612027410304082
P 8.80844072034928 0.2736515378168928 8.224226178643361 0.5414403872050804 1.3184406180614843 1.8959073027625024
P 8.554032439259869 7.35478401865474 5.063896900069959 0.4033076127546796 2.3314390656582105 1.2365142155993218
P 2.45781766344111 6.745203964913179 0.2648809810814121 -1.3326405637109502 0.656642778111553 1.3119609238744117
P 3.33348940414234 2.271212677337672 6.798036307429463 0.7963603805505705 0.5552091588543987 0.5988937442265427
P 5.923872771096013 8.496142622421665 10.324351805329606 1.889097993150153 0.2751877424555906 0.42824268543346244
P 5.637718765111754 2.1956800703295554 8.636289830162527 0.7326062781220609 0.15641100393429835 -0.018030375139149592
P 8.813665772934286 5.124580943227496 13.02844267249309 -0.5350990183680849 -0.20744405925171372 0.2025836458356189
Ni 3.8551567713275277 2.8605232928530753 9.509622065336957 -1.27865845306754 -0.7186233335794074 0.28782548582425915
Ni 2.925850571929396 0.5010232314943738 5.658795026773111 1.2731704333697749 -3.1689131855299553 -0.152257386777241
Ni 1.564314842386724 6.836006905782341 12.033565358231339 -0.48560682517522824 1.1457979827596718 0.08257894844449648
Ni 5.749440745339266 7.873269281743114 0.13912479204584913 -0.6781112323979741 0.5890019390341276 -0.19503205874060606
Ni 0.6554710786525764 5.941110737371953 1.3737077484384463 -1.0504445082583265 1.6196854626154427 -0.43530987669288895
Ni 0.6191677898723197 8.476598101400993 6.824505199938914 1.4388608057234702 1.0281908390664487 0.9711066924589468
Ni 7.757404917484247 0.2413767175071301 3.0494084730755917 0.9295561227106701 0.4340937448976007 1.182124842215164
Ni 7.778418101934217 6.949489399223179 12.959244147249287 0.6179816140959292 -0.3340325805079408 1.0085458111420116
Ni 6.767798786902395 3.212823640210764 6.639507270549458 -1.037551454345742 0.009917773334344208 -1.0449359197352712
Ni 2.617657199996489 2.6747279545375844 3.3743191889277697 -1.0467459763608167 0.9787732078652692 -0.038735983117617154
Ni 8.496434472205692 6.802284133963435 7.473541461579145 -1.2071612163585017 -1.579822307871918 -0.447950448275035
Ni 2.422277891353906 1.7867796938888802 0.34681639577072304 -0.3279609203925642 1.7312122044425409 -1.605583218886106
Ni 3.3210810810665956 9.180831630259046 0.5535703143830444 1.797552322430672 -1.8170024607354838 0.923131964351881
Ni 8.162031106765296 4.7685806937690725 10.022727877890063 0.8040986297350925 0.7970170402979629 -0.6638794050693082
Ni 2.278414776846735 0.08664831797589488 12.327170006766542 -0.8547223654292313 -0.2230329148289062 -1.5276104017550531
Ni 0.40034070471042715 1.9150147231868435 12.810636120124379 -2.2509069724404136 -1.2665773535332896 0.4083480033920645
Ni 5.148860962356741 8.132092967629584 8.30291923637722 0.7229412442284711 -0.43929328682066926 -0.37996533848431335
Ni 8.455302481676156 0.7898368363169468 10.584928472822071 -0.31403788255356885 1.5004767787630546 0.3636223783499157
Ni 8.201459071136476 5.354031360527984 5.020217343361139 -3.830155667197049 -2.8731622742110328 2.2709842028062632
Ni 5.5267028730714065 1.064338504311184 6.851030579503337 -0.7596614824676401 -0.8172536790598119 0.23889507867214338
Ni 3.991855444362285 4.046930322960999 5.557546687988518 -0.9505460946987759 0.2948204290848535 1.7280780296889335
Ni 8.325730592077164 3.5105010054095236 0.7853263449773495 1.3722345239534883 -0.6748829552686635 -1.3084277139101725
Ni 1.7101550038179514 0.8412673584189836 2.1747534993638764 -1.688086062677028 -1.3532780374556437 1.2263853546954364
Ni 0.738852561949197 0.3382755530587993 4.52106948209187 -1.087905738428578 -1.7433483255844426 -1.149123190478163
P 4.278724953042869 8.317201046776237 6.2941068169567265 0.02851044873486703 -0.9793681611367906 0.20004956655985545
P 7.322238060481108 1.5250751681987855 4.933491826410115 -0.32327379932954003 -0.3536943206029263 0.9150445593580564
P 1.7884272329922606 4.912424979257919 4.863990153971286 0.44741154505242947 -0.6610301085459712 0.21226847722355055
P 3.5599365930200957 0.5830339622569821 3.3144212572852743 -0.07080689551023289 3.0173273708984425 1.4918088186754115
P 0.6069854150164673 8.22767847915313 2.534207932233901 -0.47399083820285465 0.20154851970288515 0.9996407953428977
P 6.488583274170658 6.066869750760264 8.428845828028617 1.0911039336509014 -0.4257309747552023 2.184066003556464
P 2.3435066931940014 1.3403154258911334 10.470396261609652 0.23110695008629228 -0.20567539738706514 -1.0553671423709243
P 2.68861435555179 6.960720908653651 10.166994874840292 0.3387904069079004 0.5825196737438935 -0.9149041771254502
Ni 0.5780367407937005 4.848406316955141 11.239421383972699 0.7031000411328279 -0.3364414470597496 0.22743464344102765
Ni 6.135002553566912 3.893181973833546 1.01977398374112 -2.0437300508071576 0.9373414230830437 0.5860539121493972
Ni 8.197834485109041 8.12401531876844 9.657458102710565 -1.607996970533921 -1.1961437822020755 -0.009822385407060503
Ni 7.8102485574115255 2.375892604711878 8.735499927713509 0.867950434083731 -0.05159355580657566 0.2537694246808146
Ni 1.8904051962369224 3.0038497803380024 11.74252333909008 1.5881136013464328 1.1402605978812104 -1.0745128620614397
Ni 4.810399943467447 6.62946198927342 2.25927413826912 0.22362503988695034 -0.9244889926004077 -0.8034887640652356
Ni 4.2057060199810525 5.997315357070127 13.383708590236864 0.842961368238561 -0.9495464497896681 0.2822209951532881
Ni 5.496199863385964 6.035425290158606 6.640058960786362 -0.1758007213148198 0.6361814249334077 -1.684334051833764
Ni 1.4588440962428961 1.919006475071605 7.952489551990054 0.028181604640538566 0.42635626704402696 1.0925692053425182
Ni 3.292696335942643 6.6014349954976295 7.837558165589157 -0.4270620348618 1.8980747427274667 0.15547923614864836
Ni 2.367560764103354 5.675367387251286 2.868117035943284 1.6779284054177361 -0.24723985109241292 0.46782610415303943
Ni 1.618580073197491 2.12543841747058 5.413761713907393 -1.077206349733203 4.059758521933989 0.6628777032776713
Ni 3.223226672834966 8.116314250273781 2.8322355171734928 -2.411596034924776 -1.7241113317317016 -0.04762402963586637
Ni 1.4584110288214358 7.082930652087823 5.295564434278139 0.9602023868416173 1.0808724857308805 -2.278720652218572
Ni 6.62972559552996 1.9672746635460678 13.224767197855558 0.16095440033060668 1.1790184353756985 0.5168570414387614
Ni 4.056015324302496 2.078723623007876 11.973378401157564 -0.40586251796604944 -2.467364033824015 0.23294683150850848
Ni 1.4085612028077281 5.677730429050992 6.983088840972059 -0.7902660947273744 -1.5262297193574423 0.837652554431138
Ni 7.976235768449803 5.090133254203103 2.4484332807082554 -1.4988186743343415 -0.8542688228315805 -0.21622566209908567
Ni 6.225777250908588 8.732098465553216 5.26617327812475 -2.266714371786316 -0.0017025845134035194 -2.8234574507867376
Ni 3.1032010955264178 3.829059751929983 1.0380296584574904 1.0821703786066974 1.5569400039571055 0.6968190932201225
Ni 4.459634161103192 4.254011866492164 3.3551248876479303 0.8057983860350186 1.2358197606354588 -0.9961039858342329
Ni 7.802170908550381 8.926649297389528 6.576137267927954 0.3686668827523586 0.17934704390518144 0.5370114048994493
Ni 0.14665828227742025 5.924381154590771 3.6305821283221285 3.663886796632064 2.0753867584804904 -1.1538799884368578
Ni 2.3619591311518615 4.951109197405289 9.541975967523681 -0.27986226511312445 -1.0384765372631728 -0.8147149717983582
P 4.433913722072134 3.841147981694214 12.857540146221243 -0.7013180095317406 0.26644907703101206 3.3421008947019604
P 6.077847068443359 4.666348538777032 4.93073525812743 -0.3600536871620509 0.10938012779774064 -0.25722678710179564
P 7.863139269884615 2.8393124037106987 11.42257312811545 0.5395683669933481 0.19558484592028252 -0.17200345905591669
P 5.078261558149603 0.47729678550386456 13.311534138646897 -0.10953182288425653 -0.3891279788201879 -0.547665542179186
P 0.5035999826520607 3.936281596777975 8.907751553148298 -0.12774937433354774 0.6328235642047683 -0.8453542939507699
P 6.719238748643904 6.430166244819372 1.3908336820553557 0.5260803598092424 -0.7306820645161545 -0.8792167510261697
P 0.6284156622223225 2.8785614924077993 1.873348929987813 1.5466969860728588 -0.7049975152658567 0.5074712293484873
P 0.006063885351355856 8.90412979147361 12.0294587493348 1.518967124257758 -0.3630778187003554 0.40270314640146126
