# total energy = -340864.10608686245 ev
CRYSTAL
PRIMVEC
9.37656530910225 0.00000000000000 0.00000000000000

0.00000000000000 9.37656530910225 0.00000000000000

0.00000000000000 0.00000000000000 13.72355112761614

PRIMCOORD
 96 1
Ni 8.548848760752621 8.30546126201906 6.026985962398173 -0.09052391432318603 0.1931348417178932 -0.07491294725880647
Ni 8.361336213090189 7.713190531291111 9.574372118045005 0.2617642699608331 -1.1107389342730096 -0.009594328556654444
Ni 2.254810724773879 7.786768437157053 2.0401427071001876 -0.743739669031061 1.9204767645717506 2.342363425880198
Ni 2.8908700142368797 5.764787198882116 3.029514717882295 0.765101679646605 -0.7177684417782799 -0.20325341820913384
Ni 3.2285201213137964 6.939623915522001 11.214995328967314 -0.5569847626975827 1.1225883774124277 -0.700175154176549
Ni 5.441530119141024 1.5522153297896957 10.112198761526873 -0.5270301253170213 -0.6010791819136357 0.07513251946878029
Ni 6.1780405498735345 1.6118127771815558 7.77533840437375 -0.921478230798542 0.7569697945680898 -1.7643097583274583
Ni 4.140391071417383 0.7128177261903832 7.538429174426065 -0.9269909330866553 -0.7604047883915679 2.7580393303922435
Ni 5.46293681712649 5.505534552101508 7.499151681131579 -0.020202700200120046 1.9888243999082136 0.24591573296435065
Ni 5.41160012353454 5.671893569034546 3.7645211475824483 0.20307112699499866 0.25825342859409717 -0.5517669659420692
Ni 5.745762148416715 0.652298562455128 12.368569746723344 -0.21743485191583845 1.8138477171565859 -0.2765784521555301
Ni 6.598917048242168 8.629627868568996 3.3124806976481156 -0.9710997504804115 -0.45816004181818515 0.6437875194154395
Ni 0.5210200883048423 0.8097395283789769 5.58961608612484 0.47815731087571844 0.4735362671639393 -0.9302325799524044
Ni 5.207856741788516 9.044062666755407 5.540568212059062 0.7076663203472716 -0.356466998252057 -1.2507092761527816
Ni 4.462898025955305 4.525074028733061 5.571130188149218 0.9621823933861235 0.175857028474052 -1.1771731546368436
Ni 3.4020803401972652 1.154311415768145 2.154240501128367 -0.9665026180280323 0.10749216674640844 -0.6262502818626247
Ni 9.008769275946255 5.372856156790807 11.187987071027177 -1.3908619092466885 -0.6164402377507384 -0.36581784333933776
Ni 7.858480406580109 0.18541313475005994 8.351384864613633 0.8209681517969216 0.14816213366194483 -0.1528860215001754
Ni 2.3891206424014757 7.101247767110028 13.730687409869184 0.6613424975800675 -0.9146576083322828 -3.449641141077485
Ni 3.837499890942358 7.321409514240435 8.294514122335297 -1.8236747305493368 -0.3811575590202016 2.6306398831989473
Ni 1.8108584998427273 8.582745043370867 9.182976477817459 0.6921227161857176 0.12601130859651846 1.0336729452269424
Ni 8.188854299186277 4.740678765254212 13.761839171900332 0.014110985480085377 -1.910720456515935 -0.42921481953874474
Ni 4.281423986178391 1.5927408438909574 5.518281054616375 -2.0401647020534024 2.9163457515770417 -1.1208960773116696
Ni 4.374055072204852 3.2347649136301873 3.1005206319578678 -0.1042435779021237 0.5902095861889836 0.02329779418567601
P 8.794074066233948 4.768958485413722 8.898802796474534 -1.361828755239132 -1.535790109352368 -0.5718776206490152
P 6.4707487807155255 3.8174340417575596 3.4107686653629825 0.8010588144675043 0.824785982881115 -1.0521620051700655
P 6.953341830174973 7.683766870196766 0.3066071132002283 -1.4486076006975892 -1.2847725363850777 0.964124861824475
P 4.039367959680457 4.005790480273558 10.68183540190567 0.9682530250602357 -0.21038514415790863 0.5093586761791872
P 3.7159421017686523 7.594858280491037 4.035122251030514 -0.0428111816282553 -0.14319296258212758 -0.16641593766581017
P 7.1085239815807775 2.6523395761938446 0.24284272030475862 -0.32870962563313066 0.9588867533539873 -2.2546551266289363
P 6.8389758663866616 5.915309197463226 11.33789021631567 0.3759222787631913 0.6888610147153104 -0.09506165429253952
P 7.458119832518177 0.8804735220684002 6.092776630998706 -0.6894210009838385 -3.826865426481551 -1.0487547792607292
Ni 0.8885579964455655 1.819456809984064 12.276800367024027 -1.0024006174762221 0.13947720429343718 0.14730801319176567
Ni 5.622422811885481 0.30994517035433505 1.3205926072113532 -1.8560282071793777 -1.9702337813902195 -1.3587899684128084
Ni 2.6263477379040028 9.414446362385656 12.211023763271053 -0.2507540348932585 -1.0698218843436738 -0.4125615272527798
Ni 0.7418644493701353 1.0657591355339213 8.012865549957544 0.3617233615549899 -0.2520329016056821 0.458565761897036
Ni 1.0662842231761402 4.036367458867777 7.5705832912599496 -0.6994467606509567 -0.20582863513547778 0.7091773576751593
Ni 8.44821946474736 1.5595196739555641 3.644275139857786 1.2780845828419407 0.7427395099013208 1.8320159034251802
Ni 9.123454042945916 1.90219561989372 0.7054852523293961 0.9295234697005217 0.35606153528352225 0.8511408187255599
Ni 2.5495442936644297 8.612806310887906 6.470695334294799 -1.649445981707327 0.03894449958399744 0.8179689599592814
Ni 5.831801509220321 5.636253245318929 0.49824816244960757 0.26637245815680577 -0.47392913172698375 -0.4485855107558726
Ni 6.981509031554009 8.069528132492001 11.757322723668203 0.3887520835380079 -0.5214788564814891 -0.6947874075020744
Ni 8.666655923910477 3.8676174178496354 2.2268516831387237 -1.485655911700138 -0.6523909448137345 0.7880803999299654
Ni 2.6847356084057514 2.8278032377803584 9.162130498421362 0.18447562338099843 -1.2860138649913464 1.3733233861422929
Ni 8.818509394727213 6.796903219053862 13.188661940562573 0.8123331018297429 1.5299583331619393 -0.08848760061944759
Ni 4.20006353132956 7.036033757259432 6.2149710889386025 -0.9249080824156973 -1.7178064725595965 -2.802942361552521
Ni 0.4933676603464825 8.836156090131789 0.2693493320152761 1.5982648308478218 0.6529290767053917 -0.22899273195676692
Ni 3.3701156299771817 3.3691217140829814 7.083204443004276 -0.1665753460618099 -1.4315169637638894 -0.31830000026403243
Ni 3.5552934129447475 2.162179638747418 11.616573918827894 -0.35350791562373307 0.025653953122678395 0.32116909428171136
Ni 7.671699230990767 0.18550221211793638 13.686936357394291 0.03349350377175522 1.3122566007379592 -0.9921054061978009
Ni 0.3582729242250692 2.6722835300331287 9.68494338596178 -1.1534493286573424 1.7771308213515264 0.31058103435322
Ni 7.381953994701298 2.741773253541793 9.323656833732976 0.8861931823440028 1.1850001068804301 0.09015650368143827
Ni 4.941477905577793 7.99471252004083 12.96397975142656 -1.3511342516397633 -0.9513750183579743 1.0827439917219805
Ni 7.745755341673731 2.6440788223939347 11.746618437018965 1.5218948394275145 -1.4498761829973674 0.2535339116312408
Ni 4.698624871051491 7.022512750472292 1.8788779779531792 -0.6417622614552947 1.2817599748109991 0.2962425062433608
Ni 8.475364620537075 2.4037949666884897 6.769895898770227 0.8339403956868734 3.5777435278750773 0.9365824334298323
P 0.5312386688850261 4.012579113362246 12.579445881495014 -0.49882178120360543 -1.5820527398643334 0.30059255568194043
P 0.947642545729758 7.141360712349546 11.499237459235028 1.2918332998866011 0.04763225716598248 -0.1662994666926039
P 0.27101367230980966 3.2608505175704257 4.433324339820325 0.2610759856445568 0.1554437549250226 -0.08306977203798598
P 1.0334568689724113 0.8571511918453396 2.480819697862998 0.4334357995986277 0.03625024058128595 0.12235340012895703
P 2.302574947085732 1.4741179195746543 6.641594484020023 0.47493006218767236 0.444981338344382 -0.7626514183338994
P 5.172910283885831 1.0658341480542382 3.5244820202245375 -0.41525244382138154 -0.6808366017489371 -0.2292012484231472
P 6.4451507581573475 3.7698104679213014 7.0111558548962964 0.9021499627835754 -0.9574453929217704 -0.7647882621712441
P 3.7622623330644025 4.711742685541927 1.1821532503403054 0.34642889728976467 -0.36496397997947466 -0.12940310788688683
Ni 7.612204925814344 6.565714631436853 7.200678738103225 0.8731175801069674 -1.4379753177947234 2.2320155348525494
Ni 4.121262878736546 5.195142119594784 12.585827571660982 -0.9142683433136641 -0.13132603594121253 0.8359844227000958
Ni 6.188936118449579 4.188436590680424 12.269965788766642 -0.8144537477171715 -0.4795133106829806 0.009888205647989421
Ni 0.5673665739827035 5.459045542635045 3.4724430219111198 -1.4959346679183267 0.9480963476067025 -0.6636958283035924
Ni 0.3272280550353729 5.790310208919977 6.00379302877266 0.7592346793428666 0.5638514079104289 0.38659929886106326
Ni 7.8970555951531285 4.486395697944606 4.926343191947334 -0.334668671430043 0.19107513097538706 0.4261454365848016
Ni 2.1227511827557928 3.1522323881514027 -0.019949579778307358 1.2150059092139012 0.6708514655117672 0.7297803786374916
Ni 2.716634682670557 0.17134922484712556 4.329396368234123 -0.600129930626489 0.10131406296015454 -1.0780018490513048
Ni 1.356132601681046 7.4535065625186805 4.47918887005515 0.05247852951469027 0.6112100997000506 0.16023834810018855
Ni 7.72948700132998 6.299692104697636 1.9175366179550515 0.43233665299717794 0.9609266666021516 0.7347701185425991
Ni 3.0032950290619906 5.248091582373549 9.29098137988289 1.3746881277003034 0.7465817664655465 -2.4878338716425925
Ni 6.24000089165538 6.75360224170087 9.458985046323878 -1.1333708127399125 0.07642347036606192 0.4002479999927494
Ni 2.225668360630723 4.21634124823835 4.66558185585185 0.13626795332752015 -0.5252043849621922 1.6354681793709962
Ni 6.825136056388174 1.9113565239374342 2.133820217785071 0.12348082886518089 1.5821710106097526 1.5419856966401184
Ni 0.0398044562497145 9.13285873768066 11.082425701811072 0.6459529024978747 0.37968405979846864 1.1117326656448465
Ni 0.8650246935091132 6.1779092779629785 9.306035455054008 1.3155440132399796 0.9397217503897622 -0.02310213323510215
Ni 5.075656551294835 3.6583043564700737 8.752701848309608 -0.3350664210890939 -0.9352518875438667 1.2787672107312622
Ni 1.7086070580856105 3.542991359612759 2.4312364219334577 0.5674224130911389 -0.7174141437626548 -0.5193376417687701
Ni 6.302083128782741 2.446139534407439 5.088678724821867 0.8906134228988856 0.7823974906125751 0.025334879220362816
Ni 4.881871081620894 2.8705791274911303 0.22903760359691788 -0.23360631946937832 -0.021846920671762374 0.4413964492066011
Ni 6.365224917759579 7.141895176556805 5.420390653259189 1.5575850937402724 -0.9328044544446387 -1.1033367282716675
Ni 5.7650216130081064 8.305836324620646 7.706267813322356 1.5302498962604292 0.4028224455881449 -0.18823071954805648
Ni 8.511961353886734 9.15664708318619 2.2016831072593606 0.7286552638941128 -1.3000199494624514 -0.37566542555737886
Ni 2.0217562007139858 4.773909311754645 11.234236040428627 -0.46759881863358177 -0.45666751643305864 1.147681830045946
P 2.6627756930829483 5.386161502582036 6.9844776520455545 0.5036539124849262 1.0222017113625492 -0.5644252781360279
P 0.9029838417590295 5.9288114511202865 1.07556233428285 -1.156892807121253 -0.013671069729189357 1.414752856931673
P 1.6368294527072769 1.2083860663516657 10.407803413309603 1.8993338119455485 -1.1399384386551012 -0.7706516629305566
P 4.666060060668872 8.77000442377723 9.687756355473669 0.1260413905035055 -0.1029423425921969 -0.10898006414584457
P 3.2973066024444897 9.11358051995919 0.4566771613464276 1.0122088618158955 -0.31303772342382863 0.6441796126475358
P 8.435364194078034 7.404279596060647 4.004161770926175 0.043876389667976044 -0.4828475172625361 -0.7350668238474114
P 7.459404421928606 0.59565004476823 10.586951127300186 -0.6318964244048085 0.756830183666432 -0.060731770662417986
P 0.41842827723678705 7.763748969984772 7.774308857532398 -0.5650346295852526 0.2822988995790751 -0.6424726572587581
