# total energy = -340876.06351030717 ev
CRYSTAL
PRIMVEC
9.25041143539547 0.00000000000000 0.00000000000000

0.00000000000000 9.25041143539547 0.00000000000000

0.00000000000000 0.00000000000000 13.53891218161730

PRIMCOORD
 96 1
Ni 2.9001427018116726 5.045192829221855 8.837430397098611 -0.06253102865468586 -1.2347411828592993 -1.610254656219846
Ni 1.493266146517241 0.9634580891561524 3.2677790233761614 0.31316473591999616 0.13442292969898137 -0.5509994916484252
Ni 4.416830889765486 7.224080961203515 1.258032812113082 -0.14451528093797691 -0.8627915155906108 0.15727052372111625
Ni 2.220838747271889 7.863117875311466 2.023268462515837 -0.7974721255575105 0.8678529892739182 0.808802205858349
Ni 8.130325256408167 6.561409246198866 2.5073794880062032 2.0083899807449668 -1.906283503790504 -1.350619516786874
Ni 8.670419771145824 7.7032337662317945 10.70273976112836 1.579334826712538 -0.10047434066767859 -0.8496410942515819
Ni 1.5022390454878083 6.566395217894882 7.0817855841884185 -0.24203542407333803 1.1006697229624658 0.9264600002838497
Ni 2.1836243425723105 7.338878565558915 9.538041749049533 -0.548307546638559 1.7472576879411779 -0.906970009880038
Ni 6.5720842208504475 2.1904233948850598 3.736929358655086 -0.2147537055392495 0.10539877455248944 -0.33943575380138313
Ni 6.684541471144451 8.090631741477544 1.3851390137573847 -0.292058035848368 0.23628438052217374 -0.5502800969838975
Ni 7.8246916667302955 3.085067674307142 12.756200641118458 1.853749695557846 0.47401783478604814 -0.6059475657495307
Ni 0.4771426906506462 1.2512013833607483 7.663768736460527 -0.44879299878098833 0.7732345931663844 0.058257340979996436
Ni 0.4462148654772505 5.656395255698428 9.026067559652729 -0.2685206148480601 -0.8311386645720201 0.7811854725823448
Ni 3.9871307835997345 2.0130375076071285 4.014964346189981 -0.23842173858015067 -0.11316453454083736 0.08011891693977814
Ni 8.538092637358234 3.7120050504217916 7.8794846280420066 -0.08115147196935056 -0.03130832319497834 0.14386170651437805
Ni 6.558643373217216 4.852941530968973 12.040438965524244 -0.6219431698468385 0.6509153887094726 -1.269677075504536
Ni 5.503985478957126 4.749299922653269 9.898189862658688 -0.43388008622489793 -0.44923728540725855 0.06844405170501115
Ni 3.0769458131770824 4.753804872961172 4.509080616553095 0.24515674331113904 -1.1916654347157476 -0.7242995580285785
Ni 3.8159519223107212 6.898984506129693 3.9834731709678146 -0.19319269153902213 2.420462227066154 -2.018446336539704
Ni 8.591689520487579 2.6067381558854406 5.658750410417919 -0.1348895849227548 -0.5685567838058982 -0.3991761070848093
Ni 6.852528940531562 4.6237440899445 3.51633942535444 -0.15565072872950614 1.2192238039499905 -0.1608564413001617
Ni 5.027071273465833 5.8015249587388675 7.726358869465321 0.7704395469197505 -0.28366929756404047 0.33848136030791387
Ni 5.174559831390288 2.055191631946174 1.3666853682353388 -0.48098295324997165 -0.7611933457311342 0.4288648923984937
Ni 0.3134668379750627 5.042630465289022 12.31270632160744 -0.84588625519484 -0.03400103953579306 0.7958572156619068
P 5.569607896789293 3.7316714248665597 0.17750059237817362 -1.173665141483585 1.0409052013093234 -0.7296749634078789
P 2.1627646650685697 9.025765071202896 7.755034219484766 -0.41462560887066013 -0.9925221820202456 -0.032060370869654464
P 8.68944786721021 1.454821437113451 11.443792061243741 0.7914796554195014 0.6056081801322409 0.11890117991429845
P 6.190588008020391 3.7408940849424934 7.7909665171767974 0.5509015326179804 0.20849949709942156 0.6512043807048011
P 5.621521205060245 7.526439905277695 12.970372639052322 1.0255042933732208 -1.8882155905451996 -1.5319316548382262
P 3.319981869521111 0.5422359849558895 1.7558890237687732 -0.8356164978377156 -0.11909401265139488 -0.9143128233983543
P 1.1973454887147263 3.0634309622533724 4.280421549466856 0.5796837469569952 -1.0909445252549017 -0.4012597290867154
P 1.6014959588426374 3.2701776550288093 8.156043249931846 -0.2548053221444967 -0.8177247051589595 1.3029993438057494
Ni 2.982388108767664 7.93707491373382 6.000445803546159 1.0485750591497556 0.5773486710659153 0.6194916229825526
Ni 8.133729407770195 7.020497909096052 4.690393303432063 -0.786810017857974 0.4171548030504171 2.118149089148681
Ni 3.942534550674885 3.4793109539221896 11.255844979373338 -0.44684487391568206 0.031862395926235444 -0.5385841487032078
Ni 2.4581117973698734 1.4294013068339475 9.185583502362267 -0.6641984789716239 0.05074509176335131 -0.2898671988446363
Ni 2.8476003655716515 4.9742791761204455 0.30697952452345584 0.10976270794813998 0.49796508963026503 0.3881648435759702
Ni 0.7660718875851665 6.700331923250387 0.5356755932549347 0.4311596019699413 -0.372580615984468 0.6102078836877814
Ni 6.453725208140751 7.114426585536401 10.822559413783884 -1.5220028257602882 -0.16086672571280683 0.022975892069883014
Ni 2.7700819187950003 2.6094855280444698 1.689845712222007 -0.24736506381636753 0.33222072411018266 -0.3971968718712514
Ni 4.322948465381688 2.880448576132974 8.557431547242633 0.4242104243456178 0.13933527939893423 1.368072679266315
Ni 1.3178135952030712 4.457699206932461 2.525101425993638 0.20483747486680207 0.6271938767228166 -0.6795680194491588
Ni 5.025211940792551 0.123151650809336 0.10119949972990032 -0.5899455338943195 1.202483351266858 -0.6957623698208341
Ni 6.070230906467764 1.073676739913169 8.56349704193851 -0.0027896469299951957 -0.057711752889171575 -0.29319832010039826
Ni 0.397123857696939 2.910234900550733 0.7444157496676465 0.5252128696026245 0.813536635219541 -0.8346549052553948
Ni 0.8046747790223554 3.2948670028148332 10.696349576995505 -0.14256252808698028 -0.46182592070554657 -0.5175664088009603
Ni 9.135437947692632 8.13065827121532 8.226405578519188 0.23154172363086573 -1.1503817454756124 0.054115036676848735
Ni 0.3698684458135589 8.684665404563011 5.91470374111504 0.16326839317576397 0.21283849079440764 -0.4764598685686375
Ni 2.9380046353029416 8.348838472369748 12.876724250074663 -0.8670268938281971 -1.0520103100835494 1.2359948527607423
Ni 6.5134458635572265 5.536639430880942 0.6907578138236555 0.4628420206748868 2.059618697012956 1.0568771512575474
Ni 8.846778862768359 8.574428252983374 1.5841884392818837 1.6942235430333337 1.5077422020762163 0.4205962246317982
Ni 6.132023654017649 2.137418538079545 6.115242482860427 -0.14173823241347205 0.4636310922350854 0.7859206732744851
Ni 8.104137341989944 0.7880591902275796 13.304066426397531 -0.6276258220539127 -0.785742238715092 1.2312305986028795
Ni 5.819914776422874 2.2647874514050477 12.264128711654825 -1.7245957275672879 -0.764933786610173 -0.6062962073382009
Ni 4.1175060806009425 0.990885558689896 6.883453990581564 -0.5510159467086574 -0.7577133576023338 0.32942413520165204
Ni 1.3470171437083085 4.069366940144416 6.200605278427842 -0.34677779598875114 1.188114741250012 0.4797740205435351
P 4.293624661529422 1.426330170279073 10.278863713923297 1.62354288868832 0.05905078341556927 0.947653089421697
P 4.198354675449144 6.539522773039731 9.790948919302316 0.6263024752567987 0.2999186695433673 0.2743801589526306
P 6.230124265958746 6.957465606430647 3.25868031881178 -1.5884645569279483 0.19260750845951347 0.7976184213273876
P 5.354295323140924 3.7426979151479167 4.727950898391238 -1.2019218223364334 0.3249234191178211 0.2224377044470685
P 6.975513158896189 8.23133974791187 8.639301387499444 -0.5224872431413453 -0.5782866094991524 1.6354141862046094
P 0.300560664115542 8.424571589763595 3.7053974816231565 0.5774908530707344 -0.6214389765169105 -0.4245037872163205
P 4.2373729103541455 -0.0022608005241304967 4.9705410849101295 1.6306085372858499 0.49184046478976584 -1.2372840038858113
P 7.237817821998663 1.2089455044972945 1.883709357166197 0.31269988046843566 -1.7773269965227325 0.044074621721711185
Ni 8.106718206745397 7.548233874323731 12.937337570182539 -1.056135902216149 -0.33503633918210685 0.26737364572781047
Ni 6.0124713382489805 8.175495014834226 6.687423899308604 0.292044151891297 0.2610171073821634 0.018544081550774517
Ni 2.1217113396753984 5.499693288109349 10.894017916111444 -0.5575802301897366 -0.45235166266652416 1.710375727313164
Ni 5.215918420356685 0.10802075302979322 2.709555552553436 -0.35477804058540835 -0.6130222132081248 1.686434643116534
Ni 1.406626794189065 6.659620863075681 4.5981935288655285 -0.39260231052203354 0.09649453008432413 -0.6787236691709924
Ni 4.695342273482839 4.194145738303156 2.189228241743826 -0.5267493608518089 0.9646755921216223 0.6075596474316569
Ni 7.105916207131327 5.040558373155613 6.011697078822345 0.46428312399678745 -1.3799362634731203 0.7779492250332343
Ni 6.490810107081992 0.40389330869349666 11.065610270786008 -0.2920330961477035 -0.7803928014777205 0.20985344002415474
Ni 4.235559829737413 8.550238427408084 10.958097365337125 0.08269876185181242 0.03769622899919314 0.1018262267098827
Ni 7.209668820382749 2.6673283499650426 10.184443840642396 -0.07899817307177362 1.258454467315839 -0.10873426668362564
Ni 7.204303581823028 3.3257171245332255 1.5290578379573627 -0.013497520265802561 1.1196161821579813 -0.7038852560382846
Ni 1.9395522401615775 1.658543245390562 5.790972089516575 0.30535089630253215 -0.24637236088579503 -0.41146880840923333
Ni 1.5074100254100216 9.23746073402911 10.98808627376257 -0.8695324338588701 0.33772082799280545 0.29138594948200786
Ni 4.106054071399332 5.8719760912747825 11.921486076408453 1.9644341439893074 1.1609764902723232 0.7032579068669308
Ni 8.807769878274668 2.6110488475558364 2.866837520931642 1.1218059907204487 -0.88816316158618 1.8522502281941842
Ni 4.467439890041747 8.329616117667852 8.451205374006951 -0.571673475058009 -0.07302344354557747 0.6858859912473865
Ni 9.086817785847993 4.758337574503005 4.272284887678699 -0.8775951562623466 0.2616107751021043 0.9254541847271546
Ni 5.327543133632801 6.317688659417907 5.422943550512548 0.44937432520575515 -0.2838886126636982 -0.031917674644203094
Ni 8.326544981112978 0.622978200074028 9.616702621622952 0.8066496782917204 -0.3708592624179871 -1.3233773932414692
Ni 3.7711706811596746 3.3664374351192423 6.432973760449337 0.4449990789561949 0.6578481112735638 -1.1815538002030426
Ni 1.3243906376443837 0.8695164621399706 0.3982144811903718 0.8723575620124912 -1.1267083131180726 0.4212166318246165
Ni 6.703440061450501 0.0697138747545199 4.747148276982596 -0.09837683470870154 -0.44527135878097507 -0.43046771810923923
Ni 7.29051741523095 5.749824409928043 8.834384236654273 0.7310237641262894 1.234860224935667 -1.444024866422913
Ni 3.116574575228535 1.4426478958296713 12.300764965647536 0.6004166086289724 -0.4575704878633023 -0.25116104052369004
P 1.2271780651890343 7.2617116344120385 12.040479667334008 -0.42930403681844126 -0.15868617312172026 -0.9945096447639196
P 3.240169320739614 5.623593297193654 6.6021693335535145 0.9154284250600362 -0.5801246911491558 -1.694288077722682
P 7.752621712215154 0.5853614024824705 6.636408805975842 0.3090939082847322 0.4429141714027082 -0.07483092906796145
P 2.2058160793046717 3.3827089086132913 12.604226558749852 -1.2225574963089139 -0.261008365631415 -0.14208096046487145
P 8.803773700588806 6.079518319422867 6.8014213430857 -1.1028441049059652 -0.5384525082213502 0.11268476669094143
P 8.791646411361576 4.926315793478806 1.0955160359746245 -0.29756919547458427 -0.024266842967164658 -0.37772770740304623
P 8.139649671008508 4.707885831219014 10.532081697996093 0.4868119012269229 -0.18507649018979094 -0.016439633613262013
P 3.0465027095563233 5.7512212220358325 2.3577476097812533 -0.031157399439410854 0.10898700612438006 0.12664251442261415
