# total energy = -381176.00383683026 ev
CRYSTAL
PRIMVEC
9.13333243331646 0.00000000000000 0.00000000000000

0.00000000000000 9.13333243331646 0.00000000000000

0.00000000000000 0.00000000000000 13.36755522754967

PRIMCOORD
 96 1
Ni 5.797729832952124 3.6642381749519433 9.278593525839037 -0.12730303082474848 -0.379784589932075 0.541575370121048
Ni 5.7497159043148 6.84805393022501 12.392686334598036 -1.2216745794833284 -0.8718747088388017 -0.3043733628806113
Ni 0.8823182737047227 2.62238981018342 13.347717807857697 -1.3865406561635154 -0.6265341316516306 0.5822743905023069
Ni 0.702543237954315 3.642235977103872 10.003396521616233 -0.477372610190894 -2.0048364590657535 1.822555786453545
Ni 3.4773519265637156 8.549420230489279 2.8735966389474297 0.33088400757663017 0.9423087943906481 -0.915131719755224
Ni 1.764167094122027 6.782175203334956 7.815822748905562 0.9174855646993813 0.27009824374782515 -0.35731880472939104
Ni 3.2876252117866334 0.4184637190720903 10.455754037373335 0.6995791724637629 -1.0900685504078516 0.8989209143233164
Ni 7.208573961630958 3.3000830772348566 4.059512362958756 -1.128437122883721 1.2973431739612367 -0.6750017402347149
Ni 8.667395485617357 5.7584473701274845 7.63602853315703 0.41577206377027753 -0.6858659366427284 -0.662705182255549
Ni 1.8885174152932578 2.13345512467042 3.6114584734474042 -0.2685275568265956 -0.33230659895576964 1.2275827174376472
Ni 5.012327176435221 7.783380238745274 1.0095227612634678 -1.577331423129264 -0.15667068535358825 0.19231825935386876
Ni 7.35262488087537 2.228843648674264 -0.4416970901330801 0.9018861675992274 2.721382084180526 1.688597455095808
Ni 6.209807525982134 5.525519992908983 7.274289201870336 -0.9443587349411413 -0.27885953488022297 1.551151936520419
Ni 2.234944714744215 4.088819400092377 12.2089090725724 0.08724267246875297 0.565031287151143 -0.33265549765475616
Ni 0.31797057556750463 8.026107681671945 6.0714631128462635 -0.17242254887120628 -2.110798562320881 1.2787882937771848
Ni 3.6083787137486203 5.573214254910905 5.847891008046102 0.02252183525159992 0.002869608238311187 1.022523356368026
Ni 4.7932459311958295 3.5459615198533436 5.470578431615885 0.7434082538335712 -0.5842891069394905 -0.6795798465237005
Ni 0.7910415759653878 8.265958124880001 9.57421757692548 -0.689825949731741 -2.507793345483655 0.7135490043802937
Ni 1.1464980878665745 -0.4573141752723153 3.841207450976769 0.2534076704660217 0.8670682885890937 -0.46536632975863723
Ni 8.654965020166454 4.581014685286473 12.206864119439071 0.7541672921222883 0.40727302516033087 -0.20046788504419671
Ni 2.345458037268775 3.3100475429269474 5.9190067877572785 -0.26189925287680055 0.34296613555214484 -0.7504001117703722
Ni 1.1816431510958727 5.397954738718856 5.915116901471063 2.4138084691950623 -0.7525724368313427 1.3899453109696902
Ni 6.708149543908381 0.22132530501991046 0.5451065066857725 0.46822385381209036 -1.110765416635571 -0.42578933879696346
Ni 3.721915169310836 1.5536346480465195 6.7055264508315995 0.4640951763556975 -0.43722149189330506 -0.039560021680809285
P 7.702385846666944 2.615512410856065 10.802642570112514 -0.003334206579555548 0.39161166447399004 -0.5084017115825566
Ni 7.967444287409528 0.775108477523727 6.129906393796876 -0.2307688500205832 0.6149741947281732 -0.09462199565195963
P 2.949216978218037 4.025808539588497 3.723305262508211 0.1693174275833213 0.9242228834232148 0.4585531634915458
Ni 1.531687250193088 6.420358238722521 3.9310237288589405 0.061938389376009456 0.17111102914863435 -0.881507089722243
P 2.717878800844104 6.892058325921154 1.7648648807204466 0.4600528879655238 -0.9602540660151592 -0.10377383735455675
P 3.9170214168951056 6.102490869811589 8.278018690367082 0.5878295159925812 1.1412432735094538 -1.800235268579474
P 6.765872204929474 5.438735068063663 3.241044303009153 1.1236710689536455 -0.09694344469628464 -1.011922183813412
Ni 4.120566863653978 5.535183058630552 0.7036575045120006 0.18409638566470876 -0.6024673205104141 -0.15401833533240572
Ni 3.1369617598556294 4.9187927189167056 9.77499836395475 -1.0053059640484752 -1.1460324673679811 0.8831122294258339
Ni 3.1437569591910237 1.8590989515038687 13.243718378029378 0.4913303579225667 -0.9743902483062252 -1.0966922263719563
Ni 8.9085428620319 6.734033408043473 2.3626615822528465 1.273102556246317 -1.7164733555704694 1.354355072569906
Ni 4.99456284483933 4.332350576273772 2.5985061458526983 0.6490878485824305 -0.4229423562664716 0.3923056052172211
Ni 7.989117685289758 7.981326952718398 4.282831474450329 -0.16023680543829177 0.43988515476839724 -1.4572015130141873
Ni 7.467860136271433 7.068349908678928 10.904743180126548 0.2547194472989097 1.1030446509525453 -0.0688770254773717
Ni 1.112284624546161 7.877891962834873 0.7843011766246336 -1.006449590734615 -0.46013876281111077 -0.4065446316347386
Ni 3.920656483206244 2.935526112890408 11.001190257360193 1.3855201853188008 0.17729453225152692 -0.17354663517332045
Ni 6.319197448616569 2.023699868738383 2.162015055210445 1.0696316227097387 1.4155175030118397 -0.9057667336005562
Ni 5.653368380404752 1.1492746209283486 5.036320440755222 0.12250586654642126 1.0887739999661443 1.5406083566766178
Ni 5.980907948369692 9.161919770583665 3.112461595585205 -0.37903125670581816 -2.0133938617174616 -1.31905588304798
Ni 1.3901479973696904 0.8680602284325665 5.910812361892069 1.7002478948505428 0.44280052864297936 -0.8598861690183578
Ni 6.844364063919232 7.631995253551507 6.088974451133565 -0.3047230329105462 -0.6661188359227883 1.5244726274570195
Ni 4.871774323515348 7.986788685517546 4.845297706104898 0.4552783493950159 -0.4962506780423196 0.7299773251396461
Ni 2.5769697479590694 2.2690303114104675 9.139370486122436 -1.2963707827456383 1.7493184271249484 -0.9167587138356856
Ni 1.3931802637397857 4.332377976271092 8.002821337282803 1.2085668384567767 0.9780016198065673 -0.535843095622961
Ni 2.3247893059569504 0.17685328270283693 8.119479565873027 -1.1467531475840893 0.0527567228767414 0.08163586780493683
Ni 3.109287762562289 8.544853564269255 13.277484308060231 1.0449757718342714 1.7012035738955926 -0.3310920098223782
Ni 2.5174478204472877 6.456060435230663 12.713146656588696 -0.17448534493750595 0.2993723101215941 -2.925449513650523
Ni 8.462480038992478 9.041405449037255 2.196556405165456 -0.07528190056245099 0.20214398719503895 0.4304656612267102
Ni 0.34736346602606166 1.2532941440880363 9.983986363514646 -0.14074758636542856 2.2986420737328475 -0.2672882851028558
Ni 7.920371092013529 7.039305911519581 13.477704308477682 1.4935142314022924 -0.340339239452259 -2.5677578989627454
Ni 4.2469721846242185 2.2212538494165854 3.2573253814167797 -0.26142616989512396 -1.2122581712654348 -0.06550553790197751
Ni 7.536606729547663 3.8854566199823055 6.250347648683768 -0.76340449444984 -0.6573038087343196 1.5977485533330356
P 4.718590071830891 0.7985135552345898 1.0880438469170342 -0.7108490889506274 0.6908052829258747 0.08747638574611385
Ni 8.039131813731451 0.4109287198090521 11.854160393935315 -1.0821989178517877 -1.2141656727007928 -1.1046464482220266
P 9.072641445982212 9.298645757211158 7.958788628256096 -0.3280290546263383 0.3637622463618897 -1.002886041753073
Ni 0.035132276563882174 2.6714540720513487 5.135173237753575 0.54673017484911 0.15505577545798457 -0.46859872065300584
P 8.535382298528928 4.061519869429078 0.9544898666459687 0.4048307342674254 -0.21702373252034882 0.6088189737600547
P 5.826865163435872 2.4230730963442886 7.101995278721571 0.4031716013974476 0.5430660957339616 0.5506354234407872
P 4.304804445634592 5.0067558436467925 11.68002153763366 -0.5860644536723584 1.1878738288837996 1.0434302817240222
Ni 7.894496361210878 5.0983814346853364 9.838975531030787 -1.2920361599260264 -0.44559557488961327 -0.3480330085520909
Ni 5.443292600951246 1.4544923244098167 11.86826317255599 0.14045602326693876 -1.2813843366391353 -0.17583157455275525
Ni 2.645551941251377 7.618971121492001 5.554914710034028 -0.5549849586587345 1.5078046798830356 0.1855526584952611
Ni 1.7701950935324575 0.9544241066524004 1.6843253285976303 -0.13680454255728053 -0.38207929950352265 -0.6642853822584753
Ni 0.7622277387835298 4.352982774255837 3.261924014300343 -0.04607673975340452 -0.4317553265724113 -0.3766270181396998
Ni 5.881427691432708 5.628735782813946 5.0762084435206365 -0.12929820687790636 0.4009735653048643 -0.5793430757881247
Ni 7.247207957852355 7.188261430284295 8.475337031068332 -0.8042654943302601 1.159172347184049 0.809294057893103
Ni 4.1335270623864035 8.236877594390894 7.405117795741292 0.03233033670158948 -2.175571850042524 0.06751974011852888
Ni 3.875309487641414 6.209122526049129 3.562092811608953 0.33332758402111623 -0.5213425880139408 -0.3001942918022572
Ni 5.374929607637499 5.836911829119923 9.881002560253659 0.8021386777952444 1.2244297736309622 0.3531345914447144
Ni 8.850116934412924 2.325656972538755 2.459349779462909 0.08356496650684964 0.32259605653622503 -1.019278367068167
Ni 6.044284142171175 0.2482293623885549 7.440234545640026 0.6807815801412855 0.8945729217672658 0.33756141959680575
Ni 0.9718139716182487 5.804625498944358 9.97266377128872 -0.14564090990198789 1.6609203008955136 0.5789800360217512
Ni 5.367613808353022 8.465420972038173 9.564686031191048 -0.9593924893458123 -1.3319131986266222 0.6981694366004298
Ni 4.036823338511193 3.8854931533120656 7.711849805741319 -0.33132006667278424 -0.0763350244173137 0.06518929221313934
Ni 6.4709021004457385 4.900882254001775 0.7010828180971517 1.5043064369217898 1.0544114633258743 0.9710642692567856
Ni 7.859296497986939 3.0433633690100343 8.567065828763448 0.1776259474490167 -0.6727839066477898 -0.05270427237225117
Ni 7.455036937525609 0.15741115793771035 9.552000745765069 0.12077422856729522 0.6350264853933579 -0.45834104748073967
Ni 6.836381531366631 7.153317300368679 1.9329885242770872 -1.4191802965754077 -0.2925177490936059 2.4673159541948992
Ni 6.296866450800655 4.190592123471813 11.883368791078583 -0.46976085928190703 -0.24543467956287404 -1.4544208649452566
Ni 8.48040877057229 5.663816912716164 5.070795117383422 -3.3107223803906787 0.7726794919938629 -2.200430818067733
Ni 2.9250227805843543 7.3893317439519155 9.986325409952544 1.032094802106545 -1.010874202164872 0.006085286962131455
Ni 1.1646460194249466 -0.038997502852509774 11.79654641957026 1.2773006534880647 -0.9734584805205752 1.2568277303456936
Ni 4.671973543056895 1.5380988495660006 9.148166798595444 2.3550379360240727 0.13789083364292382 -1.6023657403900726
Ni 5.041133706951126 3.106319429519274 13.84450989926887 -0.3159826649847655 -0.3833972469839978 -0.8045043498139435
P 3.4466456629002797 0.5761296969848778 4.6354666999607845 -0.9318405478694726 0.6613008457088546 1.6120312885042947
Ni 1.2871240074459678 5.404667738062289 0.8791837140112988 -1.2485454357322432 -1.2417690362403582 0.5709319689062943
P 0.023936637658873397 0.516219602844394 0.3264253014072555 -0.421155696679694 1.9935030363308057 -0.5687609293969044
Ni 2.8126188582447043 3.5070809236560665 1.4043284093161061 -0.43991138002064234 0.30914892989238374 1.4639470592681367
P 7.689142514628876 1.1417487549977505 3.8866832265290037 0.21901453769813248 0.007738506294838286 0.753353023751109
P 2.0805000631830315 1.8711366836598495 11.248477059840937 -1.6119047902287595 2.181345519301508 1.0680501371552316
P 0.34749863934617437 7.010106647708753 11.708214308209596 0.38043739302472546 -0.46759676175105275 0.2644932388562219
Ni 0.6633338417891962 2.3110436406346806 7.562748153657562 -0.2218142119304567 -1.4117901747589234 -0.28153193950606353
