# total energy = -340863.8199895018 ev
CRYSTAL
PRIMVEC
9.38046567216116 0.00000000000000 0.00000000000000
0.00000000000000 9.38046567216116 0.00000000000000
0.00000000000000 0.00000000000000 13.72925970320964
PRIMCOORD
 96 1
Ni 3.6614114762734125 3.986407087618295 9.166779536396913 -1.6604492747963662 0.9368446859522832 -0.13973945681588837
Ni 3.7887137749965376 9.059813149058494 4.503430210359619 -0.1710495797830796 -0.7238974374941533 -0.2405963776339663
Ni 5.5118865456722945 2.9040702052019918 9.551871100639127 3.3552551726957307 1.6581980168683443 -1.442321253468245
Ni 4.733317280937147 8.064508226523786 7.245259634646741 0.0889164606267501 0.008456101187153179 -0.568224340167144
Ni 7.607829639018325 8.970004571357867 7.912968680770907 -2.4615438275978123 2.4430717369355537 0.09587026623676391
Ni 2.3388783915798745 4.7032997910016965 4.918521441652636 0.11096495578635729 -0.6636184380984378 0.3208101682803959
Ni 5.966088690258083 5.176187823072302 9.589119053462781 -0.03376912603064507 0.9793874444105003 -0.5450386460793
Ni 8.62334008446583 0.22917040300531927 0.5745816596925504 -0.975787385764068 0.18080383095636604 -0.21087931018550776
Ni 5.092429645686791 3.1592657719813464 7.274283733274641 -0.6824144877590184 -0.40578769886405597 0.19650555796233898
Ni 1.2200984002888127 1.1427377004457933 2.5890225776310296 -0.4396162173777267 0.4858479946517568 1.0753597834427675
Ni 7.494682462892885 3.7876162605207733 10.690493590824083 1.4971693116563762 0.1740549422683067 -0.3855590305220069
Ni 3.997635504947275 1.259205561395342 2.2937883695105854 -0.7584129547725197 -2.1581071175988575 -0.48888241060270643
Ni 5.301754735658535 4.399879250547919 1.3397612478233658 -0.6028136481062393 -0.42128039518301635 -0.30050616661572116
Ni 6.792188774212896 4.696264441798075 12.886296430766313 -0.289400800731179 0.7287431956222288 0.6288005590883042
Ni 6.0313110676084545 2.669530423684469 12.069515839389895 -1.2073445360139012 0.9226228859259464 3.195165434358265
Ni 3.111716191830472 0.983410492147784 8.913597955582913 -0.8285043122729666 0.524627943633432 -0.123777019949361
Ni 2.8064007973245193 5.342503478245909 0.2602431953213131 -0.6368211153999355 0.9636651485792371 0.5277574904013492
Ni 0.6858902645594435 0.34764286945461975 7.586940280162932 0.8711244609363383 2.356455642307206 -0.8039983567118025
Ni 4.432692119233608 1.1711042284347943 6.273901164708041 -0.2055087899022138 -0.3047631421198622 1.0674639256344582
Ni 4.8727672826185255 0.28773171172970213 12.343070853451021 0.036582169999407964 0.5048139942312985 1.8551306350657726
Ni 2.0764035834911727 1.1375127811039039 5.525560450384453 -0.4812698883627711 -0.16708031072268645 0.15655447149069812
Ni 7.18924512233407 4.799130627620623 3.94882331412599 0.5070374842451784 -0.9322444681761106 0.31610839192935236
Ni 2.1578260249410826 6.909181941236315 4.143504559242037 -1.9094063656902018 2.346834574277674 -0.6039223077893858
Ni 3.072702835379991 3.32439010802314 2.5410255492708043 -0.9549596503854392 1.369008560817023 1.236483876582019
P 5.437096093404998 1.9452459134044628 0.5319859034275853 0.6650132615634353 -0.33620464845859516 0.3381430031318886
P 4.5297142749843475 4.717773849429947 12.990927082169128 1.2240711047399628 0.26669487449323104 -0.7236074170575603
P 8.806540577728128 8.615695004997896 6.231147816620916 -0.10310997851831276 -0.8609899436054977 -0.8425155389503942
P 2.704829115755438 0.48056312902847687 13.115973378914294 -0.1491198695895238 0.04584225514509524 -0.16341674582817017
P 3.668887707360461 2.240364741797967 4.512381988686307 -0.20168324550853656 1.2262768541420301 -1.1292953571189583
P 4.511431747520538 6.665590010410133 10.083358901343097 -0.4172728166855201 1.17040395423381 -0.3724541177089327
P 7.326031071783676 8.706347824602958 12.27030564370781 -0.5084230517387953 0.06564926256869338 1.0697655771844414
P 4.563240059056005 1.5036511145915636 10.452469904380926 -2.222210632946986 -3.2926457253946264 1.9121769864568037
Ni 0.7421871288868207 5.943988313293107 9.905262319416387 -0.24493614265990074 -0.9701798097693034 -1.0930461449789368
Ni 7.035077170118717 2.191539418324836 5.365930253047408 -0.16238984722555258 0.4125160187268251 -0.8634152652175389
Ni 6.746130688093189 1.2079882191929794 10.727013619516802 1.806360150530289 -1.8007448612260404 0.12422799144385058
Ni 0.39331354234484756 5.761266223776656 0.627691041807407 0.5454991306554863 -1.1882358402089084 -0.9838087134066476
Ni 2.9988879515355964 5.520188257732568 11.232483760819218 1.7739274839228802 1.2810099840188518 -0.15933280556678367
Ni 0.624386303774826 0.0016096878977885434 12.415520879549913 0.403732358996924 -0.5610121386894209 -0.21134905073307472
Ni 5.670116239494539 2.620939611851458 2.8945537228458935 1.8234093927030919 0.27589196761146684 0.1526402240379565
Ni 0.7011532201450597 2.7808671699481766 9.752071811717055 -0.8378518149261376 0.3079731644167276 0.1910152242717291
Ni 0.35342311236031504 3.7245326293283028 1.9152453083071006 0.8143848421524491 -0.302393356336105 -0.6213952677631686
Ni 8.679313322729842 4.058205171357652 5.652871191526622 -0.29626564617181234 0.22682529199180287 1.494225398536704
Ni 7.233474017660835 0.4781551635077174 3.3664558679814323 0.8710311298915838 0.23085009688047983 -0.9872203101913578
Ni 9.323816973040783 6.072144234386272 3.047689823844716 0.04337065367615111 0.6564738566338565 -1.1294619646038098
Ni 5.116725051603296 3.9971571012014286 4.814933898025076 -0.8582661169164315 -0.3225574899888058 1.0493834139836637
Ni 4.257324314751343 5.661054709720275 7.595081586261363 0.5146201816884427 0.2271680200432023 -0.5799526843476658
Ni 5.8666369939156935 6.908891146802565 12.033997644423776 -0.035072418223100886 0.22213302872245616 -0.31710700839719586
Ni 7.967270320064137 7.102063075002795 0.2588473820393147 -0.5921127167489674 1.3133698884067961 -0.4864113233543946
Ni 7.109773817729964 7.01136335306971 6.85172471331362 0.3609039509774881 -1.5081605205605575 0.7994359341521007
Ni 1.1553450462186827 7.964174766414544 0.8968447414067466 0.23916453028344617 0.9224475366903468 0.9866284422436299
Ni 8.45971662292081 5.88623278656418 11.67381121636238 -0.9309262635853193 1.1313388699115483 -0.3079248276772955
Ni 5.508875416213145 6.787601726532135 0.7077354928599677 -0.06849238844444333 -1.246541260818021 -0.806986492805849
Ni 7.746801236953857 2.7643950723460975 0.5991406566925515 -0.37989411892674574 -0.22085981843698738 0.17224745674592268
Ni 6.259247001340178 8.914303366596396 1.0012830932646635 1.030065173271026 2.0011309851897083 -1.0621993348014094
Ni 8.038346107951922 7.315206014475705 4.579683077214709 -0.3811421324012339 0.8106320599782361 0.12351193921343244
Ni 5.442058359709953 0.754763519123214 8.4105442222203 0.6439556695621877 0.7113301423521039 -0.5139779201187535
P 8.184409337884704 1.328067559400387 9.259383492847778 2.3708494491350334 0.20762583624521663 -0.17958178562380686
P 0.2887354215494187 5.942327970881053 5.118419163691528 0.5853741124735532 -0.3852888075797558 1.6447902281028706
P 1.6090312651962053 4.351560472217448 8.658700687609793 1.6644267713868754 0.03527219293873281 -0.7494423758427932
P 5.8973486383059015 0.43850299734954756 4.941983862223433 -0.458843441038455 -0.9927718361372064 -0.03402006569918657
P 0.4528982598667171 2.28911502154626 6.298736885443385 -0.5878739960772713 0.5150796378233645 -0.02062101868446126
P 0.5530356682448202 3.7018225220990133 13.33915623072405 -1.3650143520559654 -2.3584153371367385 2.833346684875991
P 8.575724841055722 8.343183098712029 2.3114311492201467 -0.06925806296587428 -0.6937839059382246 -0.047083583751364066
P 2.7306816789623447 8.969169709919038 7.203769835276586 0.5923788259261604 1.5547689644477158 -1.5760332731431308
Ni 2.646792175058365 7.760215302768761 8.869403767978886 0.46063370016965827 -1.5854504526919726 0.44395881061713866
Ni 0.7085487792279064 2.985089286630894 4.140236405025314 0.4729508269741145 -0.9266839433691977 0.23230354149755475
Ni 1.41641278446666 7.15612269828342 12.397974718636084 -0.5460107801845823 -1.2949026828405439 -0.47883145412460765
Ni 3.3367723226215134 2.8656571985502195 0.18699395355289009 0.9804979038658596 -0.7400632486207384 -0.3729117740716416
Ni 8.10399060625451 8.562948646901946 10.21289375088017 -0.19516575610499293 -0.08501866823424067 1.4067739524912548
Ni 2.9415639262244904 3.306285809405821 6.889136824285357 -2.361835418561881 -0.11049187280468069 -0.3962059687128919
Ni 3.9143275899107945 5.665576094141802 3.3028337980632445 1.1818551334935452 -0.3401844590419496 -0.4021053649164623
Ni 8.75397244847867 1.9601796146473496 11.97747471087532 -0.36056379402925004 0.88728718673913 0.23649186854728949
Ni 5.412932014006961 8.799458326196483 10.32621540366586 -0.7469399211359136 -3.0325817259543513 -0.8785500639764482
Ni 0.9950797913601904 0.5294972659026244 10.09896893415609 -0.9716972748550943 1.6786197750578058 -0.3518043026690651
Ni 4.755980485838413 8.181229360044668 2.4426000758655824 -1.5201596019039625 -0.5159571553323113 1.0247303913216739
Ni 7.237573281130145 2.429043426973484 7.708018639957254 1.0995623488308999 0.32029877586161615 0.3047014356439914
Ni 1.04320157991296 4.698787787045775 11.761266235242754 -0.18084445438631436 -0.42470099082879115 -1.0566231262652126
Ni 7.614264638423236 5.12850691640296 1.7440827665554797 -0.5921962776017092 -0.20847070074401514 -1.717973080044448
Ni 1.785824900450405 5.942506199727545 7.0842430044933025 -0.26847124966736347 0.016907060167983785 -0.46028017348498146
Ni 5.924561369025508 6.470710837469823 4.926621473702405 -2.64067129929302 0.3270522925353658 0.5883015705329931
Ni 9.006063081142829 4.583004700085378 8.178272637286025 -2.0567200353089223 0.4154663596044006 -0.42191777165669914
Ni 1.113292418912237 1.701138056970015 0.44741631576725543 -0.048638072722677526 0.6731477177451117 -0.6090925391364156
Ni 1.8222961507219777 2.2789184554338116 11.953214950728116 -0.3392691463165319 -0.508810002764569 -0.49038856283458765
Ni 0.4195244393378588 8.810086393726754 4.191364632804432 0.7046992672991477 0.5572994657245242 -0.09986987431446026
Ni -0.0065297421075210076 7.7801487921790216 8.396705221313498 1.1944188290911688 -3.330272020387832 -0.4865529911385814
Ni 3.8436833034408324 3.328883351047853 11.385373155572633 -0.004236149568534639 0.004155159818954134 0.561886056653942
Ni 2.858922024245953 8.718720658735727 11.08512790272609 1.3809798742462862 0.454394918348798 0.6813094276202976
Ni 3.462611268710286 7.786011583182039 13.52586032788975 0.16235847976698492 0.4588208153306356 0.22045229858592358
P 1.886111458231625 5.487900695120748 2.427360571443978 0.9056911431676143 -1.3279691263772095 -1.1658795840008953
P 2.4480951526168906 8.853339720630618 2.5958599990103886 1.138226083949685 -1.1247964408073403 0.37838436715043866
P 0.9840952661369364 7.908708073293194 10.349527736786978 0.14343336072770782 -0.1901251083572919 1.695327831841106
P 5.928294794336229 6.238366084903831 2.753498723499529 0.3810027786098922 -0.17437607305315128 -0.20331872422943048
P 3.638157302039043 6.72336429807027 5.6073177744564555 1.5762865268045176 -0.771272327233691 0.8671726753774419
P 8.049161784794288 2.9024286237211467 3.0291277585058816 -0.6960868430397883 -0.2026427812083284 0.4662410190541067
P 6.541467689527044 4.4922674562898735 6.941459185335969 1.7166343066283662 1.921891642641406 -1.2271482010033898
P 7.685865732384891 6.496957380232134 9.284603812672918 0.7599183356734527 -0.4051487797284764 -0.03702594240504591
