# total energy = -340861.61350654904 ev
CRYSTAL
PRIMVEC
9.33213937367656 0.00000000000000 0.00000000000000
0.00000000000000 9.33213937367656 0.00000000000000
0.00000000000000 0.00000000000000 13.65852928048178
PRIMCOORD
 96 1
Ni 7.986976962806857 0.7310387512956638 0.06434603544312842 0.952123980708857 -0.03915404449164225 1.2899818485001588
Ni 6.20332512973045 2.649319762442983 6.953925911960529 -0.4864614598660396 -0.6519176047217418 1.3677638897766444
Ni 0.430578386552934 3.804993260609237 13.077181284312255 -0.42961051231526654 -0.7804233976053399 -1.733485316747434
Ni 0.5214920900941382 2.1867349368595352 9.154588133891394 -0.07918097850654106 -0.02398376450910708 -0.3590954370138396
Ni 2.283527888320156 2.5686060874349894 1.8394216322688308 0.9348808773576931 0.12909560394879702 1.7784346277646146
Ni 8.056613388163505 5.131500905462545 4.119480764316531 0.13966360927263044 0.5899056817953195 0.5262125145117325
Ni 2.474967399143833 0.5805794648982326 9.222635295881888 2.322897860956419 -0.39048372151713395 -0.5573035794895821
Ni 3.9904042092806233 7.905563377332267 8.41838031049642 -0.9986262380354545 1.3790764865759861 1.5545054263736842
Ni 6.062605797386186 8.053925731971772 10.356935394826174 -0.19328293725998325 -0.2978389041962032 -0.22217108104924319
Ni 9.289631658958532 5.9676326131387185 0.012186841044391149 -1.1611423264262262 1.9334202121062962 2.921603657541872
Ni 3.7834546825171516 3.6854018922166554 7.240933064321305 1.4644373686409942 -0.726849835254258 -0.1752440774804014
Ni 1.282945217412296 7.200650883933744 6.984439208662303 -0.48184093037489273 -2.962484454916633 1.82854851370187
Ni 7.929929593709406 2.6008486295962356 5.0535467441208555 -2.2813519191938325 0.7133227473021005 -2.0804148078227014
Ni 6.756478369691581 6.13058110190211 8.93060185315699 1.4723111149621162 -1.0635195962747297 2.7662804873551132
Ni 1.9282253390567332 4.701018639947024 6.724258224665266 -1.9173695864013367 0.17036026702553886 1.0024067881238092
Ni 7.38027590608126 7.960660329262802 2.00881489660865 2.397106583059349 -2.026908865484761 -2.5286195382003873
Ni 0.16221124973857642 9.126029920426316 2.131550262817187 -0.5635958402561971 0.3115639670917796 0.16181751966185035
Ni 0.5767383562575471 2.0627387985971684 5.61463883520111 1.944357170733774 0.1672741719010474 1.2676407618007977
Ni 3.467365783662283 6.552645777539355 6.4244809725379355 1.8367850426790495 -0.2111572464372428 0.5020708842685224
Ni 5.270307149198111 7.969927143840548 2.337671095588208 -2.234670198866577 -1.2806757406078846 1.8177730203529212
Ni 0.017397907771696468 2.854654829063504 1.486772210280789 -1.1285978168313016 -0.854987703275476 -0.07624632135824934
Ni 2.2389389255281347 6.498127418261207 2.1038646044004663 0.49937816792770773 1.2316610012720788 -0.16245695301806215
Ni 8.36672971770341 2.9944036188940863 7.2258672582243095 1.4852267945825195 0.34520556640562483 1.8386359798448593
Ni 8.096601606155094 7.808910407964964 8.178222365127798 -0.6370314316385286 -0.42448321839103026 -0.1687353298276062
P 7.8306169645690336 0.795767404460532 10.05375657783118 -0.28555520173284366 -0.052354602342316287 0.05255180595478692
P 5.7677568481576555 6.180433391402944 11.74596650826759 -0.8733466653986379 -0.23367548214441689 -3.1805546264236257
P 6.636924329857218 4.078536935234548 8.657472525527904 -0.20324004847269514 -1.976035218563345 0.19949549382859835
P 2.0111600632787288 2.127531843524963 7.400860739510862 0.3265072186651731 0.5421181299983954 0.15634801190684686
P 6.601826152992254 8.258728866637679 4.23216354979682 0.3913923493743324 -0.8715510069507958 1.082063420715188
P 0.5755662395294855 7.098557277206094 9.94163372072417 -0.08654693195330901 -0.27449688703615305 0.24243780171807924
P 0.817802452376924 1.185676326834389 13.415202577548413 1.2432227379677492 0.5785208369971456 -0.46720106897453084
P 4.369382396594142 -0.0631664530034232 10.726357471235751 -1.7631075104892409 0.9698887608914458 -0.5711960212009582
Ni 5.442335809748157 1.841576423291995 4.704639510094221 0.41683752892031434 -0.36817374516602397 0.1987917828933544
Ni 4.242549287907168 1.3185846583714276 6.966478572875461 -1.4117575217487752 -0.8908587061404722 0.2766869527089364
Ni 8.073327250105848 7.242374879882494 11.332345552499376 -0.7574991847089986 -1.9336305283448894 -1.2612016910436732
Ni 3.111867259468213 0.731978497748815 0.16755483284755748 0.2824760485868877 -0.5440752537247662 -0.6546594291329371
Ni 7.101636883259121 3.75448772133958 10.804921021290358 -0.4137254656538939 -0.18479701127615913 -0.3758909113046236
Ni 7.12424865739999 4.591086035993484 1.1594511482579681 2.155565582123926 1.3323996513447378 2.3340585055589282
Ni 8.463933283304435 0.15826935399070075 4.412210384652205 -0.20211416239836805 0.08371074805609453 0.4444110676632088
Ni 5.228172539108956 6.203577097498425 4.425076605456173 0.8552638397549979 -0.5121079567895503 -0.758657466683158
Ni 5.709561625894984 0.24429021676341253 0.5211738641353253 -1.1695030396860955 -0.44112802603656287 0.0492664503352958
Ni 6.35423515846837 5.473075877441108 6.509927908728037 0.8827409621293443 -0.402428552583836 -0.0012133035818108137
Ni 9.003013656817185 2.256250044401973 11.340977781587407 -0.2607160312019768 -0.7007654794623802 0.5801118356333493
Ni 3.3962548802560035 7.761680449678983 4.455808274223525 -1.8776568411927468 0.07981475543579802 -2.690164263816825
Ni 1.9639860978300747 5.459525610807785 9.294766202141489 0.7238696695800114 0.09547483057055817 -1.068241427230431
Ni 6.3212553772823075 0.7490273835011683 11.991328054651875 -0.47352006921402323 0.6473022174369174 -1.9274112869080549
Ni 4.992825311680746 2.0126532056074695 2.1899405267965504 -1.262309579395871 0.14468317397440889 -1.0931893554250205
Ni 6.1396892701074295 0.11766054871872887 8.152420865687157 0.7861016789370397 0.6028002783698005 -0.24681921861522654
Ni 4.268100686007744 8.026134620378084 12.598422927666677 0.2125510414609759 -0.002467230593569944 -1.0966711433260339
Ni 6.640414550050649 0.4874139160824963 2.7112179776809326 0.2801070341340789 2.7069643660932994 1.4688311268333156
Ni 3.9979819065989832 3.9757807465985184 3.056396088741537 -0.526591495117706 1.5709800269899394 -0.444763308796305
Ni 2.770898876560701 2.9714932162874703 13.354531538661899 1.5496522120464409 0.2272217560992732 -2.6310368615270496
Ni 2.360359393273424 1.4140057853175179 11.450081691548496 -0.47248520019160567 0.6595805205836383 0.20894018418126598
Ni 0.5818924969335691 4.979051073698112 2.559512850652958 -0.42308556671255526 -1.0211845829519444 -1.6280052953350477
Ni 8.377480342470344 7.099761123208641 5.681251647342058 -0.6167449134753508 0.18389506828718008 -0.1156289369209299
Ni 2.424685831223488 0.15175458736761366 2.3598526580956074 0.7062128757301968 -0.6832015024366879 -0.00688284316276234
P 2.8167850067508167 8.751148542377278 6.751301831880627 0.44125760963589167 0.417754641417945 -0.020972488486609042
P 9.016694573404271 6.869919858117661 2.6867556402663806 0.6826219757841341 -0.28060582814736834 0.37802415559754254
P 2.1615381600620345 5.9651129354589685 4.887759418504945 -0.05766727280448133 0.3287165676116661 -0.6446359834586639
P 4.950373408846734 2.319689929094347 12.909960542060752 -0.22674378802159015 -0.9793419358845458 -0.21529980785070663
P 4.194348787107505 0.5320467399304246 3.599623665072364 -0.20275231020299922 -0.7112311548803945 0.1683877166802003
P 5.255151754561391 5.703962342162206 2.098278385663065 0.13518526178630266 -1.3226027198589736 0.7251117695172286
P 0.8010157997460557 1.8280354887982269 3.3187766580316 -0.3070349688731744 -0.5748675565152744 0.7737488137986416
P 7.285069418344926 2.3460998840339498 1.8553198652140983 -0.30085686508692056 0.5574987262195238 -0.45281137591176207
Ni 3.0614270451754386 2.8713686910058467 4.885301332946256 0.5727242849200265 0.05037665268033905 0.7897261630635044
Ni 5.378252007426514 2.311832267589349 9.622188051271499 0.3401065546161627 -0.34152503223024405 -0.3796331519558752
Ni 1.4522488932123914 8.166004728022877 0.18774864962982107 1.1463805947360193 -0.3733478331677957 0.847717651976624
Ni 7.50897544267916 5.14374467255822 12.646309868577305 -0.326620861424902 0.3161220187761072 -1.8216409879487596
Ni 3.606722623631571 6.434575547894178 10.606763303201303 1.1086812804130324 0.6015599782047962 0.5787463227443903
Ni 3.6221579824549286 5.778451480087262 0.06880213208046418 -1.3713325809645092 1.2979851784206098 0.0794709989431341
Ni 5.81606000249242 6.5129001951761865 0.05453888998516789 1.7665394189889254 1.9539651261371833 2.8863147524325905
Ni 7.15008935182676 2.9505518951268805 13.290787426220044 0.019921421514275367 -1.7198993505328832 -0.970049454839026
Ni 5.135196432726179 4.191371834589578 0.27037448003255843 -0.794247962193258 -1.6067353302126781 -0.03063366572545692
Ni 1.0115386027449955 7.699901685827333 4.177133789271079 -0.42331388067327735 -0.24016777473697992 -0.8361605432666437
Ni 4.942469086643963 8.603495430343925 5.638308873967474 2.08989857894342 0.9365978600487999 1.8785816669998614
Ni 2.15358717716149 8.33903192750527 11.341865268059053 0.540095957362044 -0.6836640438954033 -1.220634568254588
Ni 1.1024523062861997 4.182524966291789 4.61732054670946 -1.1718669119325817 -0.7200883481607082 -0.5735755771767284
Ni 4.505668962649957 4.310309953213335 11.216903253352783 -0.0328260453910854 -0.696316185441775 0.4639805051547042
Ni -0.03993782443799399 4.910842465693322 10.662967980096973 -0.3703013330319881 -0.0433822236403769 1.3673743676477095
Ni 0.554173242814452 8.950809668148585 8.881144313159318 -0.628770220071001 0.7493369606131804 0.18527857889826801
Ni 2.187742807931435 0.7008315487712823 4.659853639157596 1.3920327896263383 -0.936536153572929 -0.4682500790643355
Ni 9.04234862503995 5.325460093965972 8.443948506448196 -0.18000396076289 0.3654049241716352 -1.3563708174483544
Ni 9.396624638952362 8.78289648114213 12.180704229420023 -0.03270391799092432 2.0329321888607055 -1.0044832110368636
Ni 0.7185990092693422 9.011683214463435 6.074644257411659 -0.8132340163774575 2.026140362749852 0.9171821745263495
Ni 6.31994887774466 3.799580619667552 3.1717833282647585 -0.30534061188988704 -0.06891044981846842 1.5108360105101915
Ni 1.656930710064088 5.975527603201935 12.402737293345643 1.8112316196899774 0.2972382944977268 -2.1628037517435783
Ni 4.613315192412612 5.615782955510507 8.276112776200042 -1.5298228360253396 -1.4359765421971398 1.219362386410384
Ni 2.9285840386152824 2.836027878512463 9.322246553488007 -0.09381595481089648 1.5137814662917608 1.069758892316222
P 1.9571269752574216 4.562277721188342 0.71928025545683 -0.873821033931895 1.885344953865624 2.027791268089714
P 3.7231224002964693 8.006565123732026 0.990157737811383 -2.143009856946103 0.21007866866108332 -0.9044624129668358
P 1.9541406905999403 4.176347089906623 11.069964983209312 1.0019457893269907 -1.2370415488577016 0.0546858215786542
P 5.349760985366229 3.8215111476209316 5.488680147990404 -1.7351755599656633 1.325828168774807 -1.9906339423131263
P 8.646292622341457 4.9255125890732 6.318490264332271 0.7453005857602777 0.3481427946570778 -1.2940621892171198
P 7.963301324756761 7.815517562769642 13.456478630798543 -0.42466319561232024 -0.4378845793986007 0.813373113058483
P 8.118840094713777 0.18628630336161053 6.865842646346244 -0.2782962061775852 0.8414094503704089 -0.40506599020668305
P 5.804870767166419 7.308315777975509 7.576140717481743 0.2408969395935206 1.785469423124209 -1.617782332055459
