# total energy = -340863.799640965 ev
CRYSTAL
PRIMVEC
9.29513372448080 0.00000000000000 0.00000000000000
0.00000000000000 9.29513372448080 0.00000000000000
0.00000000000000 0.00000000000000 13.60436777229590
PRIMCOORD
 96 1
Ni 7.380726524252222 9.10925887540804 8.08132119774713 0.54922928712188 1.7539710954056114 0.3094770026557638
Ni 1.8183605228776827 2.1834547829037 5.939680573627661 0.7162782303859987 1.6123585899367263 -0.18944787978460922
Ni 8.731160723387104 5.1189602402354515 9.224373528747472 0.7217526232370086 -0.07971705351566916 -0.6254403843668196
Ni 8.716251328991216 8.03508534387928 0.8847572977385929 0.9668288910191993 -0.02792732253788739 0.6426091828366224
Ni 4.572899022919182 2.8609770756196324 4.83010838456906 0.39974406377313737 -0.9473553556756201 -1.6302334133346181
Ni 8.845212013435457 7.90874588712808 3.645847937499333 -0.0755400393198441 -0.17069759576029958 -0.6924788139735558
Ni 2.9535194263711735 8.128380600457545 12.485558161319501 0.2848016113962708 0.6740067233112972 -1.2971842797858693
Ni 4.069706962057925 0.8508551567285391 1.0997435147230563 -0.32808536178557046 -3.263909276691882 -1.687439687342281
Ni 0.6231067212244027 4.014307965424821 13.555323940465135 0.37665375761257713 -0.1711151429136924 -1.4433684637858368
Ni 0.17277143793934494 0.4740620414739271 9.96307732074843 -0.7220878950892402 -0.8656099588760124 -0.07820190242272339
Ni 2.4990617513064546 6.090385364250397 7.6310983855793975 -0.20425203467697728 1.8550398751241794 0.3204319590053707
Ni 3.636999899765264 7.935608823414937 4.9286721229076695 0.14219717432776158 -0.8386611982013105 -0.9039219670823336
Ni 3.4293187283267663 5.848498100931057 3.0486839343291234 0.9570162758041518 1.8890098043117207 1.3899645942433998
Ni 5.852634435411213 5.496454208568275 5.694447991702909 0.1436706735494945 1.6222030868309738 -0.4143371310959639
Ni 2.4371375708417333 1.498784532400711 10.37783362091058 -1.733431323581047 -0.557079379293918 -2.045948398614715
Ni 1.760795760101036 4.79949579136244 1.9261338796498622 -1.0610083998171016 0.4887374003844098 -1.6953502004386094
Ni 4.857683328094525 2.925420237307101 13.15609051352065 0.6834269881839327 -0.9510178921288718 0.7984386032358378
Ni 2.1007187981669118 1.8933164807383123 1.5014596718690008 -1.0588484160513054 1.1017058775364639 -0.24136565169982302
Ni 2.4821631983066252 6.1863947998583395 10.489797223938162 0.28675385002663517 -0.5163153100026785 0.02280697059218653
Ni 2.8092217713825316 7.1919516546848214 0.8843669021247355 0.4822625912933436 -0.25287005279499675 2.669993702406221
Ni 2.615436824770626 3.7058954304774394 3.691368066075111 -0.5513239648673796 -1.5468263125618715 1.1255289480979906
Ni 0.5788981360085124 0.5078563589334869 4.854147459249016 0.10300044952364197 -0.1876725330517413 -0.2936485202639394
Ni 7.947144084291059 5.259874466570663 11.673418165811857 0.1078076411042982 -0.4845662997258558 -1.9380543684441975
Ni 5.677997464145649 6.424554714578706 1.5879285822849596 1.0218363576033305 -1.2030999018049344 2.593186880558812
P 2.1257877736567576 1.4565660353021272 3.487819511063304 -0.05792566867219057 1.3093908491543902 3.0341932934158455
P 0.8469353988627372 6.898123184455113 2.225157400083972 0.5329606318688433 -0.8197247663081239 -0.7439723538671574
P 0.40838634506270893 4.0070484660338055 4.324433593506344 -0.8568041876589244 -1.0390480934959265 0.10618964588490098
P 4.434615319410677 7.387028624875921 7.470525881059731 -0.20560726315329106 -0.7672400661458463 -0.6018535981858151
P 3.8527213618224923 0.5778087463431768 11.451435501719049 2.112108539381556 -0.6102587915303749 1.4011270386181225
P 5.21811143102158 7.577922784918549 0.07623217971259676 -0.8131689674674769 1.6051661859533453 -3.7969946070640477
P 7.5291883991220105 1.754856169690205 1.6588216372213724 -2.796842162192054 -1.027539835746011 0.30064706306895966
P 4.54162089814227 4.967496037192426 10.944754977193966 0.5935031693385907 -1.016858701883081 -1.3690221876637776
Ni 2.96379054906909 1.852650270961495 8.114842238276989 -0.40983872900497803 -0.9091598184425052 -0.9958849278448914
Ni 6.321276484446086 2.9973180961925134 10.919572601073428 -0.6776198945838523 0.2556013356832308 0.19960476571295302
Ni 2.084601036394797 8.715572784233796 2.8998251572519136 0.11698108007345015 -0.6296526226759542 -0.3502235884455065
Ni 5.090572902027818 0.11169125561124868 8.282678889754502 -0.8409487086839065 -0.2886911762586641 -0.6941646863164109
Ni 3.5476829603948783 5.419825126648256 5.579967266479312 -0.39736219380452215 0.11446217030633836 -0.7900120697350393
Ni 2.483473812153146 0.0060139514801373075 6.362395367232304 -2.4937420095969114 -2.4308631106845042 0.6941361470713207
Ni 8.063277484279986 8.507027165364615 5.907914454333428 1.1542497130714509 -0.02078891172089323 -0.22824839759157464
Ni 4.356340998832259 5.004862474518782 7.966432416155715 1.6364778515824332 2.4001070604485695 -2.041939277455322
Ni 6.236634997308327 0.25974321508648673 12.656184282409361 -2.6811162946819436 0.26944441221391013 0.554559955306174
Ni 0.334982674523846 6.663867225873321 7.610650950546931 -0.8173166710872634 1.3214740055711691 -0.7907592323137091
Ni 5.205999871858335 2.1849420042898235 2.160700295696009 2.578472200056456 2.397933706946335 1.5541045913908396
Ni 0.09408627245301057 0.9784057693960634 2.468784712425077 0.3294606448665423 -1.8771035397924383 0.5382745878825891
Ni 6.442178288004271 4.896769365148586 9.426915420783546 -0.03314563351403323 -0.751969256029705 0.4843395284270304
Ni 7.480212339850229 3.0022073364993953 8.764355504725383 0.8647902911881944 -1.3378881852631346 -0.8220755259284874
Ni 5.786313656723764 8.423910080147632 6.03303346003464 -0.6165577371652091 -0.6549263096410786 -0.006919095717336471
Ni 6.371488796495084 8.78712672317367 1.4415460288156452 0.12662811624491094 1.3901348012726769 1.0277264978355203
Ni 4.407919695529758 4.534510120889867 1.421574504626738 -0.3194904210277078 -1.6997413875277694 -0.009123816678139125
Ni 7.4264771721428495 3.0566675246325086 12.914789773135464 0.27158485559568063 -0.4633032765820214 -0.28420691523506536
Ni 3.4783505584005288 5.24694493564505 12.917945471014145 -0.7910816486501343 1.097405193278581 -0.34048887765624586
Ni 0.4821190633332517 9.148586585937347 7.700725443310874 -0.342496652114894 1.2337014287408752 -1.3349627840862235
Ni 8.885757386474653 3.2646275500809043 2.1019968790456116 2.3268511891772117 -1.3603683686435217 0.9599126235153405
Ni 4.564096531340063 3.3117724680210223 9.092206952702766 1.5282629477373875 -3.3448247213910265 2.3874577471156755
Ni 8.641007221987024 2.3861444675650203 5.94978903148647 -0.28528549301122474 0.4620424075917269 0.39764192982847
Ni 8.129812051041691 5.880129440787173 4.822816352210223 2.2302113917642754 -0.36553142244717046 3.0000187044166653
P 0.3804563274313077 2.519464569697338 8.100924634642972 0.7731582314024942 -0.1658423245505273 -0.017762209079427476
P 1.6345957303547856 8.002775459265743 8.987412686269666 0.5293533741335593 -1.025144596040957 1.5124858874087885
P 6.0738493214634355 1.3730492593376238 9.598724812388742 0.6309790547968617 1.2026206481756707 -0.6541130697111638
P 4.15643985426992 7.9114321807567665 2.614065792555294 0.8509032487934571 0.9734111722224074 0.8951737885760583
P 6.586132023047373 6.426060526232156 3.69872795290969 -0.45803894285928864 0.8240154232636776 -1.1822942779134928
P 8.236408643892098 5.311220784926579 0.08049028044374187 -1.0655168292104165 0.8133060072659735 2.5612190694029633
P 6.708967214407519 1.2445161510418918 6.114605694036786 -0.1571856773167938 -0.710034563469132 -0.5650004339132076
P 2.8190932033329266 3.457111177979951 0.23666804576741277 -0.11915700467884638 0.20860362677745364 -0.17606683049201288
Ni 0.855302878186415 4.509199471924775 6.616851510291123 -0.8963888919300821 -0.8573654594790332 0.34777898355975595
Ni 5.004044502756414 6.884998455722573 11.533020748908323 -0.27062249168241137 2.330730212516644 2.624573622400209
Ni 7.485333958498691 0.8018614367027961 3.9773049678246997 0.05365300943876566 0.39216702275682785 0.2835589972384213
Ni 5.984272118350479 3.3392581782633193 6.633748204264219 0.8084918737067818 -0.8964423708758367 1.127273441592923
Ni 6.829618049356795 3.982481427761776 1.3541569001670224 -1.012533849255482 0.6294741881165611 0.5197281923389694
Ni 0.49900274411921985 9.181565720174637 12.303327995364409 1.2722245245167378 -0.8131715385706382 0.23099227888529894
Ni 5.353467167426153 6.715659710645075 9.426888464895923 -0.7014938729879725 1.9724135626503578 -2.381926018664169
Ni 4.2792285699617505 1.0048597198017368 6.239330586070676 2.6482491116402778 1.7830577283589228 -0.5034299693995782
Ni 1.2080420465472104 6.429741399162813 12.99597997714405 -1.4539318411239799 -0.6266372328883982 -0.49869425448680565
Ni 2.469410274920615 1.4942949828413503 12.817218755072092 -0.5649438696436593 -0.2852096454679669 0.12984945139568604
Ni 6.656366053007059 8.726912847302989 10.35522320827467 -0.21222168314601517 0.42857898572695874 0.4809266460907395
Ni 5.932470338445061 5.058662708161803 12.831802819789766 -0.22416111489607848 0.14221440071894215 0.7578449980841915
Ni 3.446496135336494 3.2032053068339996 11.36008199856304 -0.1954570620931666 1.1313982623945742 -0.13801810324940747
Ni 0.4282110061397365 2.7206763281061974 10.398402822194036 -0.510473763620237 1.474560058897293 -0.09112041025660436
Ni 7.632048348239785 7.616850804700333 12.448445481142151 -0.1867991293078525 -0.6095165140477116 -0.4860400560579049
Ni 3.758217737868 8.415432918246728 9.864717145837046 -1.573666315572851 -0.19528814061547012 0.24120624330382331
Ni 1.4495667996536832 5.862078291213098 4.587106634723494 -0.37972442611810087 1.0697303530711317 -0.8381606044158081
Ni 7.169745580363263 6.8908265045294455 7.5651847337464 -0.787581863026992 -0.9177858695486194 0.5921713379010447
Ni 9.14439448065521 1.7768112754028547 0.20117085982074143 0.975373952375733 -1.371210196454032 -0.3477933817374591
Ni 2.3217849620805215 3.985818380746891 8.88661811585187 -1.8718039819563959 0.27002188198393495 0.5184310707941007
Ni 5.218678434175039 0.42653230500014944 3.7993738011888722 -1.3115397771765929 -0.6434633033068015 0.0667995741230527
Ni 8.5900420041113 5.2965344737386095 2.5552536228410356 -0.41218794596344493 3.2330138726646065 0.0995842247532414
Ni 7.115582836507374 3.722189799789156 4.321182155750931 0.3185362846445547 -0.6307067749720816 -0.8188359359452672
Ni 0.4023287064543542 7.347700914346615 10.86323758448043 -0.41502952917729813 -0.5376953183403513 -1.0662228541385057
P 8.060070663166156 0.9108004032363498 12.036953631922543 0.18900565004086803 1.3541887221953708 -1.2063554326277546
P 0.6138329663685557 4.819145703926597 10.995947925844439 2.8237418147963758 0.3161220187761072 0.39355104758854803
P 0.8874259306133184 7.718948552857719 5.561696751750784 0.027095313554895268 0.3870137606906625 0.759053416569996
P 5.163167895937976 4.465140538360864 3.5607528478388057 -0.4230485428270327 0.04861030480853564 -1.0899741909218323
P 3.600079628854745 3.5291112833356597 6.537021184337473 -0.8524865341201769 -1.0465865679648167 1.955490304532458
P 7.588389105423393 6.828669945723142 10.153878529454424 -0.26292358037625685 -0.07765451455968563 -0.7389013671021534
P 1.4414986236339624 9.187421654382497 0.6346447706406227 0.31443871753641334 0.05718519096174022 -0.013712207379769933
P 7.641585155378301 4.911186117460321 6.886353686210678 0.9288390420389875 -1.0066557932081501 0.5816305862707208
