# total energy = -340863.0803270805 ev
CRYSTAL
PRIMVEC
9.28422106065869 0.00000000000000 0.00000000000000
0.00000000000000 9.28422106065869 0.00000000000000
0.00000000000000 0.00000000000000 13.58839598572091
PRIMCOORD
 96 1
Ni 2.9830387663862745 8.532115514251666 4.651470837023759 0.09901781072681012 -1.0554201070960467 1.9927880125416517
Ni 9.136991794725589 5.195477907968386 12.89037394141723 1.0165619965782686 0.9204451615483372 0.7966131199913249
Ni 0.03420028479043741 7.979017334132352 0.32913955974921727 0.708916904924921 -0.8584139553482054 0.8409016574960549
Ni 0.9838767489472605 1.6076371348759566 1.6436385585347448 1.0526893384284453 -0.1874413908775417 -2.0699779287600935
Ni 0.7373249768445226 3.6427012348093704 7.775089420506933 0.18477258579612693 -0.2879524983204267 0.466239733502526
Ni 4.932669464945635 1.5595355860258175 7.46007023243233 0.2170093343426456 0.3764293003065969 -0.6938124451833148
Ni 6.574231143249193 7.855137973717876 1.5604370838820902 0.7534653809592572 0.6401069852400588 -0.6683657229754361
Ni 3.2567190321659294 0.9904685458365866 0.744467328037422 2.0175166256365835 1.7489083361707234 -0.8662985003026047
Ni 2.9521780158790634 4.579061340827658 6.702612422412449 -0.3651254452580034 0.06402921046676716 -0.23719300837937213
Ni 3.3598667271524265 8.771945510371486 11.973482846774882 -0.5092172655053167 0.40578229954741724 0.03661096635481437
Ni 7.375542971025034 4.842139026258566 11.569431693277911 -1.0679457503668834 0.36775465535073437 -0.6385404120838873
Ni 6.277581714787576 6.108516050907819 3.035756429903136 1.2300738592906169 0.14364676229009454 -0.21724587583348393
Ni 6.742851164522349 8.460831265637236 10.446011246294102 -0.8245782377456832 -0.01433981366143982 0.16711476350504767
Ni 1.224644451385139 5.96830574580556 1.8822783175260973 -3.492674980239508 -1.261911058405872 -0.9145899883191411
Ni 2.7482129653697607 0.7273119445274265 8.068082722750216 0.5543144149542711 0.7116386747314583 -2.562324129541684
Ni 4.584474041653682 0.5913733094938718 9.570062637711246 -0.048776398072754704 -2.2266403865835653 0.738862800554734
Ni 2.660681330056286 7.300294360056036 2.7223675510310197 -0.02361943919115287 -0.23729148163044939 0.03473766059150146
Ni 8.95632085463223 0.12405761745711723 10.34464147962353 1.0897497336158524 -2.5415120778923392 0.8231047385239502
Ni 4.5196330423930435 5.6998246437696 13.015155728110077 1.052139379462246 -1.4473804131587071 -0.025362904244820836
Ni 9.001442168550714 6.433417363783828 9.645314962368632 0.8499069463184589 0.6487399783247085 0.48110816597392625
Ni 3.2859457597822654 7.680678177454036 7.2967236486706355 0.31331874499935713 0.7264556851396328 0.7038901411342909
Ni 8.071302490582918 4.113949722849391 3.693760736460832 1.4983473911248775 0.8698805612269082 -1.0260673649655425
Ni 6.589587244735031 6.299139675881965 9.625816241485584 -0.6064232198343685 -0.7944168836709544 0.8768166262251093
Ni 7.114229287578594 0.5827213439711071 6.325887516499075 -0.9212607154710973 0.059649079121200495 -0.3328519299362783
P 4.27070450972176 2.9173807556801985 5.636969539374633 -0.40629986261378415 1.7279373903460113 0.7741491345608538
P 5.959810683617204 0.9078631181702626 11.88596049568238 -0.0493096448684054 0.113191788234347 -1.0467881424526617
P 0.8563635444447811 3.55436187227143 2.669249737590313 -0.07489520664699359 0.1410959708437828 -0.5409850448352167
P 5.376343816702136 8.322654204927602 4.991900937895666 0.8382588205565692 -1.3341508297078892 1.3543812978221514
P 3.2995007223997526 0.28312974588381823 2.67399211766224 2.225132691689787 -0.9814289003205613 -0.9321886752375107
P 4.981523035694415 3.213863068164339 0.9368846645031421 -0.5001132463215193 -1.4783411232062798 0.10079187190809738
P 8.354072008693066 5.551964140587336 1.562951250921005 -0.09896407467073924 0.7081646001399288 -0.04629322663958478
P 1.2958544262318028 0.226379945199303 5.945670815078551 0.12862252096712043 -1.313135660908803 -0.17699705561576612
Ni 0.4538739969151118 8.576104153211705 2.842869311856289 -0.24172740591461597 -0.173297752387308 0.03716632463765212
Ni 1.9538178822172272 1.3314686978761054 12.262372523349034 -2.117782706948198 1.4285116012786625 -0.06827410178605015
Ni 5.323711568018206 4.425815989482282 6.865509649879154 0.3877915193969515 -0.5015844315504071 0.530806561640318
Ni 1.4951773662556647 4.5272182509262535 9.892692101715681 0.4672961997914984 1.0887251490060799 0.34739023276176945
Ni 0.7697009122141817 2.0272653543178736 9.98381580212279 2.089224435694531 1.5896932871287266 0.018252518452284695
Ni 7.467967390790162 8.988007900805849 3.9749723622920663 -0.18039656821561836 -1.0863803029229873 0.009835498033183062
Ni 2.9473223683112924 4.697927221917858 1.2607507867408985 1.3832766407002628 -0.8155981457342599 -0.18242593994082132
Ni 2.27927624835149 3.1584362689681744 4.249172544446091 1.7324543043797584 1.953534466357668 -0.6999717799164913
Ni 4.804147994045717 8.05395956580931 2.962501141176587 0.45405578984182443 0.5956222725641226 1.3608219112411726
Ni 1.3546792503033098 3.460544819360669 13.472323766625657 -0.5261736908539971 -0.3330979845088134 -0.2969780988578047
Ni 7.2195309218303345 2.612032012168866 7.994800509782852 -1.166488421229488 1.1983523598176202 -2.4239920945962834
Ni 2.084586134592098 2.1467347097711813 6.259073620282123 1.8493981034573699 0.6648996188037065 0.9962248276828134
Ni 7.548387312839941 8.937408896514542 12.79751037800018 -0.07652708582346175 -0.03914350296868097 -0.9167137195303631
Ni 7.75578752510847 4.123614596880079 6.104654743406029 -0.1907645417135037 0.3626756981659302 1.0752309711743868
Ni 8.7843120927047 1.74075429515646 3.306084163490205 -1.1263761265896344 -0.15877410484983623 1.1039000569743054
Ni 4.017551656508725 7.6560842761021695 10.030831097119334 0.2525152405587393 -0.5341219991667963 -0.4452641596921235
Ni 5.342669947240747 2.5285668656406384 9.90417389779037 -0.7683764937431348 2.814200965185476 0.9168787843533176
Ni 6.563405741597144 2.998032783254249 12.65261711184021 -0.9135198951834139 -0.6276294215983385 -0.19245401360078468
Ni 7.1682727378500966 1.392466029654799 9.840824872839752 0.5782701544389203 -0.9887339186224067 1.352673313992109
Ni 9.120846534457225 2.0718110465361645 6.288138802453567 -1.347486884695163 -1.2458203234915963 -1.014844756776846
Ni 4.225694606454924 5.679390073412689 8.97523095590572 -0.017137688121551132 -0.8745702533930939 -2.3850026007069633
Ni 3.1062218102279346 3.0622517397098385 8.516078879368663 0.29810501337339623 -0.22082896519905193 1.108615974392736
Ni 6.702409097973187 6.649767565068288 7.374789092282198 0.0664301065987759 -0.2679997093475836 -1.0405491035214853
Ni 3.7547339292650017 3.1908753370404352 12.789778478775629 -0.19214419566984972 -0.6690820323161702 0.5837671729977495
P 5.967340186824589 4.2707787834895266 8.907179473033352 0.4432959802221591 0.4735347245020426 0.918063034469406
P 7.968953238599917 0.12526363776123478 1.7946603389575944 0.8763085762404391 1.1775104833716044 -0.3889824543812591
P 3.1080508017591986 2.253512535157293 10.816376460842422 0.9346980719229256 -0.08462734633309296 -2.463949608825828
P 8.549699828770516 5.183334146938473 7.970191753677431 -0.2011299441082278 0.1300271146241309 -0.46652358329153204
P 2.458415291984655 4.970029170132463 12.021885204384478 -1.2821379269757078 0.9048948725185642 1.580949993718458
P 8.641882858790403 7.429252189341584 11.647605762274832 0.46524625924100516 -0.35840920958009237 0.1137386618767525
P 4.4284712766799545 6.6850754574205515 1.4711479455388285 0.09284587758814332 -1.8977042467619252 -0.9215437939291549
P 5.403119509982159 6.9535194225726285 11.568616538676668 0.7545830395034683 -0.4540807295424889 -1.0717404415226253
Ni 4.032359988957281 4.300627553910911 10.778831999658275 0.37627092035186166 0.23897889663520133 -0.5236542668662529
Ni 0.07333049091641307 6.327558676273834 3.996360422142687 -0.19276460286266803 -0.0841159539143132 0.6396007350276017
Ni 0.9727449680031732 8.523861841808552 8.012641997222595 2.469351239457373 -0.7199042571743602 0.09030742743700576
Ni 5.04548203396282 8.299090852103504 13.206725415201156 1.2376989799360427 -0.86836026792764 1.406290842207249
Ni 8.268044417176874 3.736871088117025 9.744088860855747 0.3296102830705291 0.5515574210344243 0.4055426727327855
Ni 4.6875288944304705 0.9902085876494019 4.9826742790948035 -1.2071866702797984 0.9082087673831455 1.7243471018915915
Ni 4.46000049109707 6.379169660650966 5.823470041815611 0.46851027470425766 0.31810613908567154 -1.5633173682383592
Ni 2.688636119399612 6.862961131222646 0.05629951596742744 -1.6676054262251732 1.07383743326097 0.08022510350033926
Ni 8.927400506307931 8.0274345464955 5.804377969811089 -0.284758159752845 0.5343667681877506 -0.43942287041999806
Ni 0.7566324427755684 4.218137250584627 5.417190675285627 -1.4983437915804518 0.5818954098963334 0.40017935153834305
Ni 8.193473554338752 8.497308969831831 8.025972281692587 -3.852643820997236 -0.1503776532560249 0.8757802145407949
Ni 7.098288280171588 6.527949301709348 13.272519903955503 0.3625466287872337 0.3748190183966835 -0.688642213836285
Ni 6.790924860709575 2.7458826259060696 2.280581609819996 -0.4644916404631678 -0.3606499259851531 -0.24784328900436672
Ni 3.7351999283422663 2.620044294866737 2.5493867311678406 0.6766811848196669 -0.7512940843395512 0.07481910199341953
Ni 8.280169609764847 1.7833224483079535 0.17952619564765074 1.4450507365842662 0.3260400492207675 -0.0015241499540102784
Ni 5.911198502613667 4.481372767772039 4.54280460109217 0.15958425945595742 -2.2948139582360088 1.5453502422369771
Ni 1.1885288318084086 6.377099279374459 6.5257322297415 0.35688634517766277 -0.03473380393675953 0.9816595282741287
Ni 6.408684199117399 4.637412669629651 0.9550603838978374 1.146902014457128 1.9154973090792884 -0.16227517602455926
Ni 5.6817482655392935 0.913152338857374 3.1008583157730567 0.46939807662584965 0.30354058256667077 -2.2703650811650253
Ni 1.838823521271885 7.034255008135418 11.231271584433385 -0.922981554816946 -0.5033870319767847 -0.8852994668851398
Ni 6.107067712436361 0.9616967450478238 0.48355008082643847 -1.1673250581981702 1.193571393489209 1.5758581810178474
Ni 4.171354061112353 5.04875936396554 3.4409755383982445 -2.6399429057674277 0.8064121083596176 -0.9526106905372884
Ni 2.3346287737798876 0.07554756288425966 10.010014016858424 -1.9356231332948857 -0.12621442574626004 1.789322735432028
Ni 1.8759325524924997 1.0448833649469251 3.7284521565406297 -2.6987530339271006 0.6671565331586833 2.6156727203661534
P 9.109473363767895 2.7718413077406545 11.804551804099203 -0.6314256554159771 0.8635229944399968 1.1010859845642778
P 5.731678805920696 8.520928027981753 8.168011578326109 0.08485000386686031 0.4166490670585921 0.3390153784345129
P 7.202401534139058 6.0791036388720645 5.3131303413776925 0.7111841036925429 0.6772702245539174 -1.403609438720344
P 1.8914279172929014 9.011524832525092 13.579304916451031 -1.3003161405466317 -2.797572355489859 0.1916441161049796
P 2.3046314558229684 5.575081850804832 4.779065742670783 0.8451792018254862 1.0325493731454602 -0.8890540488315656
P 8.868473555805744 1.3305495599999881 8.337744777693672 0.16589040417964332 -0.9732453360685044 -0.2599156467878685
P 2.2120399200803638 6.558531525587432 8.827090069250136 -0.8167579703703159 0.030584557655076356 0.5687992388340075
P 7.133763288501329 2.338361030610182 4.834125815138598 0.35708869099645596 -0.554672055404006 -0.38530166309556224
