# total energy = -340857.66951224545 ev
CRYSTAL
PRIMVEC
9.46195705498943 0.00000000000000 0.00000000000000

0.00000000000000 9.46195705498943 0.00000000000000

0.00000000000000 0.00000000000000 13.84853057925327

PRIMCOORD
 96 1
Ni 6.032754402648553 8.155165927567932 6.079588250113639 -0.16141848445121879 -0.4888926950153516 0.17372481262239758
Ni 4.003533690037726 0.09093792039965962 6.229678539507931 -0.16473932129433563 0.37778504300354293 0.03970606034037033
Ni 4.681397735585178 8.56343990059074 1.4810725249271557 -1.124678170061921 -0.7545624706781779 -1.2565904175239069
Ni 8.674986909049009 7.59605890154374 10.52752828752311 0.08587176026315534 -1.5632865150004238 -1.910965739757522
Ni 4.432500962534471 2.720814057443457 9.299883866747743 -0.04609576591679803 -0.8654171261389161 -0.05775880407702311
Ni 0.8243076967994243 2.104869057052584 1.7819599118870715 0.955636621847806 -1.8002594369491898 -0.04671488755803568
Ni 7.742880084871162 9.42670152725036 4.541972017675603 -1.4608195693827486 0.38571406804263253 -0.17237164102861283
Ni 5.244838337813787 0.46022863149625987 8.249528130125624 -1.3402217184923175 0.06084207098803715 0.42528848790114504
Ni 2.3663596945750838 4.416179087092066 8.969263226807993 -0.673694334277201 0.0594359346691299 0.36711162245009676
Ni 3.0534018381973964 7.117236578782628 0.9038922152609146 -1.2395458033367943 -0.10612099743049466 -2.261928520361898
Ni 8.764449710386947 1.609393690361829 10.32546441574181 -0.7543601248593846 -0.7315922350352497 -0.22575931262113375
Ni 2.2893772142276 4.336556720803462 5.600663738219322 0.19344311698693137 -0.2789654643304679 0.196979412274964
Ni 0.9431990761089377 6.160907145252575 0.2245681897825845 0.11970747786567772 0.09823670958641145 -0.35535628168638156
Ni 2.2552479361286113 2.0983592307891783 10.878864935633063 0.5123205870209886 -0.5225389223148872 -1.1210292604554242
Ni 3.706305241763942 7.677242490700748 12.00944576519056 0.6508076594870147 -1.8287626865952051 0.7750014552588201
Ni 2.2162552122456245 6.771733227026438 7.3888278551658635 -0.8376612961818863 -1.2194845138105448 1.7745417204681115
Ni 5.754885117942979 6.051687778161742 11.226906930392845 -0.9057417938998918 1.2929257616198313 -0.5341099149819383
Ni 7.186062852387298 5.110998959186063 9.567728208246809 -0.16406132139070453 0.9220281897647411 0.9917428806520597
Ni 3.966613134689166 7.200643727782514 9.880787456406209 -0.32620254294056084 0.01457275560785232 -1.8437015672932247
Ni 9.761427710236173 9.333122774713903 6.060019977300631 0.5461048825602853 -0.7776478917427316 1.119361385834698
Ni 1.8850110293541906 9.001462265724228 7.748667963832391 0.1786577311476407 0.9054348041824342 -0.14219820276902606
Ni 2.8437721857762432 0.07998475923320841 12.586513477571138 -2.3680747146033734 2.18922389360832 0.49682197716475734
Ni 8.437321478694033 7.089541431292821 13.166739591124285 -0.619322701504856 -0.8947711538210009 -1.355246474035924
Ni 6.665920164375762 -0.04559338493146322 10.047192051677483 1.0399610922284992 0.5645420062195503 0.7446560101977433
P 6.890301007414138 1.4998431547837605 1.3702398942056402 -0.4058314076177978 1.3129279157733713 -0.21504192620362964
P 6.877867996207574 8.047384777907387 11.668383855946058 -0.7017535544072624 -0.5747677977126165 0.6330819600724774
P 0.5984337569814474 5.482834936656001 6.349897431353427 0.0029125456611046614 1.0853608605195373 0.03875423795006229
P 3.5765439665076255 0.8392301488343329 2.4236726591720332 0.9206395369473307 0.9901747648339915 0.13530353253172184
P 4.958008580039251 6.488991034580088 4.141901561179498 -0.005110581753687973 -0.6976264196127663 -0.38886135542236255
P 4.810345282558568 9.62659482614674 13.404629269854905 0.3351579523616357 -1.0081480614829603 -0.3388248596902616
P 5.990677080855871 1.1259539326929524 5.2036267850663105 -0.8262278575339641 -1.1348533108227101 0.9861748996459788
P -0.060117488586009356 8.349050883910149 4.017250688779091 1.182724680582692 0.5641637969445251 -0.7944801328087221
Ni 4.673175295144918 4.98248666222447 8.865759827806876 0.7713908550894264 0.6978652750964497 -0.41017657196037105
Ni 8.563089808189947 2.9019821438757663 0.5241810511644761 -0.977013287751369 0.24249616575984045 -1.2922487901574649
Ni 8.243313516913698 5.1420814872024705 3.1700119397276847 -2.910061204119911 -0.8463004599141233 -1.3165814533655584
Ni 7.598405466824736 7.587439058918795 1.330611326827158 -0.7491628969291614 -0.7987695042126953 1.6482954130426517
Ni 1.0713868279530385 9.48428699620252 10.475319102412325 0.3644536160019594 -0.9602576655595849 -1.0346836458796438
Ni 5.513491676617389 3.497858333940065 11.492700865858074 0.5813513644674052 -0.6597970074698185 -0.5577442665714266
Ni 2.478777203056949 2.182135396103414 7.610168571491402 0.38804425883770594 -0.29142194492626583 -0.48334811104803854
Ni 0.5426167277511326 1.2496595556112169 4.222874148700352 -0.48812367805981094 0.645542040212701 -0.22125731098572216
Ni 7.265060729528541 4.777313591445853 12.392509300573515 0.9146797198194698 -0.380992237086931 0.47635830999376677
Ni 4.957251623496995 2.662594637387156 2.5790114959911956 -0.03558123953871937 -0.5610211375504854 -0.06895158746904899
Ni 1.7085928452245405 9.255440109564832 2.4638888140664417 1.1427795076483223 1.3164819516732165 1.423881815816135
Ni 3.1570481127458643 7.067485610042821 3.1050347901403885 -1.559799584893088 -1.0202407309814365 0.22802548294749117
Ni 8.125919019166496 1.4123768263260248 6.164618124700987 -1.0526854817737032 2.611044734675839 0.9782165640308509
Ni 1.037541408557396 4.386572624333059 1.704311309782402 -0.6696430470259629 0.12942059138838355 -0.28411589818315586
Ni 7.4841523387279 9.25159855511288 7.656229377087708 1.79165832554374 -0.535070993343627 0.5945580929656664
Ni 0.10774140944207558 4.969239922734982 11.737709720868617 0.3629564626311427 0.8658452148152702 -1.2413458326600104
Ni 4.351270063593573 8.632606804639424 4.1039979085216824 -0.03361485984096791 0.8078773800512344 0.8282441166330445
Ni 9.374821618235456 5.908764921026942 8.480618446715425 0.021593152789743456 -0.4308783232840966 -0.18848423031975925
Ni 8.953442835074833 3.6322748919312584 5.784392230155814 0.2608492143457314 0.39282111140105896 -1.2152882163410101
Ni 6.337495644604233 7.340094046779713 8.823272803285699 -0.3377401112665151 -0.486840183361697 -0.1812432324866298
Ni 6.6157434075809345 5.44956669662383 4.979225125723023 0.4900250088475819 -0.6972104151212702 1.3452595380265413
Ni 0.6959439525592488 8.67087095785049 0.5257924224038046 1.0116108232205805 -1.6729638623236092 -1.0774919992944219
Ni 6.4289927666494835 3.2640249960802614 6.679021189730865 -1.9174523759231301 -0.25881341486262527 -0.44370118608037773
Ni 3.7775159284767197 6.358557960392519 5.914846120648296 1.489428491368693 0.0787822004062256 -0.5988752322837816
P 2.3422790145745496 5.895707420673018 10.701659516699467 -0.49080045356102575 1.1440149227173202 -0.29921264461527824
P 4.807904097709792 5.157741025670401 12.977457876754665 1.5913459922408013 -0.3870515559071334 -1.3438158636014792
P 4.016676348002654 3.704649399327756 6.789297457393822 0.4674882611976465 0.8886123333084567 1.445832094834981
P 0.9584962216322633 1.1467796995617836 13.460438729519797 -0.44331629193713323 -0.6997308675502788 0.23206211491071005
P 0.9926917334286995 7.302425996845676 2.3867937364332974 0.16119479847618692 -1.7394839575330303 -1.9202026849747575
P 9.452769218174318 3.2776312899273212 3.4888874527186475 0.008914785991126582 0.5336016078869519 0.19770934846245306
P 2.6343885442313244 4.774815634856406 13.704630071464702 -1.3229238506438183 -0.32360392897544915 0.4802509601799535
P 7.245474478997654 6.1957839179370415 7.15950976308062 -0.21554200576849977 -0.9643642315287907 0.568370378826705
Ni 3.296451121959173 4.165541313994168 11.511590716370085 -0.5865326515580286 0.3009509674626236 0.5315030734867104
Ni 8.188424705643325 0.14370252237332512 0.34024439617886354 -1.5922579625321094 0.8698080561177601 -2.0182630168843048
Ni 3.704233073229515 4.745426797103297 3.5526742881432454 0.3085465204216944 -0.06971571932858316 0.0929885738135947
Ni 8.630411630666881 0.44868882900955986 2.3715741789555533 -0.07057009690907845 -0.07640984351930712 2.326863016251754
Ni 6.660725550104526 1.130675449125277 12.644275885115054 -0.16051242769718163 0.42941587980595725 -0.6418944161577849
Ni 4.407057760757875 5.192428559219303 1.1578142335565274 0.005633801247009652 0.1338050936093244 1.3245876114994866
Ni 8.744598525066271 9.155427226419196 12.07226275004539 0.9104142596748965 1.9144128177658577 0.17553846879236865
Ni 5.8634421480593355 0.17321720415158295 2.804867458091294 3.010672584586086 2.97122389167216 1.2820996175386048
Ni 1.5421570254958976 7.269100985072834 5.126337737319213 -0.058781331804266514 -0.0035501792451035634 0.30245609125324036
Ni 6.14468935133473 3.623191413424181 0.748947942039403 0.5633004205029654 -0.3839261229042743 -0.5506763039810516
Ni 6.720080404974212 7.51089182858311 3.7071681722221146 0.5188367908729516 -0.2397679681954 -0.7974140186260654
Ni 5.648513799842387 7.337236535832695 13.4789406398039 0.07914472595196692 -0.19252420471708778 -0.40808652220056174
Ni 4.566633661822318 2.2701032082703945 13.39356445759847 -0.853804224490336 0.16147427738981868 -0.23637514046376712
Ni 6.8202446794283 2.800928445484527 4.327846043393446 0.8842555990016576 0.9143449621878705 -0.8632082914130552
Ni 0.029242177423045506 1.7420124765651637 8.20321847506605 0.8157179591415757 -0.6534319844837391 -1.3126610352652297
Ni 2.9520832050163675 3.1764924339250777 1.3747702791110452 0.7124447155725213 -0.2844984783335552 -0.8442019255138815
Ni 8.442052457083134 7.316685165710433 5.621519783349844 -0.3882792576666474 -1.6982637745409783 0.8478369511633077
Ni 1.2264588375910561 7.46362935447597 11.93777901216107 0.42627784839760774 -0.4654061818576372 0.1472915581315334
Ni 0.7818802826059488 5.595630923408994 3.589442505987676 2.6042441668142375 -0.055579537037517175 1.958709582800704
Ni 8.081343740784368 3.7193248942907533 8.095047492786245 0.4281843213917013 -0.6275057515362805 -0.4251632751771904
Ni 1.150706411624739 3.0754481974906165 12.653720810371057 0.1796764022201422 0.4537559992132185 1.1311082419579812
Ni 2.535955807867647 2.6538517893240936 3.6713698049474504 -3.36279441849557 -0.23166205125881392 -2.2350903171231313
Ni 4.151726857097987 2.4359902345059012 4.935588473453293 3.006445433878616 -0.18493687928813313 2.8689556923288526
Ni 4.556660759378089 0.7759750753806705 11.00891669296247 -0.3464720918228743 0.22913697084411502 -0.28562127908408874
P 4.456960120806134 7.964507498487081 7.751562376410845 -1.0104818518224599 -1.9646370040287324 -0.42494678829101007
P 2.889691062020877 0.596868749330332 9.236996863412754 1.2676870416577006 1.4799984563040447 1.655148174298427
P 7.45171675089221 5.335947519631132 0.6278907208233582 1.0811555641889379 1.2726292161543242 1.1612901648579999
P 6.549282623170816 2.017800130779533 8.821818500528888 1.0479006587905502 1.0298049776311038 0.050415476338074465
P 0.31181216225603253 3.6507446315623167 9.402320903219957 0.39789698326206957 -0.19589003586552714 0.10731630329017647
P 9.462713734748213 8.103721268564826 8.507221684393029 -0.18926738834268694 1.0283139949078741 -0.2845892382751486
P 8.365495764790671 2.9994686845616223 11.70718734069348 -0.29448875677704767 1.5912583176230015 2.3719331691175154
P 2.3272534272107586 1.0712354366445873 5.401370327382681 -0.5488824453054224 0.3321086240123506 0.8465449718247614
