# total energy = -340894.343286136 ev
CRYSTAL
PRIMVEC
9.05715347172816 0.00000000000000 0.00000000000000

0.00000000000000 9.05715347172816 0.00000000000000

0.00000000000000 0.00000000000000 13.25605961698189

PRIMCOORD
 96 1
Ni 6.146909057277895 2.0300794822410047 11.495708072575791 0.5341795918776091 -0.5835046633649822 -0.04972642069084985
Ni 4.737045344507446 0.4416956476420486 6.193297081263663 0.07265860400699099 -0.21541525038264836 -0.5679263493107509
Ni 2.9410751705008362 1.7804733840658387 4.770775996230076 -0.10549493381072154 -1.1347977749944262 0.8171204959160572
Ni 3.3746592313100647 4.357505319686867 4.660088521147572 0.0674022407040581 -0.8119908879989758 1.181673099389726
Ni 4.946274651592046 4.445223853045352 2.5226944478532545 0.5971099128532426 1.0734322274027512 0.5910917316836207
Ni 7.258565985244204 5.978545627582401 2.6691341313590184 -0.78901782414257 0.7743239695758213 -0.6153313209572757
Ni 5.1989420677099245 4.465638677432551 11.50761188965303 -0.5200076712526012 1.189540417952945 0.5190584199654544
Ni 5.555232379042509 7.926820897815781 12.629737981554193 -0.4375688479303948 -0.31480664239879336 -0.09607466893808614
Ni 1.805353385215633 6.43750783299364 0.5821992726281274 -1.0212984828219893 0.47838691038802134 -1.4062463621225587
Ni 2.5779104795276653 1.5805910595755548 0.3771371619501597 0.3025409376575628 -0.5099376886111089 0.42590452421858915
Ni 0.7815191478750906 -0.030520796459620227 4.891804023665225 -0.1687193889880062 0.38990213798205103 -1.0156700808916186
Ni 8.880765608810352 1.9352329689389856 1.2933198821206164 -0.5862786265656935 1.1884199311952566 -0.4192384250523231
Ni 6.892077318871698 0.7631068601658015 4.8773288806591815 -0.39312681556693585 -0.0256701510725945 -0.8341807938324538
Ni 1.0151167269267538 7.414267514099725 2.8148709797394735 -1.1063397767640495 0.4443599027102992 -0.21109194041694612
Ni 7.6294020853815105 3.7081164582237807 3.680598108207974 0.21088599505372713 -0.3831969580477336 0.1782080452047318
Ni 7.3997036109876495 3.721394245513769 12.653505764232493 1.3655589117055256 -0.18697422143313605 -0.7134682717410293
Ni 8.069326153764402 8.913117761743393 6.9120275112752845 -0.6963588657542523 -0.7840697361086755 -0.260646354306306
Ni 7.066309784149671 0.6227318467619314 0.11827193557134096 -0.533995500891261 -0.32723458374950093 0.6907852283212168
Ni 1.8382670816766276 6.547814907621724 9.01555235839572 0.8187238358474352 -0.19098154282031624 0.3280660785118608
Ni 8.844093193573542 4.708651167731106 1.23820710199812 0.8702284314846304 -0.3483163441204646 1.0108495195745237
Ni 6.486543262999096 2.0363379754315787 7.02892004234167 -0.16063404087671046 0.0009821614076112118 0.5649430983127108
Ni 3.2566264045957882 4.518287911754995 0.5726059354538056 0.36823699430379164 -1.3799627458356813 -0.24813588054412106
Ni 6.019900591270046 5.49502042140005 4.754060113404426 -0.9364662195669421 0.6521001530461931 -0.5612959884784269
Ni 5.233323023066538 3.103180107005757 9.477154724103707 0.20991746049287074 -0.8881482491878446 -1.2334759429936306
P 0.14426234376189417 5.485039438048367 12.497163894612031 0.21658613076229796 -0.9277797475365377 -0.10821798916883943
P 3.9708373149227545 6.113297959983798 12.6903575111121 0.8545351891190897 0.6495550180268361 -0.19633149427831995
P 2.2917497091134855 8.4898045132035 1.4791907898731023 0.575150634973332 0.12600770905209266 -0.4496311784115675
P 6.304177473719479 7.8931916862143305 5.832057035446782 0.541173506696939 -0.5790777379418801 -0.0909813135755788
P 4.4916055370235455 1.0352236080889465 12.53292878305044 1.0991118915570424 -1.0166836097577976 1.2729215505837628
P 4.147089525470624 6.188617249958932 8.232171965440076 -1.0390218682436814 1.092458647906583 0.7142907676423246
P 4.852985968722414 0.8866265105774014 3.5802231083017197 -0.2133462836687616 1.3086393157003464 1.3291960568057752
P 0.033203525378647916 5.6293198961176145 3.6400075682906397 1.219609212313867 -1.2154172857197068 0.12763547446350276
Ni 1.56662492860614 1.0730915676110762 2.6549370429708485 -0.277725935496412 0.4238173026722572 0.8961685483891598
Ni 1.8244730366270694 6.415652921171851 4.84792664267863 0.15703321089932956 0.07525798930305104 -0.4284231768753847
Ni 6.133422955453344 5.82398530009014 9.320918823181264 -0.44312345920003676 -0.4004521455837555 -0.09030074256878642
Ni 8.397303802703737 2.3647594249010697 10.218048914877492 1.0752176014379482 0.45348937581539317 -0.5784917835314229
Ni 2.3337930164805574 5.292819465568541 6.931580094632466 0.1395525376160629 -0.9813908479937743 0.3391827572503126
Ni 0.9237391034828971 8.861265556944495 9.009388059603383 -0.11056077836940313 1.0198224124970952 0.7058434082059198
Ni 1.5962689925898592 1.208160900391157 11.231104233627436 -0.6016828769359057 -0.49940285051805605 0.6479467929994518
Ni 3.9299986089946795 6.863130655721083 1.6145481401401012 1.1823418433219766 0.43840574200939336 0.1425224188776642
Ni 5.794929951095404 7.831856641515967 7.963922622136865 -0.28735805926953734 0.5534880623982339 0.43382429328629796
Ni 5.278554448527796 2.8305144955698065 4.683578249207999 0.3992144165219125 -0.2610888411603633 0.09384449405598677
Ni 0.9873112651393973 7.577323451740695 6.899023250026332 0.3562096308256123 -0.3609672001152558 -0.2452912120064743
Ni 5.097121546076875 4.762640860797696 7.044336223614718 0.028683998198253825 -0.7331678070524856 -0.061301012902326694
Ni 8.223795909719897 7.441746918354721 9.181836265607053 -0.7001808106035037 -1.4666019803924808 -1.0794293255264507
Ni 4.4807641240725795 0.19806727089348056 10.446119818755657 -0.30839739643833985 -0.09482074192632702 0.048325169467949035
Ni 8.203118427876074 7.320245201782282 4.7361251376938975 -0.45116021346158436 -0.08454841346604149 0.1109137908334477
Ni 7.177422945454978 6.115227133716927 6.832464944802636 0.11786039735460992 0.7257789707875822 0.6288164999279042
Ni 2.279124036888217 5.260095969334756 2.5867212786243234 -1.1327367787003395 -0.931613262350015 0.7915305632620948
Ni 2.3896122545898333 5.0842060449339535 11.448927873835824 -0.177236682430398 0.014850434749271196 0.5155977151103637
Ni 1.0793138321869438 3.3555667513596585 4.08223034227667 -0.004291942507134544 0.28517802089908306 -1.0077086599526968
Ni 3.586297741272658 2.6216655889396256 2.6211076682731433 -0.28001653130280163 -0.555121998457231 -0.3635645285287868
Ni 0.8118153269235295 3.4429139414174004 8.190389504098892 1.0707351401865626 -0.32996329553457365 -0.32847822634861495
Ni 3.9462290283832604 2.73853909998329 7.025446623906669 -1.0286816626599382 0.26802259216571905 -0.5695425447579352
Ni 4.001151608278548 6.900491414637318 6.069539227710367 0.9446119886025279 0.3951577299540356 -0.45189323497286693
Ni 0.6970666241324107 7.0781837126197775 11.220711149783467 0.30615462315075015 0.6590123067849941 0.5897182483748618
P 0.11824385839494331 5.786968713013618 7.750314181249598 0.37179771507185644 -0.08530123247166599 2.4455893611510846
P 8.541729175231811 1.5004624209981139 8.110653945991018 -0.6866758341385335 1.1475386195998625 0.7607462308913867
P 1.8785261297693965 3.1882539514906565 10.351603891562835 -1.0903626846095027 0.8397431184115796 0.27702530988496166
P 3.9444266548016045 6.162297161374547 3.7688437679104405 0.4434008812311396 0.6536880663586032 0.07464992340540692
P 6.988508834067133 3.9883629072870983 10.40754449553138 -0.005331953735874688 1.3032477123711297 -0.2847558457599999
P 6.347941640285117 7.854291211173061 10.303087436463052 -0.5257975384615009 0.2546466850794453 0.1528384560916916
P 2.7471433959761202 8.685094860779715 5.881979160797183 -1.3729600892656033 0.1559893430158475 0.822950215223957
P 6.829157272279917 3.8031984575213924 1.519754158329407 0.1448099293602603 -0.3784671566722321 1.1675600570271116
Ni 5.025669660721678 2.9362205361301443 0.5024401659206945 0.47992417296815415 -0.7640328720624584 -0.42316321402802604
Ni 1.2896118834053907 0.9465540735944122 6.98072058762057 1.1230776583440207 1.64666841896219 -0.15485934317646236
Ni 6.664534447052884 0.8323397428702164 9.36869349739493 -0.048223868003394364 -0.37068571295460034 -0.7858769645207433
Ni 2.5643338061663465 1.7016218041568072 8.999817365313252 1.0398978430907315 -0.013284375813731961 -0.1458314286462392
Ni 6.423704730790406 1.802364524502334 2.282070328979236 0.6883725051146661 0.1174356511123655 0.7765222627787207
Ni 3.9813254988803313 6.671734884225832 10.546600787359926 0.5887126899284829 0.6616808547560927 -0.4903201714904975
Ni 8.303172804542175 7.137834126734282 0.34337028161282335 -1.3476966867131241 -0.1955730188457406 0.7590986679856346
Ni 7.624402536551991 4.1341649671740255 8.233126589437596 -0.49126479479195395 -0.3790621099437536 -0.041096770040309864
Ni 3.0121919411699967 8.38291198551152 12.61054315576724 0.7111545360061883 -0.6052407694904931 -0.46224192519704266
Ni 0.3433268072751754 5.035170614928497 10.185399687303857 -1.4869586896719618 -1.7440011286770931 -0.5292361318294047
Ni 8.66708923927051 2.5163127773726774 5.923417450298654 -0.14223034155854214 -0.37181134191861126 0.12124448333549441
Ni 3.6788437375408045 2.695182505333102 11.648802046887798 -1.227428194137654 1.1435539239205015 -1.0988537527996496
Ni 1.1282315191946026 3.3170466767728093 12.681343831773086 -0.8587762237836307 0.3475136457135112 -0.6780428410538839
Ni 3.4089133865152057 8.494405547271246 8.240417598147308 -0.9027557146883743 -0.9850438713653294 -0.22398576566047876
Ni 5.645894487345909 7.789306133543002 3.688816569454178 -0.5758237497809567 0.031852111513590305 -0.12995075286024071
Ni 3.0662631486196776 8.433369388644211 3.777155517839515 1.1732018286939214 -0.4091303900840437 -0.7948611702972246
Ni 3.3230243981994074 4.364995585777468 9.228563932855696 -0.09419442119623778 0.4821880293016664 -0.5270625212168536
Ni 7.188527015862567 6.271109805645981 11.525070459080165 0.6237740524079902 -0.8984036083672657 0.07871020951770961
Ni 0.6604929318706763 8.874561458541837 0.05952270824766401 0.07200657224528888 0.9146666071933474 -0.2921462246868001
Ni 4.613080082134954 0.26762349398415225 1.5084598876946076 -0.3638206104036509 -0.37098936023794815 -0.719042166284381
Ni 6.120869740457489 5.498561768487625 0.489938576700796 -1.0959224380854675 1.7420599457903225 -0.6107059063701225
Ni 8.202049683742228 8.759517492540859 11.18452238655299 -0.5718416252047571 1.2103612113530382 0.4311205212018897
Ni 9.048639952207306 4.969850422612401 5.830413162054469 0.01336408001173182 -0.9435951173022393 -1.1188281390390473
Ni 8.101750763926859 8.884297898744249 2.41236473034098 0.12248195528702133 -0.26712939092748833 0.2980862443203189
P 8.614910976939251 1.5402142684849895 3.7801643042909023 0.3890765567569622 0.48727161447216083 -0.5748667851843261
P 1.7039042068833263 3.2258592535561625 1.5988928500099884 -0.2552041002448121 0.01654916260793279 0.7450907837423167
P 4.646817979580526 1.195109541943085 8.293150158283579 1.3613299612258427 0.13305176038306762 0.8075449364124802
P 8.554345790303403 1.6493076845203998 12.225202024016758 0.5203344584644006 -0.37318996743369276 1.3547325105139831
P 6.350676900695468 7.835162502607948 1.564851537916249 0.47989254839927026 -0.7175216158747966 -1.2986428666092666
P 1.891957888671888 3.1903461539899656 6.175096730950408 0.015759833937418016 0.1235078254483744 -0.0258814957524522
P 6.828124756760778 3.9435662252023214 5.9760567217520535 0.8070494848333003 -0.5229256162303446 -0.20913918756594946
P 2.3334307303334905 8.21662264400798 10.498945667574795 0.7834536997912314 0.8248913981107278 -0.8680018561469568
