# total energy = -340863.5608496428 ev
CRYSTAL
PRIMVEC
9.28712054949874 0.00000000000000 0.00000000000000
0.00000000000000 9.28712054949874 0.00000000000000
0.00000000000000 0.00000000000000 13.59263968072341
PRIMCOORD
 96 1
Ni 2.3575819320845692 2.606811093335762 1.6553251835750138 -1.7281384506132238 0.5989873323816136 0.7513966713556866
Ni 6.950183669221662 8.218395673388374 12.960051977018875 0.4934679730908598 0.009854524196576578 -1.0402344004945439
Ni 8.666109170392303 3.3863162513495344 2.9074788279742694 -0.8228751390116473 0.8809399043648635 -2.3054737519427
Ni 2.4724264621200533 0.3760429319715975 13.722992627207056 -0.08291859117210236 0.8549568500375405 0.13202409044950164
Ni 7.285021505700664 6.767450289553364 3.8969685628488944 -0.8737721829718307 0.3835749102124426 0.7112486383818912
Ni 8.32054470992891 3.4826515505617355 8.486278944540041 -1.8121117083020855 0.8236271866863235 -0.1324400949409977
Ni 6.52368195505786 4.610377285454084 3.035168374142058 0.45952658314840866 0.1450922364873695 -0.3717542634284307
Ni 3.7592405683133756 2.897878731686247 8.968178331489032 0.5025146566741604 -0.5041982150241704 0.5303558472561447
Ni 6.809223756810327 7.958894957049097 1.8557895333827066 0.21644292031621434 -1.0751427823359547 -1.030013236987168
Ni 9.119060603263938 5.046704772929995 4.526294484096955 0.22130641905610274 0.8106811680486168 0.8780965213787975
Ni 2.1696199036689006 0.12283516836983059 2.5938016951735667 -1.2799308920220602 -0.2043160551456933 0.018584447870406702
Ni 7.653265114016771 9.513354584113566 5.398357869483576 1.2408922900623596 -3.5322090337783876 2.463796371077415
Ni 7.953025496998762 1.1501355562554105 9.091449994514505 1.0021496778076804 1.5869884866030541 0.08056114668351932
Ni 4.428340439810746 7.013001751152765 6.702666124247806 -2.745497489171491 -0.07385005321193087 0.6018921647332344
Ni 6.3828242009701865 1.564201816293584 13.23891819667612 -0.2170003354815811 -0.2641294277588999 1.7264111835094718
Ni 4.414632650199524 6.956786811778287 1.8523365820429691 -0.17894672314296922 -1.4139043928884487 -0.6064005941265491
Ni 1.1676882136844147 7.702654019946635 7.60093590578954 -1.5554086549142438 0.3725808730947841 -1.0594400268887172
Ni 5.518119001023247 4.302453523699555 10.398382789484785 -0.8550486384203984 0.07356903163640233 0.007473939779541967
Ni 4.376406862909692 9.135861003945985 2.8553650809387596 1.2911807539042666 0.47822030290317 -0.05855970271176366
Ni 3.7266149145842267 2.2077528197554037 6.557551154199572 -0.8695548024563733 2.0826048734954847 0.11938557574988472
Ni 1.0902614914698077 0.17608658764610924 9.43293833786383 -0.20641099000150903 0.7171670607488552 -0.11766473640403607
Ni 8.966138879863948 8.932835266350505 0.9885303753442463 0.051547018839356376 0.16826893171414892 0.18015308474624459
Ni 1.6056688085795645 3.3251512768376714 12.754625518817365 -0.437487343960182 1.75761126326136 1.435201097483696
Ni 6.870778790376167 5.112383287923602 5.576584209654363 0.6488106836616438 0.05052680510495814 -0.1666059421894292
P 9.057784183308081 6.988799515565471 5.867059329727615 0.4322214675755524 -0.1269405052790072 -0.41440089445436373
P 5.809585985548044 3.3424438948973574 4.845191907236727 -0.49588815249657814 -1.2811135994762517 -0.4676823794863236
P 7.48230780293047 1.2814182892799617 1.8230310738327986 0.2885713628513482 0.5398902691091411 -1.290931871118254
P 7.2462942139128605 0.007608008976635005 7.559315676018068 -1.6881325996442476 -0.2883214516240712 -1.620035389755694
P 3.7537890286780184 3.45748345445983 12.151969421029023 0.5373091386455262 1.465650929333121 -0.06616579719379573
P 2.8101433059022254 7.761060719719654 8.884203260727762 1.4662050020643782 0.6539657455000222 0.03761498213929651
P 1.357015448789006 7.344626243996616 2.3478434577035885 1.8763998288571944 4.168577892132253 -1.2261806948837979
P 8.519772015308273 3.8306770979133224 6.2755588898383055 -0.9865826766073588 1.1167807695917153 1.9240364568985506
Ni 7.881496096195487 6.094802738088861 7.685250885154989 2.081495956702022 -2.010002319537409 1.3524187747791416
Ni -0.038424531664953215 1.1376165180467877 3.1614982858931233 0.09014801904100603 -0.7537384321149858 -0.4504624160636113
Ni -0.1941258901805524 7.996470645915632 3.801616769679938 1.5799693749727435 1.7586882983756227 1.1179133405342618
Ni 6.367240413051737 2.8439298496729752 7.00037219621218 0.8168057928891159 -1.8150707909304094 -0.7920296143857004
Ni 5.048980117411531 6.174560527507002 3.984179266334113 0.006548085531162916 0.16115083261212892 1.2203718015115048
Ni 1.1971748207410748 0.6233097246964681 5.094806483981731 1.0098401044734027 -0.32379779015381005 -0.8751549222519702
Ni -0.4351981736434412 4.796073256508548 11.463651711426978 3.0691906354266365 -2.2030741692278513 3.168979005770884
Ni 4.863878522058368 5.3489262428001805 12.915739411062923 -0.8459417910231237 0.6224195952626249 -0.2761717036354147
Ni 7.354015522653082 3.856337411392867 0.706530681286713 -0.5963552940754052 -0.2485164038119914 0.42479303632196513
Ni 3.6359076102937067 1.7599185901871461 4.266634029287954 -2.076558410191088 0.1850618349017716 -0.9541528382134278
Ni 1.3803539821853485 7.746294198390492 13.244831306192019 -3.141145271388068 1.523955064390653 1.2831208597142676
Ni 9.117361060243034 2.441732529420128 11.019158987754464 0.9701985788223807 -0.9131936221922466 -0.16924415114322466
Ni 8.764125438384744 8.952561109937385 11.176574748683498 -0.6685806671997194 -0.889996615250493 -0.38942674100752933
Ni 3.100820885198733 8.342768788885316 11.244429235971081 -1.281946122679876 -1.3335707888347035 1.2541447841968916
Ni 1.0639975151686312 4.759333408471965 7.793108714564102 0.021429887739001802 1.1430358466335024 -0.09457802978790163
Ni 2.5993999713101825 1.7559251284440394 11.59972752725529 0.9773282478886266 -1.9759863676032807 -2.240050232231568
Ni 5.438862716103078 1.027257667132049 5.41983433525319 1.160064262870699 0.694450850098262 0.24390050230653482
Ni 8.043667791446953 2.2388832471109708 4.967837618351769 -0.20268751840333477 2.416985324261147 -0.6298626818042313
Ni 5.8236931213335765 8.627028968031855 9.61286422105552 0.42054531678920476 0.45242442488598855 -1.3102249150199112
Ni 2.5910972857326535 3.9334390843958253 4.948482330866168 1.260068091659862 0.9831494825560938 -0.5197536462602661
Ni 2.1508599205966314 6.256779403813337 6.023401499546179 -0.21063017028917919 -0.9669255644980639 -0.5529512160581573
Ni 1.0710092910198998 2.6357590474131194 8.6391551610504 1.789172068786777 -1.5369802730057274 1.3876269472491585
Ni 1.8453322358879667 4.340391410259069 10.614274903589337 -0.15033754404670882 -1.8117355559095893 -2.213275535240885
Ni -0.0188287077627317 0.8825262551535608 6.967804122629095 -0.2973311113218492 -0.8742491226082492 2.0699532461697445
P 6.293036321592614 5.779635022474743 1.0007160059329216 -0.23991297841369652 0.5263665235910935 0.4637439636638659
P 5.178126812759538 8.2414463060544 4.878316279327748 0.28162681321271493 -0.421695628343564 -0.04811870988409778
P 3.7682119265548666 4.882852108898291 2.899486332215856 0.6919180563740793 -1.2156116611187 0.02573957085794922
P 3.9763920159350548 1.38009394281603 1.2508125842231985 1.9629871271301353 -0.3687663844447004 0.5541282670853941
P 3.2859782032738942 7.1381735589983295 13.425653396495825 2.532263048490245 -0.8181875037279909 0.22209291951314009
P 0.8239691040311499 0.7174133288926956 12.254797346065889 0.6709638227199154 1.2813205732807351 1.7788138654809043
P 9.192122378922125 6.954325724890094 11.809271894612369 -0.8810643457578697 -0.20700748593492738 0.861222114220962
P 3.3020170600886507 4.64663420323336 7.906253701578684 -0.16258705083802322 1.2497867643385123 -1.0166576416158684
Ni 4.477534316213622 4.7955067421682465 5.788099303946063 -1.1500768126406837 -0.26830747039598957 0.1998924721567009
Ni 8.914038134796904 6.426863725588355 2.1462915861049243 -1.5608817622136733 -2.285987361083315 0.5813063701620826
Ni 6.5129088954718055 7.369311409841215 6.635614044156977 1.3043684562391342 1.9559890985457478 -1.3240584784688938
Ni 6.6828353362011645 0.2477859427514745 3.5179379642662334 -0.5395562828084902 0.19834955314961322 -1.6094056779559893
Ni 6.893030730693572 0.9765128416335949 11.026770711579232 -1.4006737531307876 1.163181211233126 0.9039980717359076
Ni 3.4112243080821214 -0.13036888038380318 6.035553696501656 -1.0070661412726913 -0.453754970771954 0.171480239562595
Ni 8.20134452045734 8.086555713143852 9.034592386412998 0.2213208172338059 -1.1108623472247514 -0.0002427121384253884
Ni 4.932148143624828 8.658029375702762 0.42863960926441325 -0.9209074458967366 1.5581630777309294 -1.125505551059223
Ni 5.72174840144036 4.848786951517557 7.640966180560035 -0.5890011677031791 1.8066398865542368 3.3585891221649704
Ni 1.0541903160971875 7.058963709679824 9.967903401682443 -0.26186042921906516 -0.6136261653407109 0.003116177031478504
Ni 3.424328434871711 5.973512946542409 9.868514497304815 0.9109709035093149 -0.5622570668401156 -0.24992536834437604
Ni 3.153664599892401 7.5119337167921225 4.184942661416523 -1.0715560934259611 0.7245224726726619 -0.055393132058323954
Ni 3.4983746452851765 0.4845787211650061 9.57861053513203 -0.10761866502194367 0.3920623788581635 -0.11583205407067149
Ni 5.358306234336315 2.466361972542731 2.840929181093445 0.7070533693536211 -0.8663067278327209 -0.5084299937173309
Ni 5.407964466755831 6.948214799711107 11.136761792528793 -2.95009739410619 0.8437658664177277 1.2728135642509886
Ni 9.25990907023128 2.3294698188371643 0.6007160183508167 -0.5909081549179049 -1.7127442275453406 0.02320883401629551
Ni 4.4384541138531715 3.650655557382203 0.888615819955782 0.6939320014803145 -0.8827358199230217 0.054398886465854696
Ni 4.878059954806563 0.6914985483160326 7.847954732401525 2.3659558684881574 0.11196948579147169 -0.6291833963490197
Ni 6.980227503498291 5.663731760721318 11.61580724739951 -0.7208329396362166 -0.16211782451108855 1.0487671205559035
Ni 1.014218550184789 2.7705987475251357 6.211074698519497 1.080379605254862 0.06680471632937528 -0.04436052839324618
Ni 8.271870912264673 6.120983130307042 0.09232140580436188 0.2332833889123208 0.09577436408884796 -1.674395452563813
Ni 1.8030665512533646 5.667901677750749 3.312580230755185 -0.1630256810373386 -1.560163653100726 2.0865867409613674
Ni 1.9677086205133567 6.026375235476744 12.014058470222949 1.134331633991285 -1.0596655126359622 0.16257676642537808
Ni 2.5513391235879097 5.194732183914596 1.1599956919127512 0.17633911031679309 0.5250344350432312 -1.9966696069842451
P 2.232893054496311 1.0240721848578964 7.634741023800955 -0.17806354920706752 0.09967935557020897 -0.041083657414187305
P 0.572452525041987 4.3833907773999625 0.8450935879401513 -1.2289502872091351 0.44009392834509364 0.2483425972382884
P 6.146559859703591 2.586072953632605 9.211595612835954 -0.2327614549705798 -0.31923613892505665 -0.13044106223309793
P 7.492690803462549 3.1639640163414837 12.221495589976513 -0.7881274511178169 -0.20180897245312338 -0.20911553341686565
P -0.23919628515566185 5.290148058213848 9.603661613517742 0.6222123643478252 0.359510155953755 -3.9002053728262824
P 6.123639246722225 6.474023722638345 9.265395900923902 0.6348079416246486 -1.1468012272132055 -1.372905581878584
P 1.0897321256108377 3.002516716475977 4.004758596279579 -0.5656884611191677 -2.023634308498547 -0.8974821249942608
P 5.047243425909298 -0.2582776025914459 11.59479328022247 1.4123733009559032 1.6017892990613123 1.2484618748795016
