# total energy = -340899.5608932067 ev
CRYSTAL
PRIMVEC
9.03213615280416 0.00000000000000 0.00000000000000
0.00000000000000 9.03213615280416 0.00000000000000
0.00000000000000 0.00000000000000 13.21944424194594
PRIMCOORD
 96 1
Ni 6.438856418360859 2.070147574532528 11.40146706176896 0.2011469133890923 0.03931293866700972 0.7233292236955091
Ni 4.5363904541442865 0.08083761983990316 5.95954984802341 0.2769417490322198 0.8473186167659923 -0.27598375599432473
Ni 2.734154106392899 1.401480460343957 4.730208357256972 -0.31258006706111974 0.735385897749727 0.2434898971316774
Ni 3.3192920241256685 4.153102718331311 4.721826534775247 0.10274411053846176 0.5052935049708782 -0.29219610408812907
Ni 5.032787632779062 4.630839503380697 2.5562968913270403 -0.393746965649438 -0.4326711535184613 -0.18085885256401757
Ni 7.301660270073328 6.197192579652876 2.6637576361099713 0.5593064688522238 -0.7179322210496539 0.03861745526188188
Ni 5.061256926380779 4.355792888926536 11.538287668792293 0.5494036079162151 0.9397739437839364 -0.1570843758522391
Ni 5.577181583685261 7.944919984864172 12.515138499073977 0.5409138252776491 -0.10681108151898379 0.06247266461292467
Ni 1.8759385799182713 6.647932309316622 0.22987328798854073 0.6431755968630537 0.19062467370152975 0.47286366657694695
Ni 2.681460623248095 1.6227768317068025 0.48606080185882156 0.3556347321587488 -0.40647186941527413 -0.10516146173070276
Ni 0.39593543626680977 0.21437594853364622 4.804170714949151 0.2122862178353634 -0.8297309855912162 -0.08943428080343307
Ni 8.737363494838892 2.5827574378167584 1.464700898340538 -0.06368288287094193 -0.027788740077494076 0.14511434797455655
Ni 6.78597948044881 0.7134710262797264 4.845388868931206 -0.4647348668222255 -0.5800565569153816 0.034033178325309124
Ni 0.7576788173754142 7.518106384245779 2.5059571829007035 -0.5979126112601961 -0.5917507054238583 0.2420523933542025
Ni 7.650201377559587 3.899733230985058 3.776742631056571 -0.1688291750929931 0.09101782324046906 0.1660151026829657
Ni 7.841339445833557 3.9196671557880376 12.66072479437157 -0.8420054320831951 -0.04055015350822049 0.07153168949139938
Ni 7.814604322400472 8.683739701655709 7.1539134877739805 -0.27926551206939004 0.3864643159450957 -0.7214440908576544
Ni 6.8533953457544 0.7910236581491521 0.48585577236492594 0.0040613145535672 -0.30282118790214296 0.07116942105597421
Ni 1.7825733870372569 6.3656419215539035 9.07372115367688 0.8310749012136203 0.00878057440610746 -0.23500242848595657
Ni 0.20230359516180102 5.10902789524483 1.3811545408257764 -0.9213432478825745 -0.805968850174612 -0.20387202562973922
Ni 6.347180234967003 2.001665917144132 7.014845685240463 0.09537687154011316 -0.5804723042965616 0.02728300408566914
Ni 3.412368188645244 4.429052546414967 0.4226651404181181 -0.05286882297457346 -0.46955517102900424 0.20375529754621685
Ni 5.908263571713361 5.523901011681285 4.697899502516266 0.2344563261744994 -0.013897841028014776 0.7959842281580743
Ni 5.453314866536163 2.8444906833721455 9.204804547725653 -0.09445744504963732 -0.13170758765034735 0.4159962639659416
P 0.36171989755423756 5.525553892623263 12.386236365940439 -0.07620441237672038 -0.1469675991332114 -0.21544456095868703
P 4.165368359419869 6.1517970626344 12.666091689758035 -0.7459343626895347 0.5459159064779309 -1.16714045299119
P 2.332205976994534 8.522895418515038 1.4669878352504224 1.5200133061340855 0.00949688374684171 -0.8795980456249883
P 6.228281192780132 7.640898277175777 5.774953756067879 0.47315677233733355 0.2845383304325551 0.4611332655138961
P 4.778731703074392 1.0424711068918373 12.655965761757754 -0.10049568082391726 0.6235619363971842 -0.10305032892497092
P 3.8893282099732627 6.127627065909084 8.173727480769907 0.6655053707085055 0.27758426771222516 1.0273670576135725
P 4.659615889616443 0.9758229731713182 3.7317562698122573 0.667268119035883 -0.5251961574320761 0.3730709253573252
P 0.2391818076541278 5.641102012244701 3.634964284420935 -0.5129687621279488 -0.0986380587898882 -0.5870242464824664
Ni 1.391617367509859 1.047899420805109 2.637596053331616 -0.16673192624433222 0.6163533344638868 0.04379128615333748
Ni 1.8445880348384607 6.432579083635861 4.8286667717947145 0.7769750340454231 0.4097153160532363 -0.2254096425911989
Ni 5.887227726282395 5.643929070905025 9.338863127469983 0.32763361896013254 -0.9689685630700215 -0.0176940748456534
Ni 8.64118027543385 2.272774520173689 10.150748310819608 0.09527762695808752 0.4353201611055341 0.32376179470955213
Ni 2.4679409212352112 5.1922951597480775 6.862133937619776 -1.2183120907689986 -0.999197280047576 0.2709978727439591
Ni 0.6309570419434783 8.908332802766214 9.066992212137132 -0.5568479800094023 0.37480667710150933 -0.1529785812139817
Ni 1.4357032247655652 1.1013786998075745 11.261274758266719 -0.003592859557580909 -0.4311596019699413 0.5502716123434652
Ni 4.064280690006663 6.941612220947286 1.6147951328629453 -0.033104752973768796 -0.2532017251028026 -0.29356778762467506
Ni 5.548043911997716 7.760321183267755 8.188613344597634 -0.37468892057672243 0.7615939236036626 -0.4780557523008476
Ni 5.221857341841486 2.773922602499613 4.8645306753811175 0.5429457681060134 0.29842665837887317 -0.08501943956518906
Ni 0.7699191684823458 7.3744683207470105 6.865426151299289 -0.02008880033007508 -0.3158595091433399 0.5672655757983004
Ni 5.042858464747944 4.524477066371233 7.0871687101951055 -0.009693058918047823 -0.4310251332746061 -0.13438564870314276
Ni 8.041861903717992 7.131323211686653 9.141193018227499 0.08779880208253912 -0.34535289061676655 -0.3206412468026994
Ni 4.746432783683611 0.5274198571670786 10.412903357139971 -0.7320648037962941 -0.7839918316828886 0.19151093296122498
Ni 8.234996074113148 7.143588852775211 4.9586536644972785 -0.5339790458310287 0.13675543448689997 -0.44068605340313777
Ni 7.045987587971859 5.9883244278318974 7.015188906419671 0.6726391535398093 0.06780179013532193 0.030399695337779902
Ni 2.2467709997804954 5.351576883309719 2.5363747083012442 0.6972744355899863 0.005242736456178067 0.611111112228341
Ni 2.4598481271149257 5.218542547821236 11.325600729745803 -0.12241253550166659 0.007849063730773579 0.1260107943758862
Ni 0.9932549962205934 3.358753427598354 3.7878069980178988 0.7845456473038295 0.13779030350931754 -0.3619707016791056
Ni 3.6183912175333104 2.6174950340071796 2.6773211951841147 0.23005871132743605 0.26120119836851147 -0.2152913232102744
Ni 1.1090831120671765 3.4439264728598387 8.187872709421447 0.037878263103012184 -0.46245198432531964 -0.726540274433639
Ni 3.6888960734517777 2.53462518350091 6.826098423443769 -0.2384939865789828 0.2203656524093882 0.33224000738389237
Ni 4.114869685394741 6.73231052658415 6.0530649743669205 0.3782727812732388 0.4087197849091864 -0.6060187853070982
Ni 0.6727008662579008 7.213479523425621 11.083366963237609 0.1856195071774545 0.6940795828017724 0.3434975825755826
P 0.10579792849102858 5.46084766820616 7.906734822249965 0.0020401703584803574 0.8571163195827045 0.4169465436943529
P 8.552005993793697 1.6060041546070594 8.038823493068367 -0.4206129368023466 -0.23225726164065164 -0.45624739817650456
P 1.8304708058094366 3.2491755500678847 10.3322382511033 0.06516152429899745 -0.6226281117290051 -0.27127246656158444
P 3.9653787975768364 6.075014871990935 3.806988545867508 -0.5524038281951196 0.6588331008946524 -0.14361076684583654
P 7.035790306094849 4.036515903035951 10.5254013243346 -0.6750845297565083 0.27512526464877135 -0.8298371721517772
P 6.325954714673843 7.83240666303784 10.395810942415386 -0.4450425305996206 -0.44477025077484045 -0.8544853097177606
P 2.305118600245945 8.469271625331853 5.710271015205144 0.1441671535699388 -0.2874382776881695 0.3244706478511186
P 6.890761293606656 4.00884143742819 1.6745463273086318 0.5493917808416732 0.4567672752357166 -0.9258874156098313
Ni 5.306217494836424 2.9463551165067186 0.4264821212163687 0.09686065517449124 -0.26106621545254394 0.11533583116054331
Ni 1.4513920455099127 1.0674539958837002 6.966607754929964 -0.3893586067737553 0.9072937117680439 0.12197210553013835
Ni 6.906766239121327 0.6368568333713471 9.306290534349465 0.01717805444118332 0.3621175116696151 -0.9379492318703717
Ni 2.7911197900052196 1.5427069434519711 9.170024500494645 -0.2720628236733637 0.04556637577588927 -0.061017934444269104
Ni 6.3173561209210405 2.0429789085572847 2.6289640406745214 0.36653183868722683 -0.008735065880152697 -0.04382831003886001
Ni 4.1469066728329675 6.901202443163631 10.43244167437323 -0.19919853141346985 0.4494545436243872 0.04933638434128278
Ni 8.320385890645712 7.207987984558285 0.18458073732382804 -0.8089369316640004 0.08906275639662727 0.7138197415431771
Ni 7.587148034084462 3.7621557309402087 8.186087959289562 0.4084022536687676 0.15495627376564283 0.33168979130737714
Ni 3.204737439496675 8.46402395414448 12.380577732551645 -0.6355275933994926 0.011509800411812435 -0.12893028201552634
Ni 0.1674169687225132 4.735151645451205 10.123754868288488 -0.5157985182672601 0.4390156076792504 0.6251079407280653
Ni 8.495862234584218 2.2374588672603903 5.720529715608961 0.4676340427468914 1.3545875002956866 0.9481873646586123
Ni 3.504197918356115 2.607532587673837 11.572830170838742 0.3156635910824499 -0.17418529719858386 -0.1384904149001357
Ni 1.2044353749330823 3.377233178457845 12.537638453798357 -0.1935899269774408 -0.14692234771757276 0.24589387858747971
Ni 3.029261095558168 8.37647545703742 7.889166413942635 0.32004937885497137 -0.5202861217249685 0.41297547486174685
Ni 5.62864669629395 7.756789617976424 3.556427149695358 -0.7413770823361554 0.6816089611385874 0.4451237774595173
Ni 3.0419331827799985 8.27055559470641 3.6182945736749543 0.7909204404819217 -0.26730962525909446 -0.30670149679315567
Ni 3.5001153927507924 4.153138846876491 9.125991029629448 -0.4208222245996753 0.3499469377453521 0.26022057962279704
Ni 7.366511008671149 6.189677842255469 11.414672948245824 -0.2648408520036278 -0.9996857896482202 -0.10063503461525895
Ni 0.5896765662209875 9.119477052933524 0.33671262179437833 -0.05696613297239867 0.3700164548017176 -0.2770934441187357
Ni 4.651622448995402 0.28014164253814755 1.6135523109087586 -0.20284461280648935 0.23065983524654468 -0.2798249841172858
Ni 6.085067639687227 5.744863194001217 0.45527476529744615 0.24919131839182887 -0.42055997207722406 -0.2473097850983999
Ni 7.953988249704313 8.925683536588835 11.421718917769523 0.5526637667247256 0.05242607901020004 0.37234021783888777
Ni 0.11748099678856094 4.907042231280611 5.733325543098034 -0.28799800684638144 -1.055322405175918 0.6230310035943787
Ni 7.811903713648278 8.8208836591584 2.7767704350734146 0.18119335308530088 0.2979201510560998 -0.19976263144705597
P 8.467745194298004 1.7743089823273674 3.552897390831287 -0.8791391037106988 -0.8341301431001763 0.04897077347174792
P 1.87393344566079 3.3876201351970505 1.627432897966855 -0.6042544943178239 -0.5076866877934031 -0.3445278236123099
P 4.638444562141054 1.0282274279546835 8.060226043232907 0.7639917344118777 -0.5716986718689897 0.6958485017767371
P 8.479532132162928 1.7229703196268078 12.598672211597927 0.556499338420732 0.2202203850807756 -1.0724688350482174
P 6.424341775334857 7.763229531154733 1.421024196858994 -0.04601606171879817 0.13787155036921417 -0.23760309933359725
P 1.7782740901608554 3.1435808446434925 5.88180663807816 -0.5334846226931135 -0.17436861685398358 0.7669449035029308
P 6.921217657193265 3.959706615983601 5.9955862654130465 -0.3025244825973306 -0.17610025483310962 -0.44080715236203444
P 2.388801343018761 8.314641451962116 10.120000209230673 0.487999750887437 0.7821807466160787 1.0854912154498146
