# total energy = -340893.823823267 ev
CRYSTAL
PRIMVEC
9.07471169128283 0.00000000000000 0.00000000000000

0.00000000000000 9.07471169128283 0.00000000000000

0.00000000000000 0.00000000000000 13.28175784611078

PRIMCOORD
 96 1
Ni 6.354376352502384 1.972379529896706 11.486967087858924 0.36752119918368964 -0.18078043391759835 0.4812632034945518
Ni 4.804887466099396 0.4450247729876257 5.982555464472917 -1.5250521541095736 -1.1154576799049174 1.2363044135813612
Ni 2.684581059534999 1.5971855714999372 5.052539980363061 -0.07611802331050116 -0.4541619764023856 -0.5698896436847087
Ni 3.155703796120478 4.219305389877723 4.9853871132174294 0.4550168682035131 0.3801329744104292 -0.9139225299384712
Ni 5.146214600146505 4.610706783507207 2.6327236190885523 -0.30848609949740424 -0.5038068931230227 -0.9336619173489276
Ni 7.398167850451667 6.176893139578838 2.5776038197584765 0.0193632350179602 -0.8127887013099228 -0.06115857378719145
Ni 4.868991230088145 4.959012370910395 11.350656749736247 2.0889812093354734 -1.6430591043443767 -0.10110374672156135
Ni 5.740889537568168 8.099407128264025 12.371028231532906 -0.740432459034699 -0.5959680859393156 -0.12786944485117976
Ni 1.8701619764469248 6.709351853061252 0.19262890687841847 0.03406094623945101 -0.7353085075445723 -0.749345959474245
Ni 2.901793360615784 1.6684220589449639 0.4836476537793173 -0.02874878999791823 -0.28503429623236715 0.7562956513192007
Ni 0.7244079244487774 9.008148765556381 4.5310317215812725 -0.5820892710746943 -0.6750750166748115 0.9934706619764437
Ni 8.300085304488142 2.3098952849977104 1.4034831262183665 1.4407014584766349 0.18021864787685735 0.8457566715955112
Ni 6.7813596910072755 0.8288179282637458 4.878323663679032 1.0926368253556602 -0.749925743237115 -0.5409986716819716
Ni 0.9650592985769205 7.420818331045653 2.3428092646108456 -0.39978443009276954 -0.5485353463786489 1.2012939589444471
Ni 7.675409369933581 3.902597948880088 3.6782502019294907 -0.14669171976400544 -0.4685827798134059 -0.21339256352566477
Ni 7.778652365814099 3.591362559083644 12.609235785779653 0.21318918926560704 1.0907799746525795 -0.3704280884178394
Ni 8.14722178461407 8.767233317315544 7.142305444443862 -1.2227886384831135 0.565773050413174 -0.44846826845171794
Ni 6.907053523822698 0.7159557379002045 0.3603422851034528 -0.5092406625440843 -0.5163052827003495 0.6211070470987884
Ni 1.9952296541497734 6.639558244788679 8.99542874205935 -1.12436012460087 -0.5937348257334226 0.5778703478973402
Ni 0.013485929170962346 4.716590520514669 1.2054393388229483 0.8134939549070636 0.3915977805169191 0.5581384166860516
Ni 6.451593739763348 1.9838227414467926 7.124547140968553 -0.3906945519763594 -0.6581970099725503 -0.25971150119686237
Ni 3.5036736191879374 4.575070390361142 0.32837933528448804 -0.5057791863580451 -0.8195306480194466 0.39091438129664935
Ni 5.880268035742456 5.469764373823573 4.728956630252419 1.8409977952088166 -0.5886694953953733 1.1926789635819266
Ni 5.521717098743673 2.927737961584616 9.482179039795032 -1.0623512869982414 -0.06698880731572333 -1.1817977978930485
P 0.20243322548168055 5.56150063517157 12.387006076557677 0.9949372192196413 0.08444659778085456 1.1197082276511554
P 4.065225858625607 6.3955392451202995 12.630380771689929 -0.5134187051811738 1.1313758937970708 -0.20751939257433938
P 2.5076060304709333 8.568433606429148 1.3267401036673976 0.672204637105552 -0.020192930008107162 -0.3485112337400901
P 6.490515178572484 7.878900706808394 6.029678627785596 -0.6595041588197481 0.04144644007024475 -1.65087165841026
P 4.775911911397235 1.1264076739619622 12.8081307811397 0.9020010959105368 -0.7905165201752837 -0.323197694675966
P 3.993027451732278 6.162446198430751 8.179358061427964 -0.11652316660042512 0.2536010174237504 -0.5975493143835063
P 4.705973107736238 1.0632839788450696 3.8573541583763085 -0.8303498501221377 -0.9968112963139026 -0.6453713189627918
P 0.26816499276312095 5.623326646504433 3.48723205639139 0.3179053359287751 -0.1504583858952893 0.6064473882040845
Ni 1.5447881857027925 0.9696238786004681 2.5520630434636957 -0.477374667073423 2.6465683815037453 0.1664506475584875
Ni 1.9530594685246725 6.459171124096673 4.831730463534096 0.004391958420108565 0.2695027762556714 -0.38498001809008536
Ni 5.889841856666597 5.448538622978488 9.16898169731252 1.16303748656641 0.8860962517548223 0.6965912934800326
Ni 8.775346109643676 2.201579525234164 10.43272787424143 0.1096125555235209 0.9946124888903709 -0.7414323610541231
Ni 2.4526677253763864 5.087328795429208 7.005131193760069 -1.1141818985162877 0.6225646054809214 0.8907712886329885
Ni 0.3336199813353801 9.104567578181019 9.33238730985728 1.645222944764915 -1.4062851857802943 0.9600776883382948
Ni 1.6646651282695193 1.085861861744844 11.776841513604813 -1.653617339476197 0.47064711854160235 -1.086716346106167
Ni 3.909276936747545 6.825281296005229 1.6119274407807582 0.4697937694023716 0.16761484306991778 0.6568906324563009
Ni 5.499420531908967 7.915780335467832 7.9937856504269025 0.13260875930837807 0.0879219579239647 -0.23143810817346594
Ni 5.029187117077579 2.838088883945199 4.973712496517044 0.9261738365019985 0.5949177902979302 0.5500818649301623
Ni 0.6552949195594369 7.244251664011528 6.838723666559663 0.9683101035504161 -0.8218739514406426 0.1160742519884646
Ni 5.134707865613984 4.522800050528867 7.169041360279599 0.30916975582799017 -0.6667816663177678 -1.2513687641136513
Ni 8.197731630361716 7.052775245528717 9.122375792571098 0.024430108017906314 -0.6615451005091768 -0.04250187791795261
Ni 4.571177339009051 0.5558124842390736 10.451215784543564 -0.15612355460086658 -0.6612201130695903 0.03301476436312379
Ni 8.258341630316535 7.15307803479367 4.765573999741518 -0.493642293885195 -0.03692592649207189 0.15640611883829195
Ni 7.310733002485701 6.068277914326669 6.903498959219869 -0.48334425439329654 -0.27549061840799005 0.4085305517165158
Ni 2.3311664094016775 5.1161137811840645 2.6332018563991704 0.3836672128159328 0.7253269708518283 -0.563005772080682
Ni 2.6341438114815645 5.387157272522671 11.125092991407609 -2.201756993078324 0.11051964071882256 0.9981500697299842
Ni 1.0313137692566836 3.4918220456079117 3.7386551133981634 -0.3739016487887367 -1.157517328079129 0.22604933305772681
Ni 3.4546973997305095 2.835484441665362 2.9645949034646133 0.34686701326844777 -0.5120701615730795 -0.6419062432323268
Ni 1.1237850822585722 3.3129322523590177 8.397219204400765 -0.9617694742184211 0.047181028561176806 -1.1764095369979415
Ni 3.5397002249403906 2.6921675185800997 7.178073420910686 -0.2524345079194749 0.3033384938581937 -0.3660119616280148
Ni 4.242001244030591 6.740305694930677 6.010207926198074 -0.08201561974185874 1.262393140248613 0.51895377606679
Ni 0.6460586779133797 7.270559253451418 11.069561200162882 0.7581152210264428 0.2550945712501413 0.4453310083743169
P 0.25761473285183584 5.399743897756589 8.039275365619824 -0.12772700573604454 0.5340875463844351 0.0727539919342747
P 8.479946091897116 1.4728166466038743 8.258318036065916 -0.47379414881101617 3.004317846012652 -1.490078723358182
P 1.8836742222820388 3.350365438436819 10.355521133918684 0.5091560732500781 0.09458805709023065 1.7640043112718973
P 4.077821558571301 6.113188662908253 3.9017158868954187 -1.9269551732072427 0.25130887895546394 -1.2751805218212686
P 7.055352463673224 3.965848689961851 10.495431410203073 -0.522728412617874 0.419290104225865 0.22799385837860733
P 6.345610180926346 7.770312705691554 9.966259557326085 0.09435691491603104 -0.32822831512133793 1.9789973865154626
P 2.278142868491959 8.489937349562972 5.924195085567475 1.1934119850932092 -0.29822251278786704 0.3517783345271361
P 6.95851621430687 4.115681256102595 1.457008498689322 -0.23833689217582824 -0.31242425820954584 0.6097782523495305
Ni 5.420824453213251 3.078414475920568 0.2965216521221299 -0.19046629374679458 0.10278807640251976 0.33589148809355057
Ni 1.3418957798052245 1.0300251601844297 7.131666252357167 -0.22480620467924511 0.4437070996176487 -0.019884654739068978
Ni 6.760841767680753 0.798515650699869 9.390322084780406 -0.03895452688632646 -0.4963159840626163 -0.7721405887712574
Ni 2.578778994933525 1.555877483493598 9.33874959028374 -0.14979684105189042 -0.08190120565118153 0.15156627424748736
Ni 6.27918329072283 1.9669800763897263 2.7254163550577855 0.22715670718929262 0.6674653226483538 -0.6675108311743084
Ni 4.1983700298094835 7.086714667572589 10.14447419201881 0.08969087689892939 0.7204922684673462 0.8109382783647454
Ni 8.41662275312114 7.19578362841358 0.40589189339409837 -0.472264085319735 -0.2622296396330258 0.044256912935846354
Ni 7.68648959301261 3.753799899881858 8.042317209007285 0.5432185621514257 0.5731690857669289 0.601759495810112
Ni 3.195977366984304 8.571809399209982 12.352207279308574 1.104715096676433 -1.3381807768028888 0.8594519096944166
Ni 0.01766664888636666 4.7692692223768836 10.378604478264407 0.4062227295189455 -0.08738665424578498 -0.8096707245062313
Ni 8.670006855342802 2.150398150815062 5.645198516828 0.1801091188821866 1.276029757195441 1.5007403168370863
Ni 3.6564010183853646 2.583515994480825 11.592756447863911 0.2546546554992453 1.3913874427328554 -0.5694931795772387
Ni 1.2973298702711447 3.3972635488974423 12.540941319892546 -0.49667465295361557 0.8851210323257466 0.23693024163628873
Ni 3.0956745777193504 8.547797711849531 8.144812448637424 0.39826927899982384 0.01839161513331026 -0.8377260879815507
Ni 5.674843785259262 7.714167463930741 3.6867904131822953 -0.26631795076978654 0.8676781542589509 0.14946439741313614
Ni 2.9418491383969747 8.553614602098227 3.6519525946725553 2.016062152578244 -0.9997837486786653 0.2950335735369241
Ni 3.544909109500065 4.2661127532205825 9.206649010954154 -0.20364885387533957 -0.33436091038163707 -0.21238803352055033
Ni 7.423767612372996 6.377507792820521 11.637701680350247 -1.1110685496982864 -0.9001064499909853 -1.4441122839303968
Ni 0.48545805877871634 9.187964179406471 0.6322034079731165 -0.12721304221410348 0.5746176452879974 -1.128065341366599
Ni 4.736736380658358 0.22958657805913393 1.727226191256273 -0.12949258227689958 -0.32589529611278717 -0.288225035255523
Ni 5.985498393502015 5.824812472076653 0.35738937389140035 0.18800600513176008 0.08230384040623889 0.12346771623905832
Ni 7.858600576564505 8.852671728690693 11.357868423184984 0.30366296707714796 -0.085839107253007 0.17038032163019687
Ni 0.008591029638752475 4.856250334754027 5.776064027884813 0.1603926142898657 -0.5283773833735351 -0.16318611787460283
Ni 7.9788223581787365 8.687085462906056 2.761330434384211 -0.07156202850870257 0.8710203312583062 -0.32915236959750405
P 8.725181102943536 1.5456956568804363 3.6600408852788933 -1.4645826359696066 0.5623408848031735 -1.8277054489752846
P 1.7412556956626437 3.171103582005091 1.5287041665502366 0.22259351329864246 0.4579983194293403 0.20021591693439067
P 4.547764582625844 1.1970452304297443 8.276633526844298 1.2043795398483064 -0.4675736218226012 -0.054454936514770735
P 8.61307211365744 1.5256405438545115 12.447544386289461 0.18138670004302956 -0.26137114828747243 1.3646250870373464
P 6.4973847353872465 7.757762379304742 1.421307675089643 -1.0923959129894478 0.7391165684367529 -0.375827662166856
P 1.5846533945366783 3.20861844048888 6.120128095003694 0.11484397912578932 -0.6621009730126468 -0.3151316298383799
P 6.883949307639891 3.7661687320331407 5.798310683804747 0.3747652823406126 0.4040267503088913 0.7728422428239723
P 2.3256671340651573 8.605621775288984 10.333473214186654 0.059893076811206536 -0.5650212598488139 -0.7170192223170814
