# total energy = -340859.77292010887 ev
CRYSTAL
PRIMVEC
9.40848620228121 0.00000000000000 0.00000000000000
0.00000000000000 9.40848620228121 0.00000000000000
0.00000000000000 0.00000000000000 13.77027058140080
PRIMCOORD
 96 1
Ni 2.9657053441546912 2.305728271999664 2.8915918768576327 -1.6208087775866085 1.8665517324185208 0.5705241919449142
Ni 6.054294924832924 8.08335725554086 13.4734798642814 -1.4239571491387606 0.6819483467558771 0.1166100698872766
Ni 2.9107786024944486 4.905245929933336 11.834376700691838 0.3476458004160013 0.6672982009428701 0.8082013390495566
Ni 1.8239761514153765 3.890954680974081 6.81089997144379 -1.698840472980055 -0.33351193211778046 0.3839140387194162
Ni 6.449018549295724 5.997241865321497 0.501604026186054 -0.5169575715723679 -1.96802751776752 1.083269010987515
Ni 7.058951884059379 3.4137656761323796 4.345442890632872 0.1010186432069228 0.7312610769480761 -0.32076774507823463
Ni 2.3470127088624846 9.170611313951158 8.486521232854535 1.2081593186057127 -0.7692452695013332 -1.8934326159697652
Ni 1.524635758701727 4.733004775501327 13.767475296060278 -0.9270786077044549 -5.230491320262128 0.34444734808336164
Ni 2.7758703207770417 4.889289137563386 1.999759600851681 0.15330459709483274 -0.5403461256996371 0.30884965348441
Ni 6.108459579121724 3.8998927427379093 2.0595919271473555 1.0874182572691982 1.593049348085153 0.13340914372248638
Ni 7.709529878633286 8.241918471231179 4.788543068755938 0.14658039099712175 -0.4455274406558392 -0.8410592661198418
Ni 1.8611020374364995 1.3603071410522236 5.3520634009015495 0.9149373443562309 0.3485544282731997 0.7695592011973263
Ni 1.1400732991914901 7.522846698088144 9.803895570284967 1.7535139532635349 3.175974463252111 2.201238915791325
Ni 2.2558256618992996 1.379698030836698 12.944178195962149 0.42614337970227256 0.5667151026114692 0.3366689896895234
Ni 8.048658758925072 5.788646320725874 3.616816799888608 0.1080701507370655 0.4190998425919299 -1.4542766260579083
Ni 3.5066180251294563 6.858297101704464 10.257901124608512 -0.41280038273646324 -0.9615283047418924 -1.0013117552874173
Ni 4.375369403115383 1.5575748684229518 7.954713143846988 0.9933716745047343 -3.363478331936472 -1.1800581894941227
Ni 5.243386919188069 4.97643053551768 6.94927716197417 1.270691118591347 -0.019548097335256656 -1.1974331904374604
Ni 3.3735255812230167 0.5574622079669485 1.4411966000148715 0.4606049038142519 -0.305604407074235 -0.48712043360627716
Ni 3.7303988662375196 0.34256862279795064 3.9948657644945307 -0.47189564623672275 -0.5197541604808984 1.2242590523810528
Ni 8.710178822795118 4.363618204017465 12.114560474924083 -1.7868004832308064 0.950116463360525 0.9740588331087353
Ni 5.309020517992771 6.238164968043976 11.845489063585791 -0.9721078800299516 -2.156756517108234 0.4773463849386489
Ni 5.214352331184727 2.0862941514546414 3.0939317190671813 1.1718735968008012 -0.30022925880525064 1.1322891496399596
Ni 3.19294850813548 5.898876143489048 5.924686443317164 -0.8003167940951571 -0.12460388672603058 -1.0699458115160476
P 3.27983587696596 5.92335702423587 7.982625299462514 0.3102491049350979 -0.4693674804982303 2.1534408224714396
P 6.276739760919446 3.4552476912026107 8.609269046330102 -0.2870839796725443 -0.11898679764956928 -0.556487768456506
P 0.14867477853091615 2.647519753848465 5.027856379512322 -0.40313791994603476 0.6617736715802152 -1.0146166999264397
P 0.313861450109747 7.556406767889802 11.823704654945825 0.5812564907607538 0.9145851032231346 1.0447659698163105
P 3.5309107361549357 3.013095888475117 10.994279807872138 0.5034263698551523 -0.8225439809244737 0.388246347546183
P 8.373524374339002 5.164948370845923 1.4563160371248423 -0.41018325682859036 0.32940947991363273 0.012261590976172432
P 4.100180594136205 3.3765268882784496 5.062805141857498 -0.4802707576742955 -2.6748919110387868 1.9172212337489303
P 6.310337464665375 0.7937309326319903 13.033437444130168 -0.00378954894941928 1.7080432225252453 0.753626846237786
Ni 0.7163536615182239 8.968206553187747 13.698045373127465 0.4750462760505626 0.2803913981437171 0.16402095507107237
Ni 5.035515828019619 8.685867294797506 8.55254998807406 -0.5417859434699572 0.3267612436575082 0.3425388182067391
Ni 0.23977526742228286 5.625220917738821 10.605834466161971 1.4530355545619555 -0.220143251985937 -0.5538978962421428
Ni 7.338619132406539 1.4408625987594863 7.906448551170921 -0.6820175094309158 -0.7629105855325571 2.228516777670672
Ni 2.3995026526313255 4.393207892698771 9.648222759817276 -1.2484618748795016 1.4156350024263105 -1.4404662025373773
Ni 1.7918461714959297 4.133778297882133 4.41798514075671 0.40626746671395186 -0.2576451055861369 -0.1209547200092175
Ni 0.9238597034272658 6.183925045866639 2.829377321889746 -0.20211441950868417 -0.021008741041183172 -0.30494826154747484
Ni 0.6056298932365235 3.3759717876004856 10.459497696418753 -0.05696407608986964 -2.622758680678657 1.1030749899698489
Ni 7.700375421689912 9.015455970217163 12.02380057322835 1.4290739015400356 -0.5174147137144444 -0.34149417899230866
Ni 4.206468261237227 4.940367808422149 3.8903901718100493 1.3713536640104318 1.9516231082675677 -1.6281785876881185
Ni 6.344358550284325 3.137588976116146 12.035271399441465 -1.5473675297773222 -0.2288181540521156 -1.2390444382203436
Ni 4.648968177949206 4.63386755781137 9.900424755637102 1.5430413915981425 -1.678042048177465 2.047013092433804
Ni 0.5902112662696161 6.4876027506572616 8.107108978617477 -0.9292054242394707 -2.4100968246714296 -1.6463218342560486
Ni 2.2041354394461696 8.180612776017382 5.630429455625616 -0.918620963855405 0.3282170022674283 -0.09726843213587119
Ni 8.149122573150503 7.251430692021908 10.304347997776398 -1.4270764114940326 0.923461579777158 -0.598911999058988
Ni 5.639296012895334 1.7329960911456697 9.96246054936971 0.42390240618689573 0.6294055396621546 -0.8404388589270236
Ni 5.373478056039075 6.356702484004476 8.83400014453095 1.2497258291935895 1.8412559339662096 -0.6530710015998946
Ni 0.07266644213992551 3.8039073678804587 2.70669819036247 -0.3162798845102101 -0.059503040461639456 0.8730607587271029
Ni 8.277435506134813 7.389904789958779 0.3212518159155231 1.7985303700732251 -0.5850169862444505 -0.09474926525844327
Ni 5.967906205764004 2.5565585105508926 6.276351190444872 -1.4803962059630955 1.1299856983177636 0.44873077808448525
Ni 6.886588419308497 7.615727272543422 2.315333395425656 0.1043479646904719 1.1306361874175688 0.5790890507957899
Ni 4.599611260040739 1.0311794814498576 11.88345418656411 -1.883501472898982 0.19095866000218079 -0.06585237971843498
Ni 1.8698519294789844 8.444106836815045 3.0204533245796577 -0.57101193021461 0.5748773267072874 -1.1943504377470786
Ni 8.464118686679955 3.0406627526519774 6.8579668638435045 0.6699076135412593 -0.0075922105249611165 0.9307100338094552
P 7.332945815308024 6.365283023297752 12.288217606509203 1.084460974413087 -0.016267112591139728 -0.9477916718820902
P 3.0123996605061447 6.889128710546638 3.920175557001553 -0.8339486232169896 -0.6467486589262926 -1.0593004159870594
P 8.769217072866724 8.758773653332144 2.6332884778232364 -0.21950767528446713 -0.7261497238634397 -1.6177921022474717
P 0.5808103069912819 6.504951998965155 5.969192345809389 0.3127752137910614 -0.1694665515666759 -0.6132829230686793
P 0.11767381693953212 4.192016826638025 8.631824950827578 -0.45569255411429904 1.152718106918273 -1.4454325454037171
P 7.739505315243346 9.356880521109344 9.781063997145722 -0.5294585322528559 1.2242536530644141 -0.6641588839829401
P 6.314966439810431 5.861580904718714 4.78744133503747 -0.45150268440266755 -1.038035335960696 0.13863825333190963
P 5.3960301971421245 9.38088156906674 2.7374197199176584 0.2403526370542764 -1.0041255705871288 -0.5473248710103154
Ni 4.7029917049469985 6.759075207639899 2.2819680812855876 -1.05551420947175 -0.12299231926453655 -1.2201530006324794
Ni 4.998945042676461 7.576230448033368 4.393955867341113 0.3360951194639244 1.145530845141214 0.5578198570043683
Ni 7.597484218059145 3.135961308026523 0.06623856445882276 0.9705492772935802 -0.2986909677838533 2.5737138594358644
Ni 7.960802316029673 0.430461758789013 0.6701918654781733 0.0656870577851643 0.32374662520090053 0.3421063586550108
Ni 7.533854626786754 5.842246465850644 7.849122645563546 0.8653824162462386 -0.41315313809019166 -0.6364701598184199
Ni 2.1398378456630076 1.375200774496582 10.216810502558676 0.7910019444521345 0.6765045500324864 1.1554349916288038
Ni 7.550507647125676 1.1693901417768475 5.28595279185324 1.2095279168184652 1.3152516788105413 -0.36659354516309767
Ni 6.056778765154662 0.13973013082684063 6.530812163769428 -1.4589334081036294 -0.6487209521613151 -0.41945619749008406
Ni 5.121763419797531 2.2873440902243787 0.67199641310586 -0.7334346875606272 -1.6786190037268574 -0.6487962854839406
Ni 0.3175392273134107 0.8657839414803352 8.524183402581489 -1.148533379412964 0.17219243513827118 -0.2598297719422815
Ni 0.27250268620699586 0.8017996502832108 11.637227520245556 0.38437246641307354 -0.2044973179185639 -0.1706232908789384
Ni 8.109183549795292 8.2609800640033 7.783176685021412 -0.1827748386398078 0.31341670402980215 0.513472955457877
Ni 6.365979251266723 7.3189648050121825 6.294927305335927 -0.8665298995871206 -1.4842014386417985 2.5241100803658076
Ni 0.52926967946662 2.3309524231457948 0.9744905303492307 0.007942137665212127 -1.4393719410319339 0.8074714028620674
Ni 7.895055815392164 1.6959831069573525 2.726237734226806 -0.026192085014335533 0.04746590679144729 0.26330436075444336
Ni 1.4721081809886172 6.692510168714546 13.53977017541359 -0.4862665702464141 4.058459600616907 -0.9738726852398583
Ni 3.7523394557462018 3.576814739676745 8.002303148072038 0.5332365112380494 1.6207131325490087 -0.6331315823634903
Ni 5.77785478720681 8.168447603532508 10.872675125453734 -0.33627329691300156 1.5204113129034527 -1.1766165108024251
Ni 8.692820166001157 4.768964009250119 5.515048486740658 1.3890528810624077 1.183458216314607 -0.04563913799535366
Ni 7.349824639312558 4.953567914374413 9.978557528182062 -0.6315092162687188 -1.249946686955144 0.833559615308687
Ni 8.028571641171625 2.0705913882085047 10.536638814532232 -0.6126254919903384 -0.06736084594316141 -0.5093468491046453
Ni 3.6781441346203585 8.122496557580362 12.351065352589414 -0.174077567976126 0.026589834673386464 0.6511208198520593
Ni 0.06620187136316072 0.29597309555020274 4.290692087662085 1.6241157304726546 1.6412354208720765 -0.3430982902546349
Ni 3.824060345036375 6.079895415421741 0.11735486926185444 0.6100836994050912 -0.6676753817766308 -0.5356944858602387
P 0.05493520929770325 9.03105524011656 6.262126500359891 0.22145631437040567 -0.259128889220515 0.8763540847663939
P 3.2661371212521346 8.930676102265734 10.349046774233 1.2544895691308202 0.13373104583827936 0.8269799052086404
P 3.0045623916121773 7.995914786032417 0.7011025056033124 -0.40488704142665755 0.2623203995746192 0.5665089001379341
P 3.9176559644327598 9.219742428194014 6.406288028124377 0.6267889279749141 0.3583531595311764 0.39392899975325707
P 5.307957359067179 4.237506856772879 13.74385905518303 -0.16176918292241818 0.8547010252729925 -0.6112175558992183
P 0.2713652002414728 2.6697990488555656 12.753225444439718 -0.4779655065798865 -0.8557016986233649 -1.2911668699471959
P 2.2674545506783437 1.9789433254280278 8.140557087434937 -0.9341648251272751 0.6078213857334758 -1.0239042958759528
P 2.6065552055119285 2.923461241713018 0.8003639153093578 1.2125250517735764 -0.49021784158467835 0.7216641772882604
