# total energy = -340886.02205678687 ev
CRYSTAL
PRIMVEC
9.11459679681130 0.00000000000000 0.00000000000000

0.00000000000000 9.11459679681130 0.00000000000000

0.00000000000000 0.00000000000000 13.34013372969930

PRIMCOORD
 96 1
Ni 6.747362923263374 2.3474006348211276 11.517417950924045 0.3183161982139486 -0.3176068308517498 1.0665159598988925
Ni 4.609005568825028 0.5953782313144012 5.504846487639685 0.4012268189662509 -0.38402125372124185 1.6721228544795526
Ni 2.520122246473785 1.8007071115004734 5.185323355058266 -0.3350497089185456 0.7640909789939034 0.6861911811926311
Ni 3.3069307110808563 4.316873622910551 4.666552399405048 -0.8139179298183596 -0.13252365579373954 0.2823012135719203
Ni 4.212748467685223 3.142539841013979 2.125496658182837 -0.03596279124785419 0.3487477752309284 0.680528326479899
Ni 5.341837390466028 5.207670523789135 3.1122529469052393 -0.9046501034976098 -1.187007367118446 -0.7014892450022822
Ni 5.3465314078803345 3.5561784784821002 0.11919705269386774 -0.16988615560259776 -0.8771130744196056 0.3465163147972484
Ni 5.965467226396713 8.452959215893374 12.38165856221365 -1.5651821893612399 -0.34890409830313457 1.0557515222935365
Ni 2.770108296225629 5.381376511909259 11.86679594572015 -0.774981400654162 -0.1763213697049802 -0.5517091161209402
Ni 0.8233297430097646 7.594036060447473 11.472474784966362 1.4758134716884197 -0.37873557984227035 0.26143722563871746
Ni 0.41105191486194603 0.3962607469785723 4.695554135347928 1.4119881497023423 0.37082840918005167 0.017558320598737503
Ni 8.667671775561006 2.587880159984384 1.3157385499884187 -0.27711786959876794 1.7391052340373725 0.7562887093406653
Ni 2.188186855805369 1.6802394839958206 2.80208139076475 -0.9675696258399659 1.2330578816196054 0.320676470916009
Ni 2.0723585581334976 7.2586644667398454 0.32438577003876434 -0.608435622278707 -0.9523872616725727 0.38000004837699075
Ni 7.346966681710343 3.913707657304641 4.072009065168609 0.6628262812144455 0.19929751888517935 -0.820368827650026
Ni 7.4834942289897715 4.289684780295254 12.973613350924529 1.9121343061443261 0.6866400958045916 -0.5570881210446663
Ni 7.782270716059645 8.82517201035562 7.413632666509809 1.4938998968764852 -0.11591972868847132 -0.08895348451227261
Ni 7.091958489055037 0.8840238439066008 0.44012474466081053 -0.2763799629914788 0.19977625829381077 0.3088532530288358
Ni 2.415021829377912 6.557414723430056 9.520600260611978 -2.4957569831444113 -0.8150754404615705 1.1354343801371607
Ni 0.056719225179594844 5.410971608111696 1.4251802495977568 0.1220312409028479 -1.4167922559592052 0.16649692741539068
Ni 6.498069582877525 1.7574674637073224 7.186876989930478 0.2942131345181578 1.0909740929412566 -0.1397944784235399
Ni 3.6769924606697506 5.257673202497657 1.0496296897430457 -0.26358718210218474 -1.9778797279712519 -0.9369593571532767
Ni 6.014558445413136 6.065855396884437 5.157362506083762 1.3359161491384282 -1.0344013387525346 0.30768442953171526
Ni 5.625246667127122 2.831677398426879 9.419255057447549 0.4768753588395014 0.24836573716674004 -0.6218318410799548
P 0.2593321574346212 5.868105102086756 12.660560670697317 0.4651395584598118 0.3137064673560791 0.59134215713153
P 4.22493468376858 6.678246934811548 12.850470589223567 0.11435855484893852 0.8013166961145812 -0.3626463875898916
P 2.437370821028166 9.094152880090796 1.445483925698942 0.8261550953144997 -0.8325504573178824 0.5635071371971327
P 6.375943098733253 8.05865263849466 5.981715818327753 -0.3356132947314994 0.8864608341830927 -0.520956922539748
P 4.984435816000381 1.3382142345358747 12.487072521443604 0.9280929079015823 1.3379365220025667 1.3993275235155382
P 4.193753647701892 6.451202325509822 8.260291220338834 2.543532707866794 -0.3300530270349025 2.0582626972056937
P 4.452699346227063 1.9855784808488035 3.900748523402385 -0.2848566330039223 -0.7300801692660974 -0.9449796563545918
P 0.18195743271269113 5.871741826258229 3.8453472689375645 -0.1695395708964564 0.14942403109350394 0.8633692424709518
Ni 0.6830579193151962 7.448102249145589 2.614479288178894 0.9062120486680909 1.8756392965420858 -0.24997499063538883
Ni 1.6811782874786818 7.000894551217481 5.149385410858515 1.095477380128249 0.099493464811648 -0.34393929809869156
Ni 6.083200474825071 6.0309373760801455 9.52456237589353 1.4649947838063608 1.9989116089408863 -0.3847463048127245
Ni -0.07959412907218981 2.870870165187113 10.164808122011168 0.39740307434478656 -2.0101601852715123 0.9681532662575779
Ni 2.6066380004477705 5.688246761044968 7.304030549994661 -2.5370607269892047 -1.2936328149891851 -1.9647133657926226
Ni 0.6851415161713335 0.23254162270477127 9.72927986857761 -0.30388433905933476 1.0659436323351899 -0.30545168354645463
Ni 1.7368867038597395 1.3034238180884765 11.695735925086188 -0.22889297315410906 0.44040811715140277 -0.11999569853005784
Ni 4.228571407940053 7.269374118122001 1.8426324344176181 -0.31573146820590786 1.5640156798569644 0.468173203079813
Ni 5.549057751464612 8.522521819594328 8.075236647592392 0.17073256276329307 -0.6277253237462544 0.15328994180681343
Ni 7.025959692750187 1.185672340466277 4.785413123472531 0.1507705178190694 -0.8754290018489632 2.0075194052145555
Ni 1.0900966771528329 7.810535081111618 7.527517732118127 -1.7355748522866108 -0.1086537911546774 -0.3056463160557639
Ni 5.61754483272889 4.792655582185946 7.777204823090962 0.04769576341406624 -1.6928091791843105 -2.2693201848402786
Ni 8.438430548401325 7.563629765119068 9.596545816536697 -0.7544493421390813 -1.5329217866656375 -1.3062327631413826
Ni 4.992976193315344 0.6918908751913224 10.276652429368877 -2.0606067719578385 -0.803107983687049 0.7932452319603565
Ni 8.382722132020266 7.6068785275091395 5.1938345656630815 -0.686606671463495 -0.8587412567806372 -0.2864604871559325
Ni 7.3968782144496545 6.400415791466096 7.2767232176193914 0.19899232893993474 0.2360162144624516 0.3380543000728243
Ni 2.36760769619495 5.68928582509396 3.015510615185909 -1.2424406083860862 -0.0024371486865828996 -1.2060656693014777
Ni 4.013384889232528 4.464448061658212 9.518105595434703 -1.4252054197235648 1.0106870258547302 0.37089680052414187
Ni 0.7810225184816304 3.8344197786889964 3.840557548255587 1.1180321255003132 -0.6693918502471053 0.04404376848377576
Ni 0.541840911919922 0.648617503389564 0.7936617300319597 0.059152856211072316 -1.0706451515759174 -0.8960759886753534
Ni 1.4341180233384743 3.656648680342113 8.350496563146432 -0.36069106363573367 -0.049168491304850806 -0.25793126936798805
Ni 5.257618514916131 3.3855896825089538 5.261895995251149 1.3836111412215462 -0.32523272282812377 1.0942334804188185
Ni 4.265348806516226 7.120833532100716 6.231256164290159 -0.7323990472072612 1.8661179873152118 -0.5590190195187921
Ni 8.40034064786853 7.643829103426811 0.5663865214281334 -0.5353738692960264 -0.016963367327215945 -0.13463350304789073
P 0.5317246207973212 5.872088180941226 8.307235040320673 -0.19731982633351822 0.7130360692996172 0.8463315702623746
P 8.577236744910998 1.5509124682839706 8.191136039120247 0.08263551271404476 1.3080734158945473 0.05449761682724808
P 2.044249141229181 3.717889657054209 10.408492339451843 0.3459370452550107 0.5993966520048902 1.8718098954936668
P 3.955871782661115 6.478564345466618 4.151969601037022 -0.5664186544169728 0.692703271279536 0.1452902114307885
P 7.103670746098502 4.2092393478706445 10.453902172771881 0.24586199690827978 -0.19907383291014746 -0.43410068687613623
P 6.422172334316486 8.117496476216536 10.31000273950276 -0.014010712456795226 -1.9130413913396278 -0.31277444246011293
P 2.4141650572673394 8.874527552682752 6.109741269599286 -0.19330016365116387 0.4141692380595319 -0.5989546793714653
P 6.825310956131633 4.355209617560212 1.7616310115808282 0.6365436933688328 -1.151670382380049 -0.20562063288972976
Ni 2.7518882169805803 2.017789466367563 0.49077182537164543 0.8927168423951336 -0.6784400764923025 -1.2009867121166735
Ni 1.5113004300653714 1.1824822315439323 7.772442446199747 0.7782359030357178 0.42787501768139863 -1.8204855341880777
Ni 7.158221608670595 0.8032502859928355 9.712924635862596 2.064732364090438 1.6935275454075736 -2.329154126278776
Ni 3.0795853200807386 2.0068884084500653 9.600174337570941 -0.6576357381524416 -0.9518532435459736 -1.1250430096005075
Ni 6.491324781155996 1.9248570361612043 2.7331668349048783 -0.5373991272561712 1.1482508151755386 -1.5338592108782423
Ni 4.2978150007487725 7.216436539204924 10.618560100528542 0.40495517566043165 1.1045047804378398 0.9943108984895521
Ni 7.405637342090721 6.76046971363575 11.782899726901254 0.3636126081579028 -1.8065936066973336 -0.09122222594179129
Ni 8.20658254652224 4.286120972899149 8.528681464193529 -1.8574834515686656 -0.12281748424956913 -2.1334399538694804
Ni 3.532152400998385 8.98690141812157 12.754182164430903 -0.6561766371084119 -1.2555347225658828 -0.5601382207248998
Ni 8.997474350549911 5.225088518505138 10.598202648305524 1.3100935316483695 0.7713877697656328 0.23906528570142055
Ni 8.958035489672811 2.568648360481107 6.163195646161784 -0.4324834629876875 0.33552741988591245 0.021123412242176523
Ni 3.9098612974039852 2.985522679856178 11.640107717158035 -0.366542123099872 0.4513463613304614 -0.13288463867758404
Ni 1.1999731430353018 3.57487251676704 12.70500982550188 -0.698933568459964 0.9930014356495093 -0.25045270160275573
Ni 3.1983029449765628 8.367819766054456 8.284063000568453 0.3582878535108797 2.3942554867637993 -0.14253707416568356
Ni 5.480661816169544 8.126401437408338 3.8337006369919306 0.7474348584944611 0.4494825686488452 -0.04307831924671291
Ni 2.977237511255003 8.679201740666052 3.61496307132399 -0.11083665773860911 -0.595459264623697 0.6527812382736177
Ni 3.6322853627723215 3.4292850601481533 7.180193256008321 0.5397755979081479 -1.4588202795645329 0.13827238535205866
Ni 5.5221788051446286 5.079501061886251 11.487829234939452 -1.5757509660160218 -0.5145052533771333 2.2014716006274213
Ni 8.039429953588304 9.0482882283844 2.868115733997591 -0.46363880554456927 -0.004572964082663092 -0.693296938999477
Ni 4.6294496097187965 0.6564761088548369 1.6926098149369808 0.13223286402619808 -0.07655356818602299 -0.01382173637444071
Ni 6.071542905363131 6.12345964942506 0.7106742365260874 0.4275127492459734 0.5436163118104766 -0.8512840291716437
Ni 8.177853337027296 9.037086388768511 11.622671493248191 0.3782761237073485 1.259894285086159 1.2212472621379225
Ni 0.11671332503289944 5.315168079875228 6.139356417914948 -0.020140222393300797 -0.9224675912950049 -0.32116523762696947
Ni 7.404224579567968 6.425745256309513 2.993432327064208 -0.017756038431840385 0.3346553016936043 -0.4984206891104449
P 8.662339736362231 2.064784328092159 3.5568529586542534 -0.19732985363584724 -0.7432691571525457 -0.11860524594043444
P 2.105572149313565 3.737112341960565 1.4875587280055909 -0.9756644870329584 1.0153407225766578 1.025676557285027
P 4.537328378638405 1.382994249208672 8.050170594599992 -0.24735966449972882 0.3682621911147722 -0.12807410466281813
P 8.832454573295488 1.9740576303406787 12.29241298646183 -0.914995965508308 -0.6972505243305863 1.4006822377712198
P 6.365406624692595 8.117350642665802 1.715487453208652 0.26505142535253706 0.7320411496472102 -0.24696577149541984
P 1.7199791265713131 3.792592893418598 6.172079643780668 0.852846488562757 -0.5775723570409472 -1.1979924053750401
P 7.082506652047977 4.330581976679712 6.1616479876046 0.4148963460335435 2.0568825290287156e-05 1.302626276737047
P 2.5816548902873517 8.81045193632823 10.462293070697338 0.8813461386643467 -0.6634425746422058 0.5483810801889718
