# total energy = -340872.1825179764 ev
CRYSTAL
PRIMVEC
9.19935057768648 0.00000000000000 0.00000000000000
0.00000000000000 9.19935057768648 0.00000000000000
0.00000000000000 0.00000000000000 13.46417945505339
PRIMCOORD
 96 1
Ni 7.450967917923907 0.11213456264158883 4.910089838832577 -0.0626169035002728 2.147790566164198 0.2689810994242465
Ni 5.260979743945368 7.06421802473679 6.574828218530083 -1.5685562480397954 0.27352835247529667 -0.8145303665913778
Ni 2.5235842201392957 7.975146907810014 9.990972978655458 0.3244017422863962 -1.7620739270184038 0.0697548000966347
Ni 7.112689402372976 6.065784919975313 9.918293510252592 1.0956604426733325 -0.14087408464096382 -0.7792651156311805
Ni 0.23365522256960794 4.95569929853697 4.342399761084704 0.2988084671983241 -0.3884726046243761 -1.0566750625490706
Ni 8.606636320950273 7.399230770870212 4.340569090340805 1.8241133607486522 1.260215930091636 0.09680537645652361
Ni 1.5060716624991972 8.136071145614117 2.777983058087882 2.458347689258018 -1.644956835587722 0.7051893195616887
Ni 4.180626423232051 2.4176445001054514 0.021930331589847214 1.8326566223329728 1.0450325932141358 -1.7662985066227128
Ni 2.5525345760742133 7.8734756863951105 5.70816568999236 -1.1399569505978624 0.03160374294821009 0.878103463357333
Ni 5.2962776517058625 1.515022630508309 4.689493094257762 -0.377355411665292 -1.0554324483912212 0.4075846428634787
Ni 0.5358272074535672 8.338806431312785 7.481425127466113 1.463663466589447 0.6240159932154672 -2.3148675344527745
Ni 5.800806828984096 4.267486690387274 12.025478330633995 -1.2124654021802346 0.9354107817192342 1.3083174135845532
Ni 2.362126420007827 1.0298948833752108 4.3561868276368685 -0.6130417535921507 -0.569767773394864 -0.055696779341671825
Ni 2.8318176570491578 1.5083623007666884 1.555692039009318 -2.2700637478745227 -2.8540813463201817 -0.22231094906121712
Ni 6.648628167820419 3.0877435871760714 0.4325930163934948 0.612884144968364 -0.40256610660296477 -0.017323578880112104
Ni 2.2408789807888216 1.2253810809020589 7.28544032514369 -1.4017374185086118 0.1601856404853822 0.37446317771916154
Ni 2.1285733102284565 3.7620467774123276 7.968249234826221 0.3159821507641333 0.5333599241897911 0.46019198464654937
Ni 5.086964830419821 6.944295291985731 2.120580914538512 0.250963065580271 -0.051664261143511025 1.5604251342922288
Ni 4.833255943756625 2.2825612377767817 11.039159850508899 -1.382245114111955 -1.0319469636747711 -0.011716259995663694
Ni 9.174788206091833 0.4705099792333258 2.793319295259506 -1.8680077481387571 1.039848477910035 2.396626300988821
Ni 8.554843977793748 4.0485145511057885 7.048362944198554 1.9190989103876177 0.33885854114167446 0.3579332983849384
Ni 2.276508065166303 0.8634427558725737 10.540647968374303 1.7126274994618182 3.328961271996209 0.05113487100260226
Ni 7.255739302210269 2.9447764814930246 11.034379868003724 0.9913572151778668 -0.8737361875275726 -0.08084216825904787
Ni 4.624458286097006 2.265542439403856 7.584506609308352 1.9377982865693335 0.434427988308568 -1.2200874375018664
P 7.747177803767059 1.3570421848552001 1.2292889649825014 0.40165953562829537 -0.6850532109334461 -1.2654247279860853
P 7.5258690294657224 3.5773054212366024 8.975234975721378 0.05938091306147837 0.7085065568603798 -1.357532184746307
P 5.1203860706840585 6.675481071847754 10.171487233289366 -1.726923090148884 -0.38976149863912873 -1.0319256235185323
P 2.185747273411015 1.7319249159336276 12.994831368618904 -0.6988674911087189 -0.49414520166354253 -2.055387689650744
P 8.292828077654468 4.243899555777447 12.442908057644736 -0.10169998554466354 0.6238879522780353 0.8456993359950146
P 2.134249309469589 6.384165240455627 4.295019426414479 -0.8140076613186884 -0.7545406163013069 -1.795609082661372
P 1.9016897295411785 5.081288831178689 9.857152787146573 0.5895981778572298 -0.01110973675991635 -0.8486172809727579
P 5.083275890880609 4.832703982728313 6.075751496276516 -0.39546729077465437 -0.7399655467006094 1.103269365368842
Ni 5.452528619470264 4.043832081715617 9.579534788607033 -0.08302272085013444 0.4057313917048238 -0.7534977768590895
Ni 4.148106719314055 0.1651540991510588 6.457339633913876 1.3646024613295273 0.6038294909652633 -0.5193255575839121
Ni 0.9618472879349239 0.2900729991433799 0.8456300535539273 0.7912791093729211 -0.07956510131883716 -1.9259930664042895
Ni 6.243240390577331 6.5360649154468415 12.024145344750622 -0.015288036507322056 0.7077686502530908 1.5992889012369618
Ni 1.449219676583154 5.460605649184549 11.953014127032171 -0.2943247203953576 -0.6594943886277352 0.9446248441183345
Ni 0.16872620693927878 6.233470680376224 6.244242199843716 1.120081294719858 -0.22107219155810956 1.0146820059467365
Ni 7.972322707215157 8.868919002253236 9.073537394993492 0.43169516275843717 -0.1433909375255466 0.5447375698991135
Ni 0.3705636360318933 2.5143480722655567 8.909086126218483 -0.8204732144383742 2.1470899405527475 1.0216620368089953
Ni 0.11367913358581272 7.193018130693185 1.0525262054710132 -0.6232482618115073 -0.5041601626973834 0.04809351307311717
Ni 7.1353106051832595 5.643709520976285 5.302234231136387 -0.6890142524637229 -0.6653336210173315 -0.6503883125614088
Ni 8.754985046659353 1.3915857458770031 7.011538864194779 -0.5024609206180896 -0.5152483021907449 -1.152718106918273
Ni 0.3757327510620268 0.01553034346658 10.8912416544019 -1.741687392942252 -1.2154427396410037 1.3694531045536091
Ni 3.7379996752789073 -0.021760143606117957 12.06533175674815 -0.34408148010351064 1.0923948845481832 0.3015132677239969
Ni 4.01384219917738 0.5427110814116537 9.152222199384381 1.1653964737168896 -1.1309388062596522 -0.3888713827246915
Ni 5.958078924650873 8.109687408460845 8.440276186952355 -1.5769239032782003 -0.22110073080319986 0.6769799470070083
Ni 0.21132563916928235 2.761681809051761 2.001773143064642 -0.12207957764228007 -1.727002794346884 -0.2383554041185895
Ni 9.037993864575398 2.1186288123683847 12.814451424501883 -0.6849130858111558 0.03961812861225435 0.731478849385837
Ni 3.4213028359349416 4.427279408083338 11.218124934523347 1.0928114032603116 -0.6689020550948802 0.2517999596592696
Ni 2.5489376300397186 5.176446912459523 6.080854375983252 0.6813431090717105 0.49081793706252247 -0.5878310586544779
Ni 1.6929380686339204 6.5178777995639905 8.240387180289678 0.34186673184037897 -1.496972879374854 -0.40251314187784226
Ni 4.016951579636865 8.630379844518123 3.9819774890129804 1.2066292551144315 -0.20598418687673556 -1.1507111037905733
Ni 2.0502224422596957 3.2841037229977457 3.6003488742335437 -1.2539172415671178 0.4653408758373405 0.8463493108741876
Ni 2.486961605910854 6.429637629837989 0.7755659604902105 -0.21014551734327677 0.42045661373014037 -0.12322114744589101
Ni 8.433458548317665 8.851035464935958 12.89682608836703 -1.7296690283251372 -0.16592408563105618 0.5077815615000545
P 4.149790200450404 5.195369976380122 -0.06567876269378504 0.40191561750315946 -1.0723130261966436 0.27865487506858466
P 0.6877241226396404 0.04626813319817801 5.334454036229 -1.5664075771279087 -0.058757163434550425 -0.25163875149105697
P 1.1780964194767414 4.600521576169249 1.9325811484256565 0.26865276955055023 2.1635717402578547 0.5190959580716091
P 6.069345068607918 7.718733412108093 4.6304930600065415 0.39944761557864106 -0.20375195511210714 -1.075111414877387
P 7.147416950404216 6.735764415489798 0.6226147997400631 -0.06265598426832435 0.66206754867155 0.6414264753824308
P 7.436055770809035 4.046637883609531 3.629148360820722 0.13795048323626566 1.3542931089837191 -0.19281011138862275
P 3.3354085005792626 7.970234454658046 7.874282469431492 0.35988862233909635 -0.9443433083221737 0.3386119723485072
P 3.489433225529475 2.653883820222603 9.180281138258575 -0.4218252119428929 0.4425863557496442 3.1355852608017867
Ni 9.087642759071981 4.621220114730915 10.379872760047844 -1.27586314971059 -0.3087318969596231 -0.5666276851039854
Ni 3.630468467613433 6.819717687895917 11.93483713043484 0.5461609326092013 -0.5127347917402718 -0.027665327125752356
Ni 6.020137742933984 1.011091411010746 12.704126374098106 0.7292990681256989 0.1319685546212179 0.2942213620482739
Ni 8.194735403573114 4.664227078186822 1.3668026957058348 -0.064026896473922 0.7647977752529409 -0.8929541552169202
Ni 7.650373038751764 7.729965819034224 6.726529187551106 -1.6755601622958758 0.2432369005806069 -0.4211945203374295
Ni 5.22019902330365 3.7772441043918263 4.054831745074809 0.1008965158067617 0.6959120080248209 0.21278192652485933
Ni 3.4079177809983974 2.6788232593517924 5.75931591848595 -0.44042534354258345 1.4363899755854745 -1.1706104138176614
Ni 5.4500907915952235 1.32181787189848 1.8433134112519496 -1.6490124937143344 -0.6607621995965652 -0.8709982197711194
Ni 5.1599708757644365 8.153770695921958 0.1584799703837304 0.7833241161919026 0.19843542799520017 -0.4236805199840768
Ni 2.3051088457832902 3.838465781782 0.3351516563255475 0.13792631486654955 0.18474996008830763 -0.6597856946159089
Ni 7.00922430761606 8.706992035247703 2.0715584958090614 0.2816705219664568 -1.1259122995793382 -0.2076942275893068
Ni 5.466833609453992 4.731989493762481 1.772182193533498 0.886875038902376 -0.808866226327065 -1.064447764515954
Ni 8.856398686261047 2.4846617682928915 4.507416789913732 1.7168459084185401 0.02799854209545501 1.4769848662887015
Ni 8.636938981404553 6.799929885030964 11.557597525765523 0.23585114963949702 -0.2779251959914117 0.7105181879737699
Ni 6.3409742899902835 1.5095766150289727 9.254199759169998 0.31695248509720253 0.6468743858708794 -0.8942301937158664
Ni 7.412349044643073 6.271261612114591 2.8469607078608727 -1.1920441582114052 -0.4445090266936538 -0.03699020407110404
Ni 4.388752528307223 6.280690946348239 4.510661400825154 -0.26539029674919457 -1.0552226463732601 -0.6622377557008272
Ni 1.3736378131064206 2.81791743848619 11.181489441204246 0.4197606161043803 1.2735568701749163 0.5509884359048317
Ni 3.952132956212199 5.628567390099618 8.292143645979362 0.47108369185838866 0.0856115646232332 0.22708111675635084
Ni 6.590230691025105 5.55152282989786 7.684935918409558 0.4665287254978546 -1.3275981161910362 0.19811866808572975
Ni 7.07922216535638 2.0017326659225656 3.2330454880088744 0.34798724291582 -0.09894196318355218 -0.22077188670887138
Ni 3.3502930496427186 4.981374685703908 2.640500605156153 -0.6581769553678922 0.9022319809744205 0.2487154071966749
Ni 5.840961993793729 8.689163694033255 10.826613457532002 -0.843187111096122 -0.35245222066570914 0.20994651395859326
Ni 6.718874408023479 3.0177733274871676 6.44808968701443 -1.8546161573231994 -0.9757310786048357 -0.8389031390087874
P 8.693947356278619 6.72459640401697 8.434837530953395 -1.262555119747774 -1.092636568245344 0.39379993037456046
P 0.7811260479153977 0.5414829681236615 8.89103056104738 1.0484285062695622 0.16035147663928512 0.5571621688157115
P 3.8131399699329918 2.2675754958581353 3.0124349444083522 3.3806309324563584 1.9122579762063838 3.8813851547959866
P 3.59443461181519 8.351851110281869 1.6202797587371416 -1.2926848492536187 0.9589705713170452 0.5928449669293016
P 1.4535985674077554 7.549612553033572 12.19111447574978 -0.29885680393775627 1.4804468566953728 0.6157540103169912
P 6.2116314223560485 0.6772534219325789 7.14965423243897 1.2339317995841266 0.5162168367516012 -0.9070386583344444
P 1.2515716316954206 3.369538090829832 6.0033544479331375 -0.6470142538828534 -0.5481645933027914 -1.145066761020602
P 7.5088870284946845 0.8039358374103539 10.987712482995068 0.837848215381712 -0.7611738053471085 1.2913913272531758
