# total energy = -381162.29829707823 ev
CRYSTAL
PRIMVEC
9.25806074513708 0.00000000000000 0.00000000000000
0.00000000000000 9.25806074513708 0.00000000000000
0.00000000000000 0.00000000000000 13.55010771963446
PRIMCOORD
 96 1
Ni 2.22410092211086 2.2440798168131724 11.808864558818275 2.415027429203828 -2.2786172938714886 0.7332092018133824
Ni 1.89532867527652 6.132789286825057 12.150869351620186 -0.6388270900863708 0.20653825960799269 0.9882207264314141
Ni 0.2154646951741655 0.687848903320709 7.47806047741497 0.8998310848424116 -0.2892146528623019 -0.9626919860326903
Ni 3.9758648521840656 7.878748412923123 6.0483752163865905 0.049275449196360295 0.2595364090715788 0.22300309003223528
Ni 5.252069985142506 4.413734084732977 12.530435021946076 -1.551402104858012 -1.5119829796304414 1.8925887799122307
Ni 1.1290575183159248 9.227333063389755 4.87004444812412 0.856121559769603 -0.4659319724541202 -1.318350372340523
Ni 6.011267983830364 0.4543782061509334 12.47321280119721 -2.5342368843871648 -0.9481703953777477 -1.0350888517378625
Ni 5.035440625949086 2.3885888841942604 0.4305599937317312 0.8703713848203979 0.015193419910986737 -0.6512234068681946
Ni 6.500824968521541 4.550929284266602 4.348785086635387 -1.1986338956137808 0.3898131778126706 -0.21135239316718438
Ni 8.13042878942097 5.497751138393318 6.029757256587541 -0.6773368161257948 -0.7286786609328806 0.5899722733671968
Ni 6.54466188530349 8.186690023483042 5.815624796328882 -1.2175225049881677 0.3777942989749235 -0.6986821145707903
Ni 3.3164872625232364 4.241876706438714 11.458729337226945 0.49715647768604054 0.9490419993494235 -0.5560509380294038
Ni 1.4115950106816149 0.8125262791624914 9.561308340262418 0.2725809009603628 -0.11576289139563288 0.12385055349977381
Ni 3.35969463118667 8.128503112823157 13.012371696985042 -1.4117420951298072 -0.8394829227716576 1.1362280796830497
Ni 1.31186718226025 4.725693693578718 5.786817415070441 -0.7702022340979638 -0.846975888714593 0.6542171993891959
Ni 0.4504074239740003 -0.23305223283217394 11.54638558047577 0.8155230695219502 4.471746436071486 -0.30064063531105645
Ni 7.501241735267204 0.9641159112647699 10.945438388467721 0.34343819009255694 -0.13065446379548465 -0.019577150800979187
Ni 5.872674817151211 2.676366438840539 8.642081987265996 0.30675986083491685 -1.619367931375024 0.6476266906558718
Ni 4.059363300432515 4.1142080512279255 4.578256301640473 0.17439561343717705 0.621606098222394 1.8939931164589252
Ni 8.846641612898988 4.850908962739409 10.927849925003656 1.6220285089263229 0.2625600263892511 0.024720899785447746
Ni 9.012953412913971 0.27894351325381 2.664506863254968 0.2853523416934182 -0.7146648631522917 -1.106602800617449
Ni 7.801239929861143 6.7225647771476185 0.039041241408549573 1.3044113936619275 2.542415820653531 -0.42700675614383243
Ni 0.845298887761525 3.8630090938795316 12.970067915032889 0.6363395477778266 -0.3594913869006776 -0.7395528846432231
Ni 0.5184754626764141 4.910030937516501 8.025348876186163 -0.4664811600893708 2.0998518335013903 1.5609205858714084
P 0.9060715747376079 7.7514593381955565 8.826120195847485 -0.24253190409378234 0.4933072791432795 -0.26315549388140486
Ni 1.5997650916938915 2.8924958627633726 7.8138188567527225 0.9194007794442229 -1.116289945998226 -0.9887272337541875
P 7.353399766082207 4.457663582120591 7.999332800188497 0.29948543866069066 1.635345280639887 0.8012935561861296
Ni 2.823810311421179 1.2085842585813837 0.6665137027454179 1.5738946295335732 -0.9918760637958144 -2.471142784140157
P 3.838317846348917 0.5272011847602551 12.02891847461521 0.44111491341044035 3.3910063621534117 -1.353419191019198
P 5.567732818214809 2.5141929918987405 4.766683756736496 -0.3439670660128334 -1.1406442064728743 -1.386350137419264
P 2.049336512798745 4.197076951357858 3.941008254151533 -0.6092658314894862 -0.8618417500828318 -2.1746663075091193
Ni 7.804137702818428 6.481401557453213 9.228869901443778 0.28340370260747966 -2.280529680402853 -1.4718845689476585
Ni 5.1017838879679775 8.267429569682701 3.5569163180147254 -0.6586073580370915 0.306716152081175 2.951312240349898
Ni 6.033237361554454 3.5973490459264066 6.478468603865775 1.0814471272874278 1.1734252575586372 0.6006683196284622
Ni 9.394246637341555 2.4675693988863014 11.401941319518645 -2.590638660215661 -1.0120052304455216 -1.4203876866199474
Ni 6.625929140955435 5.590442840784212 11.581141265648126 1.6834840451286426 -0.04067845155596865 -1.032099172981919
Ni 6.30714634147225 7.849918812319324 1.8483292050050848 1.9354313289990541 -1.1465734274731156 -1.0283042247158614
Ni 9.021294925484307 3.343317122044691 1.4125310006048788 -1.9524327486530573 0.7533959611739025 -0.60217138653655
Ni 4.2869079130337315 6.353955095696018 11.069800990250245 0.14173668975157525 0.3546068051148667 0.06902049303377146
Ni 5.115152527425873 2.471689235838354 11.093893241262213 -1.2767103282022334 -0.7721241337110251 0.9206860739145498
Ni 3.6943920367835124 5.999408408244793 0.15754071343436676 -0.34223722780592025 -1.811808832349686 1.1271639125982524
Ni 5.751366449549545 6.523210958971119 7.044348114060376 0.8978600771589698 -1.69419654645014 1.2312197999696022
Ni 6.9031432484954385 0.5118540977593179 0.8863704218522882 1.1885543998905916 2.0132038571938424 1.929118756517465
Ni 5.751857126759565 7.446211823260464 9.31190452085785 -1.5081654056565637 0.4551595644289645 -1.7683715871016579
Ni 7.204511636053207 4.711834376910802 13.723412967830662 -0.07620029861166232 -2.4496655881029876 1.2384006339887577
Ni 8.472365998380745 1.8984578997479664 9.170373771560975 0.02134118467993744 1.6585158052190792 -0.1733995680724949
Ni 3.221545851414705 6.89156141472686 2.522339159391125 -0.374796135578548 -0.7033013585103565 -2.5617096358861366
Ni 3.443146789132287 0.05357917391598267 8.122652944351243 -1.9073034604145862 -0.108475099484968 1.6984401522178425
Ni 2.6764497613856366 0.7599506790119075 6.209201615515975 -1.093865555556439 0.2545898636995809 0.8029460041878882
Ni 3.1123192528522035 3.6405008662264415 0.09275187978457526 0.8581596732455543 -0.4721792389154126 -0.25115949786179326
Ni 5.502657910493516 7.195660930151719 13.20429499575094 0.8199109141770009 0.32902895664576237 -0.1531145925712137
Ni 0.7874582285668239 6.722296293391193 2.2130847558428894 -0.5057683877247676 -0.10969920170005622 0.0004190898152896008
Ni -0.04202974335938661 7.1748210358167315 10.860044815221327 -0.0692673189372549 -2.1981453644676656 -0.22956814484426272
Ni 8.147769136861855 8.804258211625966 9.220265459953357 0.13464198768832297 -0.31874223000777363 -0.602085254580647
Ni 7.096016424275452 3.509601147877975 10.847538101202167 0.6872548465704551 -0.8335393035937129 -1.9400238334657427
Ni 3.2628923499042903 8.481318542948463 10.440289903976652 -0.897716352492254 -0.3641792792946502 0.219007595719597
P 6.928315915175507 2.810469446144983 1.6079232946650117 -0.6809497302880337 0.3399484317717436 -1.250520814291059
Ni 8.277733791093114 0.23089047568991727 5.278268444933332 -0.6588176742756847 1.915515306801417 0.04019508416164691
P 4.186670891281214 8.559632477279724 1.5585880157126712 0.6522716456270508 0.5731629151193419 -1.5580239810499037
Ni 0.38691934783378934 2.392338398723657 3.259126170865875 0.5884697206797413 -0.20910216368042697 2.006490963950041
P 7.893033600377094 8.094294579030274 3.7444503702660894 -1.5870496788582926 -0.38143986614731085 -0.9548745468708006
P 3.85465832324863 4.506981270757855 8.856242221706355 -4.445368974519222 -0.2840091974019625 -1.225992490132392
P 5.302174608927915 9.4178546917859 7.498209720431704 2.002120088575855 -0.5630181133758563 -0.48288608380995546
Ni 8.477698641266997 4.896819685088233 3.5330823668925606 1.7972826137090532 -0.1442442866647774 -0.6559041001733155
Ni 4.927213897927757 1.2714279737061727 2.4319462334388704 -1.0658667563506674 -0.7112607225667492 -0.3493237023390564
Ni 0.8030987960877164 8.0380888933316 -0.06582110740294618 0.3852307006483107 -1.1483829698780288 1.7538291705111084
Ni 1.745764706826172 3.735988502908391 10.058393979806198 -1.7902673587334843 -0.8903917938063826 -1.464832547196884
Ni 1.7925827191105055 4.367999265534913 1.7252266252656487 -0.19455203378039398 2.780824960828191 1.088545686005422
Ni 8.548467256236632 7.725740445942071 6.916028617191769 0.22268478746086812 -0.1579454383009538 0.7799150905103536
Ni 7.09331307059006 1.2133058694702528 7.209104559900203 0.22169516985408916 -0.3217653331048136 -0.36293589380585234
Ni 3.64787954049787 7.009694267554248 8.543722500196347 -0.641714953157127 -1.1599873868861765 -0.2606710368966543
Ni 3.6224198739402436 5.470273214632215 6.689376481629154 -0.3203512263661064 -1.1812786921647849 0.23348136385573984
Ni 2.5432077537138684 2.4067531990255566 2.4377186342020267 -0.21609350739659555 -0.8340800065885312 0.9240004829997635
Ni 0.5699252826621225 1.4786789175458193 0.2629603974919604 -0.6189961714033727 -0.8567028861943697 -0.4417255504112457
Ni 7.023886874402554 1.5053328739165126 3.267865780040566 -0.07372998269429883 -1.1916651776054317 -0.2282129163679489
Ni 1.5105451620154013 6.8805165484711335 6.787018469004907 0.4458632267287031 0.6081427736286364 0.9160673441956159
Ni 2.5026389323118616 6.31127543648487 4.491765648216961 -0.37128246599833475 -0.5142463432887918 1.6790285804604501
Ni 3.478836612615796 2.2923143123641667 9.103274125993808 0.24150012039515825 0.12979982910467325 0.9812052143455295
Ni 1.8404191180571443 6.003907825680068 9.887513326901692 0.4427974433191858 0.8760841189344589 -1.12519624734892
Ni 5.697993730384193 4.754578842545916 9.359574274714294 2.457706199019277 3.0650992389660825 1.7197633391756508
Ni 7.205428184049281 2.490177582789474 12.735528837673748 0.5206018531931743 -0.2079330830729903 2.3046291445542177
Ni 2.067871150052697 8.81969139859017 2.0834783885555503 -1.2027402044726705 0.9126040682373638 0.6257885117348578
Ni 4.3432802438225995 3.840456458339758 2.3767561569843325 0.6275548596066611 -0.7378125049133487 -1.9345715521019196
Ni 8.717482409937007 3.2413118107239898 7.025175596433398 -1.3265948717375025 -0.7457896095815543 -0.04926490767339903
Ni 3.998723003722531 2.605764468961099 6.799051170323068 -0.40167444802663077 -0.010085409260460051 -0.17786891669775817
Ni 6.794499907748622 7.580962894804556 11.130831051310075 1.4201994818685413 3.94916560477507 1.861749683044187
Ni 3.548772002134455 1.6101063453465712 4.377212887410605 0.8529609026534342 -0.02999011860418706 -0.5658874645038513
Ni 5.275363265527592 0.4815932009919512 9.842242336538005 0.3502233313351904 -0.12038136400425073 -0.3867250258056501
P 5.14839822291985 6.210982866368954 4.927049104449674 0.031104434714288365 -0.03400335352863822 0.41785774265471254
Ni 5.13565913158047 5.869906657041855 2.767365767759893 1.5512905189808124 0.2419858017823252 0.1769806005555339
P 8.067057364843896 8.805054404834676 12.976342102678744 0.11416186545710016 0.26925337924902665 -0.8013118110185748
Ni 7.923668522791344 2.7146485192826426 4.801968077167197 0.18867577750527506 1.0054432609572879 1.9293943787763546
P 0.5920168667856893 2.099913297673041 5.745096890933972 1.5556328551099081 -1.6818099998603293 -1.1077605683709761
P 3.0125636502491395 8.409475992953125 4.155628614202042 -0.831356179899465 1.7198666975227348 0.3775395026516401
P 9.648472980495164 5.6011266426778485 0.3297026819212643 -0.16792491811116886 1.7615131694189274 1.1407642769905062
Ni 0.09968801876092938 6.87201764887117 4.643093277205211 0.5254280709372241 0.23000908903642323 0.26757650576723596
