# total energy = -381174.40647295007 ev
CRYSTAL
PRIMVEC
9.19616349957656 0.00000000000000 0.00000000000000
0.00000000000000 9.19616349957656 0.00000000000000
0.00000000000000 0.00000000000000 13.45951484408499
PRIMCOORD
 96 1
Ni 7.017858855289796 6.233747996842163 12.77741313210321 0.2976715253804035 0.2624394416509867 0.009583272813060914
Ni 1.199161293846884 7.747087011535877 4.021043526783585 -1.5787586424940938 -0.5486086228187456 0.8382518785780338
Ni 0.43142696289263605 3.4842055427808103 3.5413459030571763 -1.6872031458514427 -1.2857449276006758 1.1161871018717744
Ni 5.00380714463928 5.027698776730372 4.363009294085248 -0.4125774680923797 -0.4379825384290457 -0.024530381041196467
Ni 3.6384895734167797 7.521403969523757 8.683230679858935 -0.7986075247135342 0.26618425340539964 1.193825418481544
Ni 2.6196650406577757 8.52473296722753 2.335347261843192 1.6574151159557329 -0.23823121983589937 -1.0811897598609832
Ni 5.505632576347823 8.861468876496012 9.625490716351269 -0.04189201224809559 0.15340435589749063 0.5449692262939454
Ni 7.759225947009411 3.602045178506465 2.0725632188655982 -0.16808869738254278 2.7539847007068956 -1.6078298488284373
Ni 3.6299371416058808 3.3137086763570824 0.1452819064427557 0.4599667560096207 -0.7902825497876067 0.07981295566358512
Ni 6.238355274624163 2.4780533229631168 5.5863583364794716 -2.0816759339233113 0.4635537020299306 -0.7188948420732393
Ni 8.621614546934865 5.271406298688042 8.58831432023546 -1.3305158040584635 0.01544255980731534 -0.0768117069434161
Ni 8.095998640930842 8.080034101550497 11.330286492719681 -0.1202587223834574 -1.5843003982479296 -2.4995205639519016
Ni 7.240176101556982 4.131992477395363 4.353332171510399 0.5520279329129396 1.266397890532632 -0.3818203894151811
Ni 1.5985782517423408 3.4883530124009345 1.646664069695039 0.4944642755658582 -0.3603822741460632 -0.8166409851764773
Ni 5.841402888476363 6.8043607295673985 10.63080884416332 -0.4479015973149706 0.10518074500441241 1.423128482589878
Ni 5.582429735544401 2.246521521131931 7.980550007646943 -0.7723614465328118 -0.6386414564381259 0.42688642851588415
Ni 1.0137390544886522 4.250797710260958 7.159478849531369 0.6201133157269514 -0.30193647130434453 -0.019673824279843537
Ni 8.177108800685819 9.000358529872363 2.7207731769890766 -1.1288842377234687 -1.9031992084382252 -0.3484466990507418
Ni 7.467109821769404 7.819561974010818 8.522631643927756 0.128431745112553 0.31257183953100365 0.14042671269090007
Ni 3.0373547749061958 7.484766455185454 12.926343156502291 -0.6914832828295058 -0.10310020832629986 0.641398707468289
Ni 1.6381677344798888 1.9355808497447096 5.687197025227913 -0.8484164778158614 0.4900131817730399 0.9996819329934784
Ni 6.240957788820383 0.8751133309972177 11.887267752677932 0.9226141441751983 -1.9334433520347474 -0.37012495535512385
Ni 2.185624528173035 8.747224940596228 6.663899451893753 -0.9591502914280191 -1.1499559707921034 0.8774442325067792
Ni 2.019321112185619 5.391269090325952 3.4762287907885803 0.8900107563178801 0.5933625299956684 -0.9586954632787876
P 8.421717546640767 2.515242607095671 5.340317747908442 1.166858660084713 1.6717155917388047 -0.6424140361066807
Ni 5.235412515776366 8.03129443639161 12.858991376566978 1.403293450141822 0.21808276991248246 -0.12902412728091328
P 5.902474608536772 9.293366682946408 7.590210582483249 1.6757259984497785 -2.1718715183728015 0.6125838401191257
Ni 2.881084373010921 0.16796148421914175 4.598469696851504 0.9004206387972945 1.1628765355085133 -0.7375481955083685
P 8.573656555651167 0.892989752714644 11.772323988755774 0.2478720853597731 1.8746851601589325 -0.6443153668944517
P 9.264398768748203 6.114657682916204 10.400167230933526 0.22837515297742605 0.6398406189525497 0.6152870979829017
P 3.8540200512146714 8.732695002680938 11.16224408226405 -0.22081482413166487 -0.44628951563284425 -0.42943182064555724
Ni 7.2557084212651635 4.929474557190359 10.89563811384494 0.4296488217523697 -0.29551745515187816 -0.7217945322185375
Ni 1.3233186937167194 4.025482514778339 9.830506301103375 0.9357596804182207 1.245477338329881 -1.2027625730701736
Ni 8.76884512036765 8.031533536635786 6.548484844413834 0.7211779816804612 -1.3680243425268828 0.12493581614415257
Ni 5.692517005660821 6.218914585540034 8.477192481754818 -0.021748190310368995 -0.7700366550543771 -1.597602000452842
Ni 7.840768326436551 8.732777768150076 13.414465385370598 0.05152902111722738 0.08760854044860396 1.5060514446373547
Ni 3.7920103225040354 2.912608820589159 6.222656504361383 0.12451081279159203 0.6752565365579984 0.10582043547094035
Ni 3.549792578990844 7.212964654537143 4.126162109902771 0.7522559340321884 -0.8492687985138277 0.20885096690156935
Ni 0.553578679560367 0.26495985519959225 8.533385637217718 0.017591744939834217 0.06039701303081856 -0.4047129777426385
Ni 2.829493897248401 5.000781606934134 5.519935369031147 0.6117497742536044 -0.05519438578395656 0.7689423935489338
Ni 4.936436052761166 9.060777322342906 2.776199372437968 0.5681708612213893 1.1533017473358849 0.5246749948212834
Ni 2.645175197478672 3.168464474183601 3.899476686097761 2.1067069087500103 -0.6825291589600117 -0.08809113651197731
Ni 3.364434712775275 3.1321672178850863 8.7002297876035 0.2551989580384895 -0.012880198396777816 0.3066133079547236
Ni 5.952207459325311 7.108211159098487 3.568400095685654 1.6046008003681784 -0.5180315213628369 1.8591649530361465
Ni 1.3057172372800951 7.999135453549983 10.359101763996355 0.6199233112033323 0.6677376024731339 0.9360031638875945
Ni 1.2133693660488616 1.2051847807674636 3.164130322449755 1.4510740599602108 -0.35887149392849166 2.4040961270033048
Ni 3.591699494864249 1.7269566905382003 2.0389953838159816 -1.9513587988625876 -0.9141516152301417 -0.2953264221869946
Ni 1.0640328712346807 6.9174643412257275 8.369287461174661 0.6490881056927467 -0.11425699627406774 -1.4792461515190523
Ni 8.709870125525399 3.010051366253982 10.65469955663809 -1.5220989850185207 -2.1694091728752376 1.860377999507641
Ni 7.834294227517334 3.3258384156673793 13.236961042559876 1.1939565447427696 -0.7427235690617208 -1.2504279974669368
Ni 3.205846877744143 5.343642160918806 7.9169806096512225 0.5118611308860668 0.13747045827605356 0.10744974354424719
Ni 0.6205239890805834 8.070332149334908 1.4205708788025257 -0.33873127153519084 -1.2662220270764 -1.2566978896360486
Ni 1.238024279688668 9.224947228459218 12.568212373461707 -0.8855604338560104 -0.2831975001339445 0.4498366095541543
Ni 8.969284694292764 0.48491460713105716 4.935617594233026 0.8499977062600523 0.7301367335356458 -0.24500916198968128
Ni 9.318656131849604 5.1310452591936855 5.053105936523007 0.37435827671018107 1.210470997458025 2.2235563483416025
Ni 5.409541866678916 2.7015844627776553 2.6542968717939743 0.7510932811826548 2.2309079036106674 1.2678929870209197
P 7.871704219567588 7.903541336695902 4.498923069037936 0.8651278770332712 -3.2254386314205097 0.5389986105328073
Ni 4.352957887666632 1.671890065071896 10.427099114590943 1.5188439684163326 1.4527157093286915 1.5007351746307638
P 6.11136545647717 5.207410198718099 2.267847423679753 -0.5316946206722263 -0.6913891804538028 1.27584386643688
Ni 2.787807689292697 6.041290692607223 10.989357133014888 -0.40815722753749706 -0.1000159129740213 -1.2913069950694858
P 2.154192042227172 6.2703211380378026 1.3432136732647828 -0.071942808886889 0.895786996680025 0.9254816955309804
P 6.655704750832794 2.9214279411339463 9.658035938048872 0.005201598805597493 1.747095708442017 1.076942811659171
P 5.018852067695872 4.7588949252974935 6.656753113441873 -0.5895912358786943 0.9571959959151257 -0.2335173592999978
Ni 7.329912262428759 6.788653682757705 1.5288529420754204 0.791784845364746 0.5431923368991807 0.1576970697355736
Ni 3.355155784068611 1.1386689320704397 12.613449220043421 0.7165127149943079 -0.44509678087632376 0.3790153158662182
Ni 7.660376388369246 1.021656951036162 9.55532674969792 -0.5806813349835741 -1.474124514021771 0.7886599265825193
Ni 8.684654245928103 2.7377529727908443 8.369960620323647 -0.19504979935241895 0.5247058480592189 -1.197872334857408
Ni 4.815359367575901 7.035340761604333 1.6805822785640052 -1.772503092771528 -0.5666739649608886 -1.952160983048909
Ni 1.619609877066562 1.5897959158505035 10.60559940188029 -0.2997916570471998 -0.2707903847188433 -0.737917148812013
Ni 4.954846771562693 4.497402023638449 10.049546034792705 -0.017829314871937035 0.10837096980693595 -0.5076422077087128
Ni 5.853477450807235 3.0017748193402087 11.784302910988975 -0.42671596437629095 2.1036958898378284 -0.7812080982901642
Ni 1.306324184053772 2.484003240577796 12.759606601226388 -0.6076650626612696 0.47869158611263357 0.7280873072057849
Ni 5.8403821143569985 4.27662053663193 0.344845086011331 -0.13479419699547107 0.8603402258366408 1.2005761069418162
Ni 7.57952372118492 1.1653929824386897 6.764442024185946 1.2817849145116635 -1.43069806740702 2.3317542829057842
Ni 9.05010057682414 1.5523307468208236 1.5442105346820885 -2.3323883169453574 1.500277518268055 -3.0086090171888378
Ni 3.1665148875772458 3.6126299623928575 11.344190171918495 -0.09758570626597388 -0.40160837067538574 -0.24396452277525082
Ni 0.39852860852671135 4.6280335224275015 12.008524682662653 -1.7927605574689833 -1.0520961849291366 -1.8161465404930914
Ni 0.747270108901782 6.739067970580966 12.552451069288912 -0.5311068664895563 2.3180626443513046 -0.21304006528225244
Ni 2.181734551123562 4.907707238807135 13.161978286370061 1.6231104291365919 1.26920527807444 0.46729260024707264
Ni 9.19192380627326 5.240764682780606 0.7119099416371718 -0.556135784433726 -0.28077654939727775 -0.011355534222135283
Ni 3.1729705941699886 0.6910263745410745 8.988290404855757 -1.5982761437017312 -1.5771319055239483 -2.518119924220644
Ni 6.61628999519676 6.42729044833913 6.025851254147741 0.6026604103578267 -0.2892830442063921 -0.22061813473982653
Ni 4.573914101774663 5.52946903145949 12.379159488857299 0.26644393482468953 0.07593598920668213 0.01918274357603793
Ni 9.167048184715755 5.742222267959649 2.857306773343974 -1.9932703514947094 1.4186527062067116 -0.14069590719188674
Ni 4.541653961137423 7.541690705625739 6.519560152182844 -0.12582336095542845 -0.7479647628560022 -0.29360172618640407
Ni 6.896754581614819 4.090471800377934 7.3623406928532455 0.6934113530901542 0.5757365893837891 -0.1072445695119766
Ni 6.308043799638133 -0.07536347734784737 4.942360221118779 -1.545373639275745 1.2594687675129663 0.887005393832653
Ni 3.8001949077854333 4.709263232304568 2.0385512091316094 0.5749614017806615 0.3637648174650509 -0.03665287533634332
P 1.6324569171093855 6.613098926553337 6.085934386660116 -0.7883848185442616 0.9017982358711114 0.5423238182512983
Ni 7.3984420708747995 1.869175355006536 3.246084689989937 0.20740857802808796 -1.5822841391488494 2.1976403998067897
P 1.5255883041260987 2.227448678577302 8.212322748954954 0.6145623040017352 -0.6051165852078031 -0.5337057375649841
Ni 4.336358813022898 0.6472360844366244 6.488844966969509 -1.6132798161994153 1.0057602779770745 -0.7617777574796945
P 4.55671727652049 1.6703635019744667 4.487792033055235 -0.804145680922944 0.002275940518370274 -1.2121967218998801
P 6.486228658528432 9.619554592981448 1.3410654495324967 0.08379148069535892 -0.46012127930961405 0.5638357241811451
P 1.8035423379803146 1.0357454731160516 1.106726059064894 1.021051142697874 -0.3459154479884559 -2.13269947615903
Ni 5.469831912864135 1.980927130668949 0.3925455847243772 0.3308618960894431 -0.970419179473619 0.22582898951680463
