# total energy = -340895.1789816127 ev
CRYSTAL
PRIMVEC
9.05127177739906 0.00000000000000 0.00000000000000

0.00000000000000 9.05127177739906 0.00000000000000

0.00000000000000 0.00000000000000 13.24745116280216

PRIMCOORD
 96 1
Ni 6.386505022702947 2.0834308107671102 11.4908657052866 0.079722709942624 -1.039942837396054 0.03151478277882959
Ni 4.720364999050307 0.4031038235823101 6.034134483090342 -0.9507371276636595 -1.0877337316270879 -0.32534919380133004
Ni 2.818674676200935 1.7467144458571167 4.8548732349584265 -0.04046993508958836 -0.7504142528377592 0.2573239748012923
Ni 3.584692865999534 4.216544052839588 5.037183953004099 -0.6568098998170365 0.8744239576232167 -0.2574268189277437
Ni 5.025736809467591 4.474975967328718 2.5661903524588907 -0.09041747065230879 0.05911686076681432 0.09237716548184091
Ni 7.191860040057225 6.026001915313357 2.651225241441886 0.31788733820664605 0.8272079620590462 -0.3514019250243239
Ni 4.787262949456204 4.554835339055308 11.39739141041016 0.8096213593255346 0.8936031016548288 -0.2644906677530606
Ni 5.640354374663372 7.9242437035795 12.281062557636854 -0.48814424688510116 -0.35611090046421895 0.7803133543900367
Ni 1.65092483563582 6.465821318117217 0.373262685347538 0.9706328381463218 0.22985662261895898 -0.015020898888864454
Ni 2.656294858817389 1.5424543935218615 0.3502281035605042 0.026243249967245127 0.6944454507816235 0.5164132690331236
Ni 0.6561466107988563 9.105670015943197 4.73916992149156 0.361925450263467 -0.1442381160171903 0.348940865078341
Ni 8.376680579372918 2.2502457513679324 1.2730505272695016 0.9740233518851095 0.33327204819283246 0.22372145625549855
Ni 6.897919986014268 0.6568471792417484 4.825543493584422 -0.4028131896167644 -0.36679820497473603 -0.12134501346910072
Ni 0.5721499026995783 7.324135327194524 2.4201507961858533 0.6476236053320782 0.5312611326792334 -0.24069202267156614
Ni 7.652542624526029 3.843722164432216 3.6288078599764386 1.0859085054928912 -0.04228461970082395 0.8020705435614702
Ni 7.459542354399532 3.8501395161894587 12.714956997873307 1.552223829428359 -0.16043606593329143 -0.6279508094934991
Ni 8.180421851372504 8.855130810526443 6.938922247594394 -0.8598550586701063 0.32786656090654503 0.13646155739556495
Ni 6.7899564151251415 0.5735419883134909 0.4856659050898771 0.00775778956854793 0.8455314429585826 -0.8987283386965361
Ni 1.8959970728418891 6.493264774433098 9.214569488343887 -0.4911411247298961 -0.1095523917095468 -0.12724440967267117
Ni 0.08982210667609218 4.753438346470568 1.4716064680710272 -0.6479048840179229 0.2264997903315841 0.12669856447153016
Ni 6.431444587547389 1.8467853076738658 6.9881493999246 -0.2616010049100914 1.069824712557151 -0.1340804587578981
Ni 3.4400987978444535 4.234872878380373 0.21612989026818621 -0.8726383264777036 -0.044466200733175025 0.5162695443664077
Ni 6.022146073495887 5.48703488042369 4.834034491727539 -0.24314254109458772 0.6689632473501189 -0.14756255240473298
Ni 5.381967716533601 2.9493750420325067 9.290676202752348 -0.7299228177526269 0.114041537829152 -0.688968229717136
P 0.045210197873415445 5.710655603293137 12.423725084374452 -0.5705470747630496 -1.5389929325603817 -0.21140612922325527
P 3.9884701042091204 6.121447577203518 12.659171293944658 -0.07873026412236764 1.443846946084152 -0.042451227185675275
P 2.2399635065213492 8.572495795051603 1.4421436730005044 -0.6643550591541462 0.05098009059229285 0.24548687295704816
P 6.325227912129558 7.776861843687846 5.885260068466995 0.8109508767702356 -0.49965481862786204 0.3659479411592988
P 4.7663816652475175 0.8911891336435708 12.770556245601396 -0.16089012275157452 0.5716606195422026 -1.2798200774758088
P 4.126366231178927 6.099805986157583 8.248803305238221 -0.36418467861128895 1.1064187096311011 -0.4193525820326843
P 4.7795784196368825 0.9906888602051973 3.8514981120974445 -0.3288520647482659 -0.2023692158319676 -0.23060661341110605
P 0.29134414927006963 5.6492970312729005 3.6309276678488587 0.07233721611183026 -0.8140729673389852 -1.1100321380139722
Ni 1.3098276551397818 1.1874092030710828 2.665757963559557 -0.06658411567813693 0.43282156305339653 -0.5098070765705156
Ni 2.0060514875334463 6.584067133852928 4.810136418603916 0.48288994046469746 -0.3036668237318899 -0.9113804802429079
Ni 6.173094134505107 5.588164741049463 9.046167859783905 -0.12001935267914168 -0.6192723078828948 1.0481613686511047
Ni 8.673897193833536 2.419260151033649 10.380239346632818 -0.05472155991259608 0.8200358697906392 -0.018196211293052534
Ni 2.3912193107742157 5.306145212061919 7.052399853307938 -0.6174411682114269 -0.6010961511945002 -0.18431210121994063
Ni 0.9529360052271165 8.780747458282407 8.810243743058857 -0.5871024080185696 0.3943956549770305 0.8714389068529637
Ni 1.4429356592893037 1.0471687966864307 11.542000865727422 0.34775610074162044 0.2532492905112864 -0.8701307295645015
Ni 3.9266137122359233 7.082719803824739 1.5163559562061582 1.2375588548137526 -0.715331035981381 -0.24221308730178281
Ni 5.596971628580911 7.777151484387749 8.103691504332062 0.16759093181051782 0.7397218061209195 -0.8961176405465663
Ni 5.4269253839217875 2.8271014103137597 4.7094428292823745 -0.20870621379358897 0.5185390571268746 0.9256755567093413
Ni 0.7729587050700428 7.213239144218871 6.737057161796469 -0.08115661417567313 -0.23827390014837677 0.7387815536948373
Ni 5.137194171299307 4.600870107796262 7.084909306490574 0.38614267093961885 -0.9178321494055225 -0.7638377253325167
Ni 8.273233593147916 7.243959160952413 8.974856509213224 -0.40156594747322455 -0.10760992327119531 0.41910035681256214
Ni 4.737118903285365 0.38548099724754065 10.538374117508399 -0.5546391452835415 -0.5363634869028053 -0.3376346960369024
Ni 8.23209556248971 7.209347097313914 4.724782924851027 -0.7939134616719747 0.27396338313018626 0.16708108205363484
Ni 7.305417296963244 6.109318872895048 7.051101900921495 0.2661266606945868 -0.3455362102721662 -1.2603539983313972
Ni 2.4085977527684417 5.224783329204578 2.3271797520254944 0.03212310578678984 0.1259673427324605 1.1986490651224324
Ni 2.2056410835827536 5.2950574040187295 11.363372205079276 0.10572144799923082 0.39328905217641297 0.2454413644310934
Ni 1.24399775481478 3.502244830517554 3.811530410892287 -0.39175821735418337 -0.1275377725433739 0.1399996524558105
Ni 3.5659657844963815 2.570814647258292 2.6380574511225117 -0.3880666274352091 0.3023907852329437 0.06321674186780081
Ni 1.3004324349366534 3.277492698664108 8.669476552651256 -0.5493424156609765 0.15642385945010479 -1.013961068620312
Ni 3.566952373130429 2.7173456875939785 7.2606895318806055 0.589608462269875 0.40077996123681947 0.05405410153192627
Ni 4.182049655735424 6.837023028859503 6.0174158788155845 0.14044908128840328 0.3886692940162145 0.008642506166346407
Ni 0.761434625722622 7.5499283553132495 11.59850162013396 0.4737152159439649 -0.2647467496279247 -1.059473194119498
P 0.2090128751952385 5.331316799137931 7.947477413347717 0.8083880011390657 1.0949590457309335 0.34152863177466986
P 8.674395013786496 1.4780817479682506 8.367368630871011 0.29200558534387777 0.16328870489073816 -0.7049635767041278
P 2.0048024120151116 3.1422485943527954 10.724712651537109 -0.47524219411145247 -0.27469897574463015 -0.2950407726257757
P 4.0374374850366 6.0636733088445895 3.7012587656758025 -0.3719234420164434 0.5243590062427615 0.47015218118305474
P 6.834660646900913 3.9697158688903516 10.510885404833159 0.36226817831486646 0.10010358759182114 -0.7931349316347373
P 6.432241099472124 7.8262817881089255 10.10518205596921 0.4631017020941766 -0.13736247194327955 1.1035964096909574
P 2.464552715481099 8.542300752086637 5.984721779686761 0.0068003107512850615 -0.3388482567290293 -0.9403568128705998
P 6.94653436723874 3.956365242879163 1.5822754641226926 -0.275020620750107 -0.026318326179554676 0.09430035064648276
Ni 5.165225960286868 2.7935483454842838 0.5361783380259058 0.8805249283146319 -0.06519829107420384 -0.2392691741821105
Ni 1.5819450926993648 1.1802315444765927 7.044901779689181 -0.2013279190516468 0.6270064433023589 -0.07151729131369618
Ni 6.710612965895255 0.8582397886479564 9.14614639862756 0.5159787525988662 -0.5695777688712449 0.3947892908710233
Ni 2.8387503972130146 1.3817762152502502 9.29335175871771 -0.19114480787105792 0.6071451856020577 0.8182792921108488
Ni 6.289927951828787 2.1098424220895846 2.6247041097297608 0.6644861854153717 -0.9339668501838561 -0.09768777906147692
Ni 4.298394704378016 6.990958009586479 10.399805481038504 -0.4765040915430116 -0.8204955830358772 -0.08510042931476956
Ni 7.8654104364115485 7.346971686127562 -0.042970913212284495 -0.2482353822364628 -0.6263001612639537 0.5359374551089802
Ni 7.867854279816986 3.6132677312994144 8.137511581681762 -0.67747128482113 0.07903622539856066 -0.15601891070220228
Ni 3.0176306832192026 8.383994007045489 12.688408712345566 1.0573533195630178 -0.7239876832151144 -1.1497006602481876
Ni 8.783924454709478 5.097196600896972 10.152184405673282 0.46735687782610474 -0.44456867628699565 0.43544511671917263
Ni 8.616104822930865 2.128949657011361 5.9781243076192645 0.7527745255398197 1.3146263865217165 0.2642698099915061
Ni 3.938941544525577 2.537596479488079 11.357291560635671 -0.9519805131524574 -1.5934252433673333 0.7164378958923145
Ni 1.1002092498563067 3.5853174037587014 12.71948715944524 -0.8867490548474728 -0.43308638667900895 -0.6708424666507027
Ni 3.201154271695723 8.385116364757614 8.116713569174298 0.6345516026394684 -0.9186093938911791 -0.7050417382402309
Ni 5.578072572912191 7.836654545674229 3.803793383696108 -0.2234293789363765 -0.3412134145270962 -0.582780383604448
Ni 3.196348046331695 8.472044779816231 3.389625285377474 -0.7768364515850298 0.07786894456333687 1.5926821945537215
Ni 3.3219344435555906 4.4881093628149795 9.297643871839409 0.5374996573897776 -1.2618565510188529 0.4114389836125624
Ni 6.775908841179809 5.964570933118144 11.373467088598108 1.0240431354466621 0.7180440640371698 0.26814497667619624
Ni 0.34467152775828797 9.067292623205947 0.24642811773249398 0.9323781655404975 -0.05139403820125988 1.3194796008489598
Ni 4.601078287049318 0.5505381808508218 1.6714703176580556 -0.20232113620285158 -1.1852875562138618 0.17644401132577356
Ni 6.080490571982752 5.4999419941131515 0.44560316553006374 -1.7531020625370968 1.9051825574168415 -0.26739035789835885
Ni 8.155539904996397 9.015030579417063 10.974175660728282 -0.7660105646141195 -0.05939505412886544 -0.3758729135824946
Ni -0.02410444212230328 4.8929093947461 5.566870718843412 0.3011826238574555 -0.7810738867051451 1.7263301937598916
Ni 7.9887430669393185 8.94560732415888 2.524116420289121 -0.12649416177020795 0.7638433817594716 0.80822833563275
P 8.449769599739257 1.7744927992322617 3.8518683091170094 0.9334377171532635 -0.6027987357079038 -1.818136317229611
P 1.7427318862334398 3.2520586247038086 1.5176149881235523 0.363290963152426 -0.7009323440575477 0.6689231381408027
P 4.698406613488854 1.0145932692191295 8.135630727386763 0.4804137110100629 0.5299457563019195 0.9008456421498549
P 8.448158473346043 1.5777905589101202 12.380842873626511 -0.39488673568083604 0.8593909745494942 0.8363137810150566
P 6.335256721363725 7.835233495990326 1.5580723631369846 -0.45499372827506157 -1.237054404373508 0.02154018806462097
P 1.7745018505041337 3.329419845393729 6.19379258302198 -0.14107848734228606 -0.3960265057122341 -1.173014909494096
P 7.023135281091412 3.833593791207456 5.8385355928093965 -0.2765825659205882 -0.15581065134613808 1.518353401933159
P 2.4465768895433224 8.276492051021833 10.403488443563218 0.16513167163674786 1.1797522282179296 -0.06002600284464501
