# total energy = -381165.2602381164 ev
CRYSTAL
PRIMVEC
9.30912229194170 0.00000000000000 0.00000000000000
0.00000000000000 9.30912229194170 0.00000000000000
0.00000000000000 0.00000000000000 13.62484145476328
PRIMCOORD
 96 1
Ni 8.0855407153906 7.840831813211625 1.998737480264087 1.3676155371242382 1.8600879790710483 -1.0430263614173843
Ni 0.49367300423568455 3.3228074809854875 9.838947444095199 0.05721810108220468 -0.3452467040562054 0.481493574337803
Ni 7.746558330031099 5.606707586002786 1.4375845091202366 -1.8331495028089912 -0.01214486289265005 -0.5919790193845805
Ni 1.184799943204804 9.732966808505488 10.000361111213998 -0.939639217978285 -0.8033339836549261 -1.173688795632669
Ni 4.54305656252854 2.5377133289648675 0.6376190339653331 -0.30927285706475766 0.6779636510765163 -0.7649466421259794
Ni 1.4416665593201636 4.635123783685389 4.579105208353392 -2.0670139610357623 0.5112204119782744 3.3252863942477826
Ni 6.084228331853309 7.44508239907412 11.771277368358833 0.8541808911034643 -0.5803314078433232 -1.0111374831285878
Ni 6.865757089970686 3.4241186607478715 1.346087937170357 -0.5464890053725814 -0.8563398464279961 0.1542142533932957
Ni 2.8502484974076236 1.63730707699785 10.929521380644038 0.9544942807132465 1.2975025823572366 0.40670815379579633
Ni 2.851319046490843 6.023607326375716 6.096858018298556 -0.619868289595681 -1.2075268272280364 0.7682993606482962
Ni 3.7625704261269943 8.829693346819933 10.400699922725652 -0.293231744441495 -0.9104068034757289 0.011335479617477252
Ni 2.359992872028024 8.8619122196636 8.12516034059217 1.3455027643855988 0.3411527364924899 0.3147390223856515
Ni 5.727949596957972 6.3902191872047345 9.338916309217439 -1.0674780667018453 -0.925359053910187 -0.9986601765971834
Ni 8.427827839224385 2.2273471860559386 8.120296324105372 0.647832893129407 -0.833657574339132 -0.2636586587700685
Ni 9.258071235189465 2.1337811961825834 0.3494728354628023 -0.763724339683104 0.5659075191085092 -0.6161245062825325
Ni 3.8071704318461506 4.020367954488631 4.665881124302397 -2.0557594711678657 -1.548744612630507 -0.16367848412998906
Ni 0.12739999546431172 0.4862936628594426 2.9840177944609665 -0.7455615527311482 0.5216866016169209 -0.626606893871095
Ni 7.218982432698233 7.27864459856216 5.371430686703095 -0.05809253326735802 1.940744256571535 -0.7799413157625987
Ni 0.6404881055083604 -0.21889936015093042 0.2936264788963668 0.006134652142828144 0.9271408284009581 0.5196621149877244
Ni 4.02911852960364 0.46986399262489037 6.766627968513577 -0.3331301232983295 1.391054999094101 -1.6870036282461272
Ni 7.723555488425581 6.419831505758823 10.262189489602019 2.7764743971689794 1.094865971796495 -0.6675643101200632
Ni 6.59360489477145 6.135298177684094 7.1051774796785585 -0.7292792706313569 -1.0778349844561372 1.6076064199637217
Ni 1.6001543692489135 5.2150355675039775 8.810094851299054 -1.0122643976441792 0.30986626767438247 -1.8489959829229448
Ni 2.0318090687253427 8.152799125184151 5.765665506615906 0.5528650841022542 0.2986616572078147 0.14159219375391097
P 7.865035531614841 1.5570531322462637 1.919194752468657 -0.40161968352929545 -0.5308109325156922 0.593103619907327
Ni 9.049090745022623 3.4421783583256556 2.5854775054091212 -0.2895393831915723 -0.3085251802654558 0.8124464874791555
P 4.920969698027368 5.324454992931439 10.914519729795275 0.16388442949320806 -0.7425729024164694 0.07729507433773784
Ni 0.3552752114938501 -0.20748358327482902 7.343789837556662 -0.9568599527319457 0.04518379562548992 1.4046180824905163
P 7.5739113448364686 7.370628037616844 13.471889270840293 -1.6032833671083355 0.19741778536396323 2.2939852916871266
P 2.066196967102835 1.8652595587438292 8.520608139161883 -0.653753629489216 0.33252051473878863 0.04676605251094527
P 6.111774025220662 9.206545242358004 5.883846678105331 -2.1664531755707075 -3.165435768504316 0.5099217477715089
Ni 1.5284741262855437 8.087914541618607 2.2574864009414197 -0.342862520094745 -0.9522913595246567 -0.4372590299994599
Ni 6.687757359359959 2.608881570192785 12.470450181872529 -0.5943161521581893 0.7125352184037986 0.9493297057931716
Ni 0.3247152242730513 5.920527413345405 2.582234207143091 1.3852247655655694 0.766087697708958 1.512110763457557
Ni 4.938238120195815 5.664945456129908 5.140053378803061 2.640959262847084 2.701343677472412 0.28301598025075775
Ni 4.5531941968905025 8.847064169335473 12.663786691740677 -1.2650483184832728 0.9248818571634523 0.6655197688862087
Ni 1.8466878594305924 3.265193322063371 12.263161159257171 -2.25634639828843 0.21102560595538497 1.0713668602332902
Ni 6.75175757629154 4.187652885144704 6.006375209784873 -0.058444517290138054 -1.6029267550998652 -0.8390849160022904
Ni 9.375775779608798 4.0464893521191785 6.732184215401308 -0.28525104022886355 -0.35490119642683393 -0.17949899610201345
Ni 4.355738400332575 8.665135989045455 4.657134272836374 1.039572341430513 -0.7187022664464591 -0.4745279416532473
Ni 2.385183357412294 0.13766330297952153 3.7578674574588 0.5615250737700975 0.7252387820133962 0.24558663175970602
Ni 2.093640260123096 7.827072930211643 11.795829247942155 -0.4316954198687533 0.6548846577698657 0.5284051512876771
Ni 9.168126493954132 8.917422516909129 5.186596198380198 -0.9246039209117173 1.335609673641603 -0.957996123218918
Ni 7.091801201611797 0.23293193135131793 3.924036224331586 0.5211155596047992 -0.9707356822727733 -1.6842057537860153
Ni 6.369999773215586 6.841441662097917 2.933728053092562 -0.8348096856657042 -0.08784970992513258 1.4261670123058858
Ni 3.7468659365322923 6.203934337602138 12.494074872858558 -1.631610496187803 -0.8747561441516548 -1.7032383449374342
Ni 1.2799205565294423 1.613345395778666 6.4417163217565605 -0.33496769072770055 -0.07477333635714865 -1.0805207588184165
Ni 4.162201744331476 1.283206676758802 8.885699820292729 -2.1233918256048594 -0.5986955121728076 0.164398135904833
Ni 4.791423949835385 2.8294705360707093 6.691623437918749 0.3276822128098808 -0.0485866506594518 0.2838947833112852
Ni -0.0010882364158984355 1.3425244050916065 11.648040412459872 -0.2180406038206374 1.7101073041431258 0.7830459228298514
Ni 1.0743472051839749 5.727512068202222 11.280319835145539 -0.22418451193484618 -0.23088197855967982 0.010636653778239746
Ni 3.5839376751887984 0.14994948280589238 1.1790599382942568 -0.3674654062450897 -1.1772083787501533 0.5345071504203568
Ni 0.16754372426053776 4.406072825488801 0.640603538626899 2.318123322385911 0.23559969575032327 -1.9637759415800182
Ni 8.900451986659489 2.6062284702908944 4.7121511865913766 -1.9051776723208351 0.33114703143002966 1.5328515955493343
Ni 3.0055153509642536 6.566329165955518 1.115356682369239 0.23473349109528605 -0.2532775726460606 0.16369493919022132
Ni 4.390386954139025 7.5860038949156126 6.939759028076272 1.758303147122062 -0.8216525794584558 -0.7276841582300952
P 0.41367226761508596 6.980929553080142 4.769335264055713 0.5846914845842318 -1.5084374283710278 -1.0385063620598438
Ni 2.12350392498368 4.254799585468702 2.660999623212879 1.2921963396529745 -1.8745424639334813 -4.418334338998932
P 3.597165938208402 1.8046478623886992 4.88179411796727 -0.49127610764586355 -0.44121570065436266 0.6812803741545751
Ni 4.217367604045883 2.592143768004715 2.9101433913331203 -0.9251237979709294 -0.7581327045279395 -1.3550672681455822
P 2.795734276265611 4.4335068093866 0.2637525740010745 0.3195665256812819 -0.1338112642569115 0.5405021916615272
P 8.702381788019018 3.608439285510823 12.047656836068414 1.051891268007182 -1.265844332022007 -0.2655749019561749
P 2.2365445990491604 0.6045735110469732 12.7954977418175 0.4159448419027159 0.19838169193912933 0.294755380174873
Ni 0.8472157880392122 7.420915917160756 9.454959175277164 -0.5688501466766009 -0.13242929630772032 0.03976056772738959
Ni 7.011202819329088 4.272254190086406 10.64401245653521 -0.1776362318616618 -0.3253533075663881 0.7588179035204221
Ni 0.3389414252206645 6.519448425232981 6.958833420002499 -0.12843894420140461 0.21879830792226837 -0.05532731181739504
Ni 0.7966197765417821 6.787597697773224 13.964236656037277 -0.8996829893003214 -0.5676574119200805 -0.7935069702621753
Ni 5.687194258815942 8.59240381524379 9.150035145359974 0.5355399625602455 -0.3168277865938801 0.8183793080238227
Ni 7.498619162357541 0.711153654123288 13.48195801769603 -0.9688847451069638 -1.3325135512147825 0.5910948170074143
Ni 8.605538987038766 8.491213654073423 12.113710645415283 0.7890350505337508 -1.3713246105447092 -2.277371594389846
Ni 2.8659622961247884 4.415968422666731 10.405550906441004 1.0563549602054905 0.06985353045802808 -0.5787658631284162
Ni 1.9100085104223903 1.772671026729066 1.343015926757641 1.051279602565112 0.3778205242271687 0.5139133854294052
Ni 2.838705185553782 6.210199377019585 3.441934459317131 0.9124827121681511 1.7263286510979945 1.5045221524770218
Ni 8.32426385182601 5.637604563456738 12.56233587514135 -0.3596878191821999 0.13351481606241522 -0.7239581155287597
Ni 5.000702331921038 3.022783773132702 9.759024904103287 -0.2655327358643298 0.8832094171253305 2.237004246316393
Ni 4.116931481795 3.6588947292590652 12.123861312548692 1.2781020663434375 -1.1585437124611142 0.9794033852501003
Ni 7.037715200103071 1.474965290369511 10.504343968577206 0.20756412976934577 -0.6780860355869935 -1.6889216712044461
Ni 1.5032091679215713 2.239840028400983 3.8774124153890215 2.6036327584824837 0.498482909806948 -0.1291277427383131
Ni 5.22751910072656 6.871016744162154 0.26871899083496514 1.886582682927467 1.7931714197541568 3.3896986990855815
Ni 6.111848498200364 1.0030858727314298 7.939413558267923 2.0712537101487234 1.413884852504423 -1.3219404036846265
Ni 5.906675439120795 4.843759836321109 13.197239438084294 0.5979578626758347 -0.33013016012974117 -0.5443773583462173
Ni 6.637283297366792 3.6010199149079907 8.453206368882404 0.9268742050031328 1.050084039595114 -1.9158243534014037
Ni 7.809692798573642 8.006189755517903 7.798641008385834 -1.0714288238194773 0.2742261498732697 1.147443745893211
Ni 5.780490284137875 2.050408695405968 4.461726483220257 -0.12989007482563436 0.9629025593815997 0.36457471496085603
Ni 4.254315511100637 4.752437344961283 8.173501682629118 -0.062004980947886756 0.048264748543658816 -0.43811006514584544
Ni 5.7997974041256715 0.7767801747491152 1.674234503983187 0.5743394519259464 0.19983822187999775 0.7336624873007171
Ni 8.24185019066306 5.347364743312328 4.617758546643327 0.8524909049955511 -0.9990610115800279 -0.46841540099760615
Ni 4.975455991801992 4.901429849978001 2.1059236472127285 -1.357304127895901 0.05101968558097666 -0.7700507961217642
P 8.640839179417611 5.130285316602871 8.520226465140908 -0.39647284922103326 -0.15301509087887197 0.5129983298143036
Ni 3.316253858771694 6.902947034209474 8.68188496218048 -0.5463370531757494 -0.881269005569508 2.0304155930864387
P 5.107245238507502 1.2959136289204904 11.527447247340342 -0.49876778803721844 0.6871000661601457 -0.37598681345253954
Ni 2.4920241559175667 3.4839111543262775 6.775592653445229 0.45345749413619324 1.1476795160531008 0.5862097210009711
P 4.435564125450873 7.637166831971027 2.6847071653888293 -1.3840119762043905 0.4249372752093133 -1.3141846709986076
P 7.897859497418587 8.740586426606248 10.052558291775027 0.00961695426447376 -0.19546271852012143 -0.9309792283104418
P 6.389306893203382 4.7039926716650005 3.591453860665243 0.855811741838668 -0.7246374009839713 0.9872097686683966
Ni 7.38235753191994 1.3221746633879794 6.000775772623514 3.6349017222536237 2.9828691892205725 1.3538843035810746
