# total energy = -340859.3772713494 ev
CRYSTAL
PRIMVEC
9.37606206764535 0.00000000000000 0.00000000000000

0.00000000000000 9.37606206764535 0.00000000000000

0.00000000000000 0.00000000000000 13.72281458288036

PRIMCOORD
 96 1
Ni 7.157573059347957 0.4891913359719435 12.239061950048049 0.6122172008083263 -0.8382997010968337 -0.42240859525018865
Ni 2.802851783945124 6.899375069717096 4.906646903219542 0.6799493140479773 -0.4507146412837334 0.36256154118556916
Ni 0.8068335573647216 7.7295409568514595 6.323788012361843 1.7405838754654281 -0.44888941514953656 1.6885653163062917
Ni 8.999369133540997 0.09956815059503123 8.085715041785054 0.3689283639438614 -1.586150564082791 2.245764766117842
Ni 4.141453373879718 6.400137283534916 13.424205536631334 -2.1549037801702116 -1.4456405476494651 -0.3336931948906511
Ni 2.49549510233828 3.8968319217238174 0.5891654700425726 -0.04701287841442871 1.2967451353659216 -0.1636831121156794
Ni 0.8105521034714687 3.0496766106221678 2.374142609775483 1.1607905995137622 -1.709261668313379 0.7979799184318644
Ni 7.223768055600186 7.286831447213854 2.9116516049806576 1.551723492753173 -1.4163466837813545 -0.29754502710486824
Ni 9.035626364491048 4.532388270301344 1.326616170145751 -0.8150913813011705 -0.07838882162254887 -1.0862167807619294
Ni 4.793830377312272 5.337960747355028 6.544973060462209 1.1377136630896407 -0.513093203520955 0.5656604360947097
Ni 1.0859073485756947 5.145976506099981 3.889292630436789 0.5571639685879243 0.04261346379515242 -0.09341537693836814
Ni 6.470382738481334 8.641906777717168 1.1774158364542362 -0.029888302919000142 3.2093651228974145 0.1404637365764226
Ni 3.0082906738718367 1.3953173877150087 8.614565243925224 2.6841805354295643 1.0452840471033094 -0.8429084035134387
Ni 6.49398228601205 5.324515474745157 9.347789215372522 0.27602592208616983 -1.8475831617358178 -1.6238341946764936
Ni 0.2614486702541826 6.101941014298956 10.71348293585539 2.56132088508815 -0.7268310662011804 -1.3118974176263276
Ni 9.306285140243611 8.1675811877166 11.874749443478912 0.8718739375078534 1.554755337600961 0.1757482708103296
Ni 2.701937230876747 8.729516699102554 7.817311208893491 -2.6278103841699516 -1.159610463162732 -0.33257862167023367
Ni 8.358796591904694 3.1103209782934735 5.30547363085158 3.332190063346151 0.018641269250271122 0.2778943427534762
Ni 8.200716190089882 6.879769724509814 8.621056291503894 -1.0364211973960409 -0.024828886118221753 -0.5120909875086859
Ni 1.501510663572338 0.19714482566542033 9.955023294094651 -1.7636050189509498 -0.6647970317875712 -0.741707983313013
Ni 3.6261825220330466 3.7470962149039733 5.179868156659886 1.056653979503148 2.2762760473328214 0.2182249519173016
Ni 7.582252402159354 3.9322171789272042 7.3699061675104005 -1.4726137338041996 0.38833299372271834 -0.2592934398228373
Ni 6.041906090644136 2.539065661486171 12.457159461000277 0.4517219995023252 0.1167576512087344 -1.4138974509099134
Ni 9.146995226457618 4.626833340733172 8.88021157704373 0.9762766666956605 -0.2919235671530327 0.24341224981620657
P 0.6714863549710351 7.6907990695265 8.948879978396715 2.1992882198228574 0.22636892118067467 -0.3511851810278274
P 1.9675665670722737 6.0954715316624055 1.0824363305002591 0.4840554215277083 -2.522289225106985 -0.809270146633703
P 6.9022816488726475 6.255642795256858 6.661507194870046 0.21233532590574397 -0.10490615118678707 -0.18303966226542023
P 7.225118208498249 1.3758058031256477 2.1789358160824897 -0.6112977743178505 -2.1227925014579636 -1.5628879940104246
P 5.066655023338811 3.280702773179522 7.085431764707178 -0.5642584135408604 0.8100216800877469 -1.1431556600408184
P 1.3877602819105757 3.1900175035263265 4.880257977305675 -0.8484681569894033 -0.7685199612995345 -1.3658363337366284
P 5.39135741926104 4.315266807381675 -0.031852357120123555 -3.470810318955932 -2.8782957387828554 0.01748967214433117
P 9.149592395574029 8.147197629380573 3.888661621478181 0.30386325601341213 1.7032172618915116 0.6328202217706586
Ni 8.753838203391263 6.341874435558806 13.546791918925972 0.6345418324474555 0.9382868177154485 -1.94657294743817
Ni 2.5839019889759953 5.040017631787454 11.066022859238366 -0.42719213268176104 1.5508295201839937 1.0062927534417767
Ni 7.168796205313101 3.231403440276658 0.7055505250679153 0.20197326594512957 -0.4690602336704567 0.1558733862632735
Ni 4.948319747460712 0.7137133244641178 10.78465005767597 -0.2447811051392752 1.2127909038404534 1.4356173590855081
Ni 0.8507941606831637 3.099885421518865 10.69871751374519 1.4643008430631297 -0.23865596607814385 -0.698185891660662
Ni 8.747321840445753 6.507624455919556 5.092261985699216 -1.6597319370143673 -1.189920169889867 0.36510153399860346
Ni 6.949883914591141 9.390407166642337 9.554097266227362 0.8682633373384595 -0.32516535992529805 1.2288836956372577
Ni 7.5456763851083695 3.09896656746324 3.1440476101658374 -0.11487251837087957 3.2678096401875525 -0.2454123109653709
Ni 0.9113560190106987 2.1686268361420753 8.346449256130677 0.0301055611361288 1.1893601836213388 -0.6674979756585021
Ni 6.676449824548116 5.686853382700877 13.365457946260571 1.5520934744980819 2.295413025272589 -1.4044723009412714
Ni 9.191737793329521 9.245087584926571 1.9927722339879774 -0.5007871324600923 -0.8094933183881028 -0.9985542471469383
Ni 6.768654016211632 1.2282922229505318 5.6656147275294115 -1.0569468281532184 0.6790496850518435 0.849479114752421
Ni 5.8003412346324605 5.799244235402784 4.397366417251844 0.6067484643842712 -0.3397175467078601 0.08694596716394057
Ni 4.334375221313976 7.667030752883526 6.665294186227875 1.5713731486633002 -1.6550288751117432 -0.9875589244776992
Ni 7.669721682617859 6.62138421364311 11.257139814777645 -3.256492158292205 2.905169423245248 -0.010197252247975986
Ni 8.244108604063722 8.950988654693758 6.020253013541459 1.1101707204743656 -0.5749904552463839 -2.2250010512079292
Ni 7.312465600153457 4.5563722363655375 11.312031030933317 0.5608565869481631 -3.392058200456694 0.6431041201951699
Ni 6.596312624411034 8.369185268370343 7.4651144493721056 -0.6512388334871623 -0.28885495553003804 -0.5502955236028652
Ni 3.7193149438139796 9.373605263910893 4.5688602130664355 0.47832777501531165 -1.0692711540465263 0.1069856594236351
Ni 4.97424455831587 5.58517936862734 11.318536142604678 0.6501373728928674 -0.19115869182812886 -0.1304634308306011
Ni 2.19203886243695 7.300614258048242 2.741049472642494 0.3873564887420619 0.7775640737796738 1.030053346196484
Ni -0.0224922346330697 6.742935478715901 1.8675652424224476 0.7865531646521615 1.024742475506532 1.8495541694192599
Ni 2.9051352420351475 2.14293642683172 3.8135152990330337 -0.31438858102476824 -1.4673257459323825 -2.823294442846312
Ni 8.12419814980455 2.444039275223233 9.344426959613877 -0.6362228196943043 -0.6211163030701691 0.5357055416038323
P 2.8829233516496617 1.7218106114395295 10.626577156710592 0.1300767369151437 1.2411774254029462 1.9332893429553866
P 4.615741459633117 0.27633879398621736 6.727321523013515 0.2577965435623366 2.3063034469328474 -0.07554132487142474
P 2.838537075125858 6.167217156495558 6.985736099671774 -1.4474516327162747 -0.19932374413742449 0.33109946602154594
P 8.308897191047137 5.306241530312352 3.270859783510175 -0.8393957623744898 -1.0946685110737082 -0.10186067949224392
P 6.06968736173413 2.855807780946907 10.217623344736905 0.23541534765365907 0.09808912826495364 0.4635066508420792
P 4.82381502292341 3.738367101375528 2.956498246138453 0.7785858301759688 -2.5464064298701627 1.8940041722025187
P 1.8589448912107902 7.0444696259498505 12.032946108459948 0.18003352844924478 -1.3219802557836264 -0.060483402097037765
P 6.011874564724039 7.276433394686414 9.683243141351753 -0.2977358029594356 1.0984187221447599 1.0746619860447943
Ni 5.011973830967281 1.71346591644456 0.6558761496933673 1.991552083252022 -0.1095765600792629 0.6321967292540467
Ni 3.871797836738909 5.4515048556573635 2.578640143098268 -1.245951706863138 1.4701315908122938 -0.2312031093445244
Ni 8.505916377484542 2.708894268726486 12.129485791096132 -0.8060511254757731 -1.5914156691364723 0.5935620476009842
Ni 4.013929557445359 3.399066177242998 11.799067747905436 -0.7164798048738436 -0.7640130745681165 0.3549215081418081
Ni 2.516928779595022 9.062094986930148 11.991063240434634 0.1728717205934829 2.5882981850079423 2.0254834458921436
Ni 3.887137073830785 8.410271171143327 1.1157044729509897 1.480031366424509 1.0542602824599907 0.5464293557792396
Ni 2.888080185635317 1.6157298483237055 0.9849787314146295 -2.4793957681775685 -1.2712750161192752 0.6378701254897402
Ni 1.7754698130757203 8.15651743480192 0.42074420967725196 -0.7888561017537253 -1.7689110045448955 -0.3504729854521512
Ni 1.303863280994861 0.37180960557810067 5.110472172911834 -0.37497457013794133 -0.4333005595723441 -0.5831747908293892
Ni 5.547975155436286 7.794188902907991 12.174853741289567 0.6866691492703142 0.8875296417672393 -0.557171424787092
Ni 0.5711812459191449 4.566498383101006 12.67187971449499 0.7180576908839247 0.11364815904547525 -0.1634350006606153
Ni 8.933549179760451 1.340758084146776 3.689323734959588 0.038204278983863235 -0.06897447028718443 1.393094398121633
Ni 0.6950690255905262 0.593157797153649 13.616187902674024 -1.2764786718074017 0.2731342023606716 -1.1890778764942296
Ni 5.479576784662913 1.6097385448385533 3.6004546084755225 -0.10917315399325714 0.16225383586832054 -0.7529167075446387
Ni 6.22784277204328 3.452190943357039 5.051025128331379 -2.88745709356715 0.9643570324399392 0.5625614854544118
Ni 6.299672781432561 8.494937009125994 4.460532007939045 -0.8647262707194786 1.615848862478172 1.8776846091068886
Ni 3.2079726618581987 7.7817093646627065 10.354755749295808 -0.0796275791256564 -1.908320845935507 -0.7074704022863816
Ni 4.70971772697534 8.819348747132668 8.96816091186599 0.14448828435478342 -0.3233164796420174 -1.5255933713250243
Ni 1.4657878681444354 4.085075114323818 6.738807198708838 0.11400965614995202 1.1324966376650754 1.3412905260764643
Ni 5.801700763592316 1.7130439936639157 8.217550909037598 -0.011471490974709276 -0.6535273724110229 0.23193124575980054
Ni 4.169244021031503 3.6436970054606896 9.265726172143344 0.3714256764444184 -1.1182884644854933 -0.1847175641884754
Ni 2.935710579539187 1.813649136693153 6.151909798013775 0.09271449421660162 -0.986355133977585 1.4254944117188935
Ni 4.147097763078562 5.900215044841914 9.100324941281258 -0.7674143869401816 1.6126617229994418 -1.3534803832744366
Ni 5.61852064436005 6.679393907950836 1.3356425048330063 -0.8207622064337026 -0.9936228712835921 1.7854018031110672
P 8.021155230709367 8.376798630545528 13.596989478548519 1.2466304780977175 0.05415874543059059 0.2641672229753709
P 4.806309915557558 7.430425833559871 3.424775338676937 -1.7237310655741476 0.30741446369978026 -0.7032589353081953
P 0.7616643796812779 2.6045199488568236 13.599061588204574 0.5240378754579168 2.0440218710159637 1.0490586836543931
P 8.799077701538147 0.5568639995626076 10.560391536520154 -0.4358246115457785 1.296835895307515 0.3811053656260275
P 8.664493710574337 1.74033770954072 6.918960725194614 -0.9752597953953719 1.293093397545947 -0.7224200816176785
P 2.0529637378747245 0.046216483785621404 2.443429831206746 0.3873770575673522 1.771313443338801 -0.019868971009785137
P 4.4604926284795186 0.17849958918564943 12.922156807123883 0.5572624418390015 0.1768952399305792 0.9039957577430624
P 2.020006880675491 4.377458225248677 9.188906222668306 -0.9758444642542484 -0.7074804295887106 -1.5427937943637107
