# total energy = -340891.53480492166 ev
CRYSTAL
PRIMVEC
9.07889592194046 0.00000000000000 0.00000000000000
0.00000000000000 9.07889592194046 0.00000000000000
0.00000000000000 0.00000000000000 13.28788189062609
PRIMCOORD
 96 1
Ni 6.3195652830242075 2.070378676109209 11.280893227542489 -0.16156555155204433 -0.44237012597378006 -0.06067752038571485
Ni 4.4900769539688685 0.5502555433727945 6.448170568258526 0.9760182708279515 -0.44106503400911135 0.3354533721148674
Ni 2.8769296372357944 1.5639124638301554 5.147047656477101 -0.07092850868976172 0.561628175006865 -1.4599675057950985
Ni 3.4928782561451803 4.3761186516200885 5.12093675163683 0.4735671204018747 0.9290411307474644 -1.31012207089346
Ni 4.882303418123743 4.300273554597964 2.765328216283584 1.0184612704835105 0.8648679385036655 -0.316995422519996
Ni 7.099306264320013 6.064257649153108 2.5728665161695536 0.3642556410585404 -0.4940930082693684 -0.3586568068145242
Ni 5.02683036323928 4.198880444286367 11.839011094834502 0.7875546093334823 0.44145404191741394 -1.02372251888245
Ni 5.630213790111484 7.852818315127799 12.47112922748538 -0.5955862771198646 -0.036674215492582 -0.5463954172175106
Ni 1.6990064360218256 6.333192705891122 0.5174117292732927 -0.2880062343764976 0.5957243453596257 -0.6492457143165334
Ni 2.735289781042095 1.6820016638501187 0.43554369265762294 -0.13624404206812019 -0.3923068907688018 0.371832939185166
Ni 0.7603548147083814 0.12495375327091231 4.8042467020407384 0.2790217714897001 -0.6345428608887201 0.019943533001462427
Ni 8.532573414989004 2.1267858568368196 1.2070800756557396 0.39662403008691693 1.0229218773580255 1.0082125961723087
Ni 7.0682745978582435 0.5752361256634786 4.767333726762722 -0.9217037165457869 1.5528912878090289 -1.00605544061999
Ni 0.8842826527334833 7.41493408308637 2.630335927726897 0.05877233294320201 0.20627189332048348 -0.42607164592407265
Ni 7.932458390669823 3.595242808326705 3.8297797439733348 0.2381335179157705 0.6301609297709405 -0.8736698530660115
Ni 7.515864169702957 3.659748364269031 12.658395075429699 -0.00903897027381669 0.26749243069386186 0.049396033934624606
Ni 8.1947113799661 8.848428206154876 6.518610090613787 -0.15525066507761004 0.24797852903065035 2.2776644430399164
Ni 6.737730152995722 0.7063608045324203 0.27912884114505776 0.417086668816643 -0.01580097158799859 -0.5208805607758578
Ni 1.714912661779877 6.505283179203832 9.265573516107768 0.43533250240070837 0.21158276401043563 -0.04654030965338437
Ni -0.163888598683814 4.926190801294075 1.2537474167753377 -0.02148259535380816 -1.3392097322880356 1.1509219342497985
Ni 6.4165188132012805 2.086321217451183 7.008453752241919 0.4009892490341481 -0.46504314209126363 0.4196775694722708
Ni 3.4988249330124885 4.390781068628795 0.6550632264627043 -0.672758452726493 -0.5498725771328336 -0.7379783410672516
Ni 6.091421705927131 5.382160194128903 4.694130588470958 -0.32101482809203424 1.7185749752945045 -0.5682865608636471
Ni 5.383476634046093 3.3463721117058673 9.092034050996551 0.4708016418415957 -0.900355589887314 0.3221677107495548
P -0.14257135092131124 5.380725728563965 12.329334122170412 1.032678185413841 1.2765840870370144 0.8815806232726559
P 4.006516796248927 6.023121171464905 12.553195184033425 0.2587517083867544 0.510109695412599 0.33800622044370815
P 2.3646438526331615 8.5403994233243 1.49321237716025 0.2801695119408981 0.2985369587044923 -1.68512260917333
P 6.301806962486109 7.927782759239803 5.826962544907565 0.5517733936999724 -0.4829398198660264 0.2823094411020364
P 4.668813179139392 1.0910472455753875 12.504880023293346 0.10144081834600593 0.7380135651805613 1.7856013207163828
P 4.039110032819363 6.235531021827561 8.280768419187227 -0.47043783074427364 -0.4283252178449397 -0.3456729929603466
P 4.948188966255123 1.0572374369435473 4.1681029869120545 -0.8742213546941072 -1.2629158455213025 -1.2774965715489548
P 0.31892164222812835 5.5682866406276545 3.5788254407249442 -0.7563475876030588 -0.7403339857836218 0.16144805213757354
Ni 1.5933916390792382 1.2006476778534683 2.6892016734860604 -0.06751125547809662 -0.2443185636805599 -0.8365832326263593
Ni 1.8145263084792724 6.806893182576108 4.749554524763867 0.5045329726557698 -1.4390914336770377 0.545244591442519
Ni 5.968330034221846 5.721783534972048 9.249189740421135 -0.19195110582243716 0.10799404608349142 -0.9520563606957152
Ni 8.514597200947371 2.3494003862816952 10.102324516824297 -0.03949420143988037 0.4773222165689328 -0.7391852168911592
Ni 2.4813984549439727 5.34437382905755 7.023044445972378 -0.866728902971804 0.9656135305548597 0.6674984898791343
Ni 0.4797924158879832 -0.15127801216672865 8.873899956718112 -0.036670358837840075 0.6118135376120044 1.0410815789861876
Ni 1.266778356176326 1.4247239095512243 11.32223216461106 0.18011888907419948 -0.9808257195189237 0.5578949332166779
Ni 3.9248612057992034 6.670446454883325 1.4199293445838572 0.9329412371328191 1.5330274590055664 0.15223810350353137
Ni 5.48662197128195 7.8552060647707025 8.022491986330467 0.7691568235525851 0.8838167116920264 0.7733328093071455
Ni 5.281175634136433 2.921915566819781 5.003259733494387 0.5852355300131599 0.00989206230273135 -0.34723082436576974
Ni 1.062475959924367 7.701772722698173 6.959422266608967 -0.6094432376076149 -1.8354694091914197 -0.08532102996600789
Ni 5.337909655119346 4.5380226036425375 6.821506573546518 -0.4009360271987095 0.9727164601482281 1.6831179200384756
Ni 8.160874334646318 7.020501447208205 9.266437827005124 -0.27354377909426436 0.8867223153745954 0.986156644813534
Ni 4.458564106020126 0.437031723708847 10.534127704337903 -0.10559906348875363 -1.6237241514611906 -0.5097435703224318
Ni 8.04387460214403 7.203386727841875 4.540601917990633 0.5450466164991 0.1548269472766301 0.2762557787087887
Ni 7.260256932264497 6.335308088654608 7.106067318156782 -0.576972004452787 -0.13294685937408718 -1.1658973246127082
Ni 2.466908536958899 5.182678691642654 2.7821368843021097 -1.5195818750236219 -0.0718996143537794 -0.24764942782600577
Ni 2.179679504819929 5.296518968343686 11.566569768468772 -0.2704391720270117 0.032879010116207884 0.05185529410839457
Ni 1.5144687963196823 3.2873956034157406 4.003878469076957 -0.9881610768380724 0.20182491329272337 -0.4385836623481544
Ni 3.6943661946431465 2.3784346956277274 2.78409066271714 -0.21914360707682906 -0.6774689708282849 0.19121371343578036
Ni 1.2229908408617813 3.4512152024901015 8.251190283971956 -1.2177456767425674 -0.15275180991515627 -0.7607688565992059
Ni 3.649543685186811 3.0678134252283926 7.470500558046176 -0.18949698785498978 -1.0186556458825036 -0.7094329253293911
Ni 4.452926111616159 6.848810445318644 6.083258870550954 -1.0605623134186186 -0.29346391505695907 -0.9453635220565719
Ni 0.8982341921869066 7.348694458011746 11.450871949650104 -0.3935019395181675 0.28239814416110076 0.5538765560859042
P 9.234780624610288 5.837775510020487 7.9029810311999364 1.058543740326693 -0.8126652883581811 0.16278965376713253
P 8.52682647383327 1.6684014776711455 7.912096242764482 0.6831531656972557 -0.1316556513664894 -0.25277929285340334
P 1.7924555123503778 3.4865956601265897 10.272887919833066 -1.293856758074533 -0.9272218181505386 0.6401023572543686
P 4.142791024918077 6.180322255369393 3.619990970880285 0.8144192949348104 0.5737681528035087 1.3627222135876789
P 7.046103933873562 4.101926914109294 10.323914038912962 -1.7467434673089208 -1.2173440704287743 0.1211084719782624
P 6.342071866160172 7.863958120496022 10.292314941452403 -0.7409878173175368 -0.115287237310795 -0.3906994370723658
P 2.7036135129657013 8.456964369262375 5.834668711815917 0.25012334328779506 0.6623619399835173 -0.31683729967557694
P 6.842155614564847 3.830894632399755 1.8204003541787355 0.5251084828142764 0.9504617625150856 -1.0033930632964785
Ni 5.228055013753808 2.82513453566634 0.6536641685920903 0.22502551977890278 -0.6602582633769533 -0.5044720375108473
Ni 1.7284856112709084 0.9285985597941002 7.154886357623789 -1.0065645190459245 1.9731455557203759 -0.7482380711220468
Ni 7.043870525462329 0.4948642911054155 8.982807669232873 -1.2171198702331103 0.2690651744976205 -0.02986490588023244
Ni 2.7342184713163813 1.612711529726004 9.220899900545515 -0.23140519805300147 0.0305156520903539 0.9732659048937947
Ni 6.421448653718758 1.868981526571049 2.645151778077676 0.07841556109542624 -0.5919903322384901 0.4585199962607651
Ni 4.091059475620487 6.822862960606023 10.508601480398784 0.03563111894004831 1.1544258336379989 0.14151840309318206
Ni 8.21714533193422 7.064788301801685 0.3452177565464048 -0.2999677776137479 0.11416443656026146 -0.7371779566531433
Ni 7.787423027379371 3.9317611667444767 8.003756776584853 0.18960908795282186 0.1560577343599377 0.3096004156075055
Ni 3.176941754915481 8.287007436505112 12.622345503159439 -0.7030254791411505 0.058691086083305366 -0.14745662295448797
Ni -0.04608538388724037 4.83490250220891 10.178809676013056 1.0313532959548302 0.3414962358748377 -0.24661430169327203
Ni 8.80781830443355 2.3432539737028137 5.754410363457612 0.39638337483102054 -0.003582832255251894 0.5946401111565114
Ni 3.165656687211567 2.8473869097148468 11.688699077200113 1.36486394252103 -0.40394987432436885 0.11635244535051574
Ni 1.0404687160673367 3.478134129072649 12.796801936764698 -0.6573750282918872 -0.2661634274697932 -0.19782247700154962
Ni 3.039396480809043 8.303340370374253 8.178225920644485 0.8908067698566143 0.017650108981595407 0.8068412254772362
Ni 5.768939320695403 8.03134572569077 3.4854907584857475 -0.6094332103052859 -0.39020424260350217 -0.05212063195463927
Ni 3.220856374773754 8.293280953627722 3.5019816651449514 0.6994837845364793 0.543733039893999 0.28920282578775997
Ni 3.4514421748896176 4.618270965215264 9.637554950115451 0.8689343952635551 -0.23639005286210255 -0.7490497683900648
Ni 6.957548382478565 6.044066184492202 11.358348920711576 1.0633018238369687 -0.3970644600584452 1.10757236361957
Ni 0.3626174606932688 3.268402553024277e-05 0.3794451943933534 1.4008640147647229 0.11134496483359535 -0.6331974026044191
Ni 4.635203106219127 0.34463489142444875 1.4294966851682378 -0.4599963236959755 -0.8163316814661747 0.2822629041348171
Ni 6.076604947686755 5.467011555963805 0.3093325122933943 -0.34036032249818154 0.6488356233623084 1.0908175127587343
Ni 8.135408031420669 8.915739140955216 11.005954296892488 0.21200313937730586 0.37029721926693004 1.2706366112043277
Ni 9.12347335988785 5.173763215789682 5.862799671011878 0.1822667886551377 -1.0641238055176319 -0.8125295341112652
Ni 8.094652867363653 8.715958034901607 2.3559816779780487 -1.3410578412403678 -0.036890702378762276 -0.10536277910823146
P 8.68698727782744 1.3581029708454126 3.45593895206882 -0.6842636251526152 1.674445589075458 0.5540909860895554
P 1.7149762140517413 3.4133652851468845 1.5755970029572173 0.15959017299322836 -0.9387879257215831 0.5700395389990119
P 4.809454356775223 1.234439328693347 8.572225493184375 0.8467123506405612 0.5569677934167182 -1.4076237020860596
P 8.399340616473362 1.6353089018217746 12.317640504147366 -0.015702498336921344 -0.486340360907143 0.29846625336755694
P 6.318648314530164 7.751742966175523 1.2536793250554832 -0.03950602851442229 -0.2283687252195228 0.7285449635684936
P 1.8858137997191242 3.40878044267667 6.147784400064437 -0.3496281209533527 -0.9654808616317371 -0.15269961652098218
P 7.123329023084742 3.9873784835217734 5.854680414336406 0.7841599818296365 -0.8317253903134256 0.5244176273948388
P 2.1956311250578837 8.758973844057799 10.322013825984216 0.3998451081273759 -0.783816739557605 0.15181798524697723
