# total energy = -381166.48280940234 ev
CRYSTAL
PRIMVEC
9.25834491059706 0.00000000000000 0.00000000000000
0.00000000000000 9.25834491059706 0.00000000000000
0.00000000000000 0.00000000000000 13.55052362450383
PRIMCOORD
 96 1
Ni 2.263841196152457 6.267621634962228 5.235637461619901 -1.8572687644546981 -0.8704045520511783 -2.020842861796339
Ni 3.460972945366634 2.5747641873735407 12.642624329659428 -2.6791704838094823 0.7016057159754885 -0.12413208929593461
Ni 8.738794203100658 8.436999939787864 1.926478224038388 -0.3357459636546218 -0.34838036458918065 0.9084908173999385
Ni 6.5323177109236 2.7265084575731517 0.539780940549406 -0.6766220494469573 0.5263490400895967 -0.2519179732943726
Ni 5.705519751092247 3.5088478459890986 11.895083355762837 -0.33830575396199797 0.44316048308555933 -0.5452859862034157
Ni 1.7003598189170241 2.255027251965146 5.645825647581629 0.9872064262342869 0.012592491953029927 0.15281043106723358
Ni 3.999873417331782 7.329498225949064 6.066487798941576 0.69717390545638 -1.0361748857131896 0.20077718875449937
Ni 1.267485910852178 2.6499974966866606 12.057269187154096 -1.469852111898662 -0.49274472177159007 0.21009640927289625
Ni 1.6673538199382805 7.226804666153208 7.320534296577052 0.772635783240121 0.05216665470122628 1.0542962779042488
Ni 3.5472792349823004 8.641331608079835 8.20759297061678 -1.0154193983333932 -1.004761918619547 -0.1964767616069326
Ni 6.822224259597208 3.056355505431697 7.796388218403196 2.7549020703148424 -3.0566675632589617 -0.2175621215223221
Ni 3.2270330906135047 8.823776549419282 12.839649312286877 0.438906850015528 -1.6894916847753032 2.3559805024430003
Ni 8.428352645805774 0.9414718177137451 8.592833620856734 -1.5388160406628852 1.6554320240874327 -1.0130089891196876
Ni 1.261060619606386 1.6048322179457253 9.924525226608685 0.7926795892648736 0.08695548024563733 -0.17859036824481503
Ni 1.0150664000088465 9.154947540574872 11.702963444175763 -0.8536700129053169 0.6298670526796055 0.9389326788295638
Ni 4.044813422673388 0.6249447504248267 2.874458658100536 -1.0298941949108003 -0.05150819518162097 -0.698271509395933
Ni 7.483075648406119 5.185589627488233 12.246339399985603 0.07447945926581367 -0.4543992892241723 0.6207818025488857
Ni 2.427973131606924 6.920251613646842 9.90539193138022 -0.3463093409927649 -0.16037435945742057 0.06202092178748673
Ni 8.774031463160435 2.4789032859917968 6.7137562701904 1.2913866992674856 0.6448303588576573 -0.6494470316940621
Ni 6.778830397826276 8.82521159285314 11.437237840279908 -0.5616364025369811 -0.6084212241010037 1.000655352650341
Ni 7.980156177205213 7.518099966537 13.21554088601386 -0.8174974196395017 -0.2517999596592696 0.1581614109665018
Ni 8.969160336786244 4.789841681809015 10.559015330454855 0.8357327117006058 -0.14104377744960872 0.3640185853470699
Ni 1.1626721901121049 0.866743088188659 7.60073254496199 1.7561940711988595 1.62095944423186 -1.3992858716443257
Ni 2.7351650098999754 2.768485792599695 8.218622436699073 0.5688794572526397 -0.6378503279953982 0.908763611445351
P 3.1901293285015067 8.118086997060844 4.133356528376927 -0.026614517263734806 0.32700806956099165 -1.4605097514518137
Ni 5.255156829823797 0.5934663783272868 5.068884488771078 -1.2023684229555485 0.39561975719211867 -0.6986283785147194
P 5.492050096547253 8.083951480024483 7.172766485440939 1.8294491711392686 1.4889340682307777 2.0021727961906612
Ni 7.105214824754092 0.9399812242114792 6.345465797490498 -0.10689515659235785 -0.8754747674852342 0.8216911460058752
P 8.08359966292457 0.6692940733723666 3.461684912076722 0.6083320068213072 -0.18188266584284157 -0.05830773460195764
P 5.885085347219242 3.3911279926890336 5.771290106252162 1.425699328640848 -0.5708049564101266 0.4441984374317705
P 8.684253294269304 3.3001740140166125 13.238929316482333 0.24061977467273396 -1.3137259861946342 -0.6835969381028937
Ni 8.911471590745135 4.881156735926084 4.404109413463655 1.335516085486532 -0.5112589785256937 0.860758287210666
Ni 6.739639824564839 0.28133980229070965 0.36778867041528873 -0.7203071490397337 -0.18678627379204604 0.5728345852456457
Ni 7.377697168637238 7.974665978777613 8.313720450474689 -2.4938271131115504 -0.8067918602965395 0.0074199466131549645
Ni 4.354579120802649 6.956479516593216 1.4443906587024584 -0.6445603930257222 0.011380473922799755 -0.2453367205324291
Ni 6.297266854802324 4.4202393016602235 2.3895667401445055 0.24476722118220423 0.13339140311067352 0.9016262290696213
Ni 6.7417322104748525 5.19437579664134 5.078303002869556 -0.46982102309588114 0.7113147157331363 -0.40185159703444345
Ni 7.115889696233053 5.3810147681455485 7.614703387166457 0.062341795462015216 0.880945046571186 0.5284555449096382
Ni 6.2749635023367425 1.6530126439444306 2.8304333772187062 -0.36323105644876796 -0.4336818541711628 -0.9817173780952577
Ni 3.502468846466979 5.79489981115979 7.907895722386363 -1.3945673831227337 -0.28900305107212804 -0.3987472470775068
Ni 5.237482649725501 6.61372633617468 9.002493155334118 0.5856911294933397 -0.978968611705527 -1.1470675935007149
Ni 1.6766954897754622 4.377891632844298 6.72378305753794 0.5707982715419073 0.20763869176102306 -0.7578856215141399
Ni 1.513026471557724 3.3978217759321283 1.3880480759857559 -0.16971620568363674 0.7093725044051008 -0.6759234807180359
Ni 3.5465663424377385 4.795637405612856 3.0927982019759135 -0.8836454762214845 -0.17714129450311428 0.7161651018469021
Ni 5.7044920748267085 8.51812155635217 2.7374499693804673 1.693379964086116 -0.3976437296006829 0.8421928655036528
Ni 0.003950535698241256 1.2625789881428555 0.6992438927542288 -0.19188734246403727 -0.47251991008428307 -1.1988588671403935
Ni 6.233782384957373 7.67905628974751 5.191734390888567 1.7397449245039007 0.15242785091683425 0.23973711495746453
Ni 0.9225162827041854 5.617852484800598 2.6298587452200226 1.1344797295333753 0.32539881609234284 -0.03496340344906237
Ni 2.5499795985190947 2.2000419425865316 3.3201081560646166 2.0832872442744894 2.678485799037632 -0.24785125942416672
Ni 9.14417082730383 6.283083070668962 8.857543584335207 0.1693462239387277 1.3944550259145854 0.49530091253454045
Ni 8.745126910899106 4.993182707214388 0.8415779813656228 -1.2787517841122944 1.2980250305196097 0.8801102093747164
Ni 8.51433489335573 2.6883918523009247 10.23175598994962 -0.23876138130775654 -0.9499092324457253 -0.47864067827004014
Ni 8.333260187037 2.816906935561499 2.1146679682856364 -2.651226706211363 1.1597379898795317 -3.5148204059882953
Ni 1.521062714787331 0.31593731072932635 3.377860784684394 -0.6044912929189782 -2.1547999076024955 -0.31993753586745544
Ni 1.6662891102938047 4.595342375625156 9.112496178297917 -0.5885903054180057 0.24919003284024827 0.6464851208522607
Ni 3.0390886925017226 0.09175760299538187 10.760768549738248 1.1989915360635157 0.04053652666146566 -3.053404062016342
P 2.4190943790064714 6.650241247807825 12.141512717562902 0.778810287481949 0.9450333924106628 -1.3465422613937068
Ni 4.763909058207483 6.520346671181801 3.894907859738062 0.1256456977269836 0.5827325610856481 -0.49973966503218453
P 3.6452232639293225 2.219049324326605 10.418007962643925 -0.5619323365108452 0.8696080242918119 -1.0276429369827786
Ni 4.8982383819613675 1.2215830376581773 11.880420915206697 3.056772978488574 -2.8282440735421033 -0.6807880078991888
P 2.72535116448133 5.493818440391556 1.245077939091097 -1.1724713782857998 0.12199370279669314 -0.9231905855039584
P 4.5174982130968875 1.6473280202774043 0.6144337516476688 1.1787165878645636 -2.036135269179035 1.212472601269086
P 9.09976780595683 4.225758512165835 7.909996440806638 -0.6608053941296749 0.27575827024707994 0.6818658143443999
Ni 0.4043989429992011 2.600604227527727 3.5718499560733776 3.813390789033885 -0.7592089683112537 2.225091039818574
Ni 2.590910740590631 9.043347453144358 5.953354529623018 -1.3079505171634378 2.1183807455435133 -0.6313289819371126
Ni 6.755471594060954 4.169541842937522 9.780035795343084 -1.0800579602493852 0.931517360202099 0.9115314039984753
Ni 5.312493758764992 8.77404072150517 9.689925251875982 -0.07338648331195102 -0.03285766995996922 0.2724837132608662
Ni 4.7941375537658555 3.0450418081660517 4.009952051409836 0.23348882005490756 -0.5081435728251635 -0.6937142290425536
Ni 4.166319938969892 4.904839581757115 5.679526022415466 0.03208711034253184 -0.06064769558904394 -0.45529120491082237
Ni 6.679627233995353 6.823048252278586 1.533309653202221 0.632865216075981 -0.18010166268301886 -0.47910039151527817
Ni 6.2294679963110635 1.5679840059021346 9.680019748844463 0.8590713864265463 1.3001796149687672 1.1772631432474887
Ni 8.643099951924137 8.726110270814297 10.112010410821634 0.6983432431741329 -1.0581938131864421 0.8763767104742133
Ni 7.160987093435145 6.53264175298931 10.337464066791053 0.20075996236331875 0.5844030068095354 0.10515426264185115
Ni 7.748142058156875 2.7998345478709505 4.35021936626714 -3.9235499610894946 -0.10493571887314186 2.6594542363274782
Ni 2.0637498497489184 7.757159685928347 1.7673948639676824 -0.1940514399948916 0.06983527562558295 -0.4208494782931849
Ni 2.3157157017002565 1.2036959156309868 0.9916233453064404 0.9782535879163733 -0.7684916791647604 0.2470938124328519
Ni 3.8130029872092104 4.6243580280233 10.152594364965623 0.8279235000688323 -0.5796454375198922 -0.2930484247860953
Ni 4.60422112822561 6.789616369442051 11.218546479304615 -0.06217750197000904 0.48142158344928704 1.85368104710344
Ni 7.515942772213846 1.7616037693362085 12.048312664457875 0.21581042893853802 0.14208635978151013 0.3007740755651272
Ni 4.10761277500798 3.6915335042916446 1.1064675567319473 0.16741738234713102 -0.6013818007557191 1.1284839169612564
Ni 0.07426858979177808 6.868506724925326 11.55682139837504 1.4160525495797032 -0.06522811587087476 -0.27895363725592603
Ni 4.040619392508627 2.5537292281365964 6.332592994971551 -1.5506950514886584 -0.5815549958377791 -1.8760866684921496
Ni 1.2412199868402014 4.953575508439895 12.68051225381671 -1.1125369067136968 -0.121545559515681 0.43248012055357776
Ni 9.300470203112852 7.354477240042935 4.451251979017615 -0.49766298500881384 0.4357611052976947 -0.20670615264442463
Ni 5.657413391851417 5.137927668794664 0.20760078981774902 0.3432659261807508 0.848399765645313 -1.0428116743034168
Ni 9.014739167914534 8.437592473850875 7.014048829987249 0.03338243211518767 -0.4822628484036598 -1.3405947855610203
Ni 0.17075165193968475 0.5700918353759165 5.232385930949119 -1.48760300812418 -0.05292333036159272 -0.34614041951506835
Ni 5.0856365377338095 4.1386097131793225 7.704001047965862 -2.987150847315062 1.596681802631418 1.7023145475715846
P 0.673575131977632 8.290495892708018 0.062299401718925264 0.5866375525670091 0.7915981832752367 0.7870499017829219
Ni 4.711729027283442 1.2996679171495453 7.942571926755224 1.1671229694896932 -0.6690570926155058 0.5153891986439834
P 7.799609196536353 6.119377019072285 3.0748712690663647 1.1265579035831372 -0.06252177268330524 1.085900020852459
Ni 9.13240347114619 6.018257377881304 6.572924810929427 -0.6091473036337509 0.09195447612212551 -1.9194046145534946
P 1.430284644664867 8.7540704719127 9.085192393841197 -0.07260229684775883 -1.2035616719327014 1.3849509430788922
P 5.615056464690757 7.684185412730462 13.280651121194202 -0.33869167654650706 -0.17503041880769854 -1.1904639582084788
P 1.867685883304918 4.069570236493629 4.311072307225955 0.1483454533173445 1.0154193983333932 0.979348877863081
Ni 3.5358359208903716 4.7330417368624245 12.56258223609117 0.7285999851761452 2.295543894423498 -0.12882538100654586
