# total energy = -340862.1448260982 ev
CRYSTAL
PRIMVEC
9.35463106245593 0.00000000000000 0.00000000000000

0.00000000000000 9.35463106245593 0.00000000000000

0.00000000000000 0.00000000000000 13.69144814050613

PRIMCOORD
 96 1
Ni 1.3116596099946192 2.0643893620027995 2.476632054946678 1.1312583943826002 2.4371625705399707 1.665734948675338
Ni 7.183411923512163 7.208706846205352 4.830055198170086 -0.9905753427065197 -0.38636969934876036 -0.5937901044513902
Ni 4.49634089207541 8.967386861457632 9.915086771847362 -0.35352154247048795 1.0142058376412664 -1.2829431964858227
Ni 9.707768500316769 7.763174545122023 5.340281104414729 0.4347761156766061 2.1316404387668966 0.9876280871527378
Ni 5.009189836901106 7.178697189400712 6.906090140520797 -0.1379815935845172 1.0004463219633288 -0.32212940131245166
Ni 0.6985477282511727 2.186673100703007 7.801893363549208 -0.5120794175444601 0.5229837231617896 1.175270281187176
Ni 5.231062979074571 4.214177151988631 1.7720159774532447 0.36978351285530514 -0.34618592804102316 1.022037417870543
Ni 4.805361778261355 0.8566905746288216 4.089868135639357 -1.1571162359859686 0.5501001197626074 -0.4172041682311138
Ni 7.2440954159347655 2.778437714108489 9.08789041384552 0.27566391076106067 1.7293949487281441 -1.3662240560933503
Ni 0.08355463017873221 3.6841624589595323 1.4334129411072887 -0.8809841273392377 1.1499382301802905 -0.31958323785183024
Ni 1.7363505106410957 0.09697478406025903 6.833839646652142 -2.680798763441525 0.20089494527928628 0.4921523396032299
Ni 4.160883818193108 3.13323081062645 10.82117354092482 -0.20784823666866786 -0.04847840721636167 -0.35619394709632846
Ni 2.5145716325971086 0.21364855044570913 1.5013490790787178 -0.8549949023643275 1.7859803013223563 -1.9019059435480987
Ni 9.363518073131361 5.372851123771561 13.416687990677014 -1.8424723228718138 0.45356162381422527 0.8525950346735833
Ni 6.26816416412648 0.9366043823548212 6.659725638471948 -0.3527995767027989 1.7091971336240308 0.1836901513652256
Ni 3.5597084458270687 2.938860284103124 3.2426556733155425 1.42152848509261 -0.92698861909381 0.39967438687746654
Ni 2.3905105139739327 1.3984705872848522 9.700965812527388 1.3856533684625554 -1.3896113246690391 -0.8179226801023785
Ni 6.131652031411354 7.584014648886835 10.899022781550823 -0.45286356930593613 -0.9365616074942258 -0.6735295265645627
Ni 2.108318709993633 5.953371470506476 13.058465486370842 -0.041238180714180596 0.20259367313794788 0.4478506894723771
Ni 6.784165619657651 2.6751438766905196 4.746784013315912 -1.0499973934185787 0.3798725216601909 0.9653687615339053
Ni 1.7135813383647565 3.869271900621077 12.20726795116711 0.29520712300031093 -2.0144151038931244 1.2271158051035576
Ni 4.172923228513423 6.746859350537668 12.142206491355301 1.3134827598355767 0.22932826091931474 -1.6697106454936341
Ni 8.58644757080969 4.502786232953963 7.920694373063516 -1.141257671687157 -0.44064311598034434 0.05018999059082969
Ni 8.95099754764163 1.8230398777260732 12.57896299528938 1.685578465763826 -2.442210160266207 -1.1577286727589868
P 9.688965691658003 1.9119088738744803 10.124388225186737 -1.6031733238930326 -0.6467090639376089 0.07974379298854653
P 8.66736513046061 8.4148836350874 3.108424199680519 0.4733637461418171 -0.8787673221935768 0.9033388408853539
P 9.66829195676453 3.6591762390950695 3.827718628948317 -0.9178946272123416 0.06666381987613682 0.14168809590182696
P 5.82018958648912 1.758904526400444 2.31827685844139 -0.19495903941082554 0.4962923299135324 0.07498879480206441
P 2.7609726177075338 8.701593725924507 12.099858076032792 1.235981997244936 -1.577683407152044 -0.8449783986685899
P 5.425517697278459 4.321081877039578 4.2879421606442785 -1.4106123524007383 0.08268462078442534 -0.17348287181492056
P 1.2309104337048244 2.090376527402828 0.3299874210351474 0.58963468752212 0.08545935531608508 -0.1921655358260884
P 8.97304641331761 6.426987092190444 6.9416873185253785 -0.1552403806649649 0.39156281351392563 0.15190540275446096
Ni 3.778653588443223 8.203768318763478 2.595870861199906 1.008536555170631 -0.765387843428456 1.6039693374317665
Ni 4.701525372235322 0.48908724618184696 11.957795840642417 0.4765969083671341 0.13018163792412418 -0.31004830177820153
Ni 7.527681059959918 8.473714910537645 6.783222672835361 1.141413223428415 -1.48684324714002 0.7251559924916027
Ni 1.7777166896903858 7.199876074377552 7.208356047536346 0.5546023785083352 -1.5663404713353992 0.6189241805148566
Ni 8.87784433186473 3.2364685202573784 5.95769705196111 -0.7454039441073614 -0.16237236372405583 -1.0793287953928443
Ni 1.259732052350429 5.374413347177539 5.479508886559527 -0.04578851908902437 0.18863541118564287 -0.8742223831353717
Ni 0.3089376299685005 8.155591968219868 9.197052411398635 0.31646191861402917 0.010099550327847123 -2.453823319025103
Ni 9.239260507253542 0.6392833333775936 1.766265685670884 -0.6498332113888874 -2.7589299605273134 -1.7140596039226546
Ni 7.131774359434353 0.2849411300821959 4.225536480622632 0.7593205541884536 -0.2558682161913722 0.02673278800915396
Ni 7.979070077975611 2.188188550953117 2.8134689369270736 0.412835863960089 1.433989593674098 2.4355836560886246
Ni 2.463270835241544 1.3704160483954761 12.40476666635486 0.19503951493977376 1.6723413982482616 0.31991748126279745
Ni 0.9633399182487314 9.211103067421258 10.944258971516598 -0.25606567691415905 0.9639585114499399 1.8344821055774858
Ni 6.671947464100147 5.686446424601356 6.967564099277561 0.15015808104605108 -1.2123499596482927 -0.5124468281862078
Ni 3.865530048151671 6.890546485362882 8.950948903559528 1.3811997035665762 -1.9232517562137263 0.0450477842682579
Ni 3.7056874652897935 5.377247800423114 5.8262317427640955 0.328240399306196 -0.2558319636367981 -0.41151457404550423
Ni 5.7050902045301735 4.826680982705799 9.515761889090992 -1.5517849421187273 0.17618381568585142 -0.6275887981683902
Ni 7.78766496953429 5.052305331979843 10.376790206194972 0.2873377475545632 -1.3783306095488972 0.7326181051966028
Ni 7.9243641948728865 3.6835450533020797 12.501278396172028 0.018912006413154527 2.8131159596514133 0.3453919713848181
Ni 0.8349943785480848 6.7144174896279125 1.7941134872113256 1.7113362914542203 -0.2264977334490551 0.12463139752985632
Ni 3.9152031396830433 0.25511014673296906 6.724062114367808 2.4150953063272858 0.6655907313334603 1.0129696512413202
Ni 6.131418165632016 2.5023825481780166 12.452673603520672 -0.7478408356836281 -2.0588728199858672 1.143966843088204
Ni 3.1388342346993867 8.091671773411228 5.308516518801936 -0.37941306552526916 -1.2880933732281947 -2.3461092660758753
Ni 8.63706548008959 7.656962062777917 0.4686174422479581 -1.9847597429205368 -1.2644471945641644 0.7268398079519289
Ni 7.156133819010189 5.1671334296347595 3.2322364851144796 0.12705697625221343 -0.6440682838806521 -0.48596009474958884
P 7.422768871348931 4.561439770411912 0.9939856899731715 0.11608427929079362 -0.0779375930177432 -0.004137419207141261
P 5.399932781018891 8.55537148605127 5.2553663108633675 0.8410929475712547 -0.6840782486146864 0.4617698706566305
P 5.987272653879299 5.6352485281887 11.650368048145324 0.39205003756298934 -1.901576328122822 -1.0431168642486617
P 3.320070859055096 4.802948283418588 8.918705360830652 0.24241569023089218 -0.6571161182035458 0.08330914174230168
P 5.298023429014602 8.103084423442919 0.8495324108548467 -0.23877269416166616 -0.49058396667484544 0.5804879880258454
P 6.0458139357631655 1.9865120574832744 10.495303093069136 -1.8722662663047949 -1.1303852477490275 -0.4123069880398124
P 2.5701662056613173 8.416866816896185 8.923045909695164 -2.333204127978433 2.1235898005482783 -0.5088089743233044
P 2.951199042620992 5.220782239414877 1.2064031709564458 0.9534707245447387 -0.5315794352506006 -0.4626075360665775
Ni 3.590765821323143 2.6948073114172515 0.9296379885199034 -2.1734674021050115 0.3463332522521648 -0.3530160635889791
Ni 3.2665904326361015 7.616886822830572 0.20959986607381118 0.9007489686709906 0.8377913940018474 3.403505008841055
Ni 4.822396561628328 0.8821810091135368 0.4615219545028458 0.45314227688861963 -0.47471537507370504 1.38351523907363
Ni 2.170237013731139 4.7188407945375 3.150073824054367 -0.8252734640404948 0.44356954559851997 -0.08633764415598034
Ni 5.857841976962526 5.818290596360898 0.06604182515879194 0.9896224918749472 2.0741325743584147 1.2241382105324723
Ni 7.483443009140359 1.8861181557290951 0.7395322383485834 -1.1971981916085186 1.2080572458102097 -1.4706424690104416
Ni 9.169577859642018 6.24720043566663 3.9208748525635464 -0.3689687302634936 -1.487017310824039 -2.782514175605156
Ni 4.866157526258038 6.2516625947363975 3.467263174181026 0.00015040953493522484 -0.037711141397528604 0.4096811203811912
Ni 3.9817052126955725 2.819616800534309 5.554360903357537 3.3322995923408225 0.23425346613507397 1.1300337779468796
Ni 7.661760988569931 6.8016587799521275 8.810857688957414 -0.4809495289088749 0.6397609147545498 -0.4232377760197033
Ni 8.134487920292415 0.7531160982756467 8.623202852153556 0.8545480446348961 -0.6466113620174799 -0.9393967629501757
Ni 1.6640859848256804 3.581504736461362 9.894481325761456 -0.1320999379927596 1.3860068951472322 -0.6676077617634889
Ni 1.504318239013192 4.5073793568601594 7.491002486591677 2.215736338076552 -1.0969382809444914 0.3269414779891143
Ni 4.6846402629671235 4.02450265031441 13.083232807865844 -1.5865367437776159 0.997164051667631 -1.1003791883052405
Ni 6.928535642558532 7.494051160891126 2.2048023759172826 -0.6985165355272035 -0.6439279016480459 -0.05804213964539681
Ni 8.620956805208795 7.048574269777096 11.052366702136458 0.10521236957329623 0.9615483593465505 0.2643176325103061
Ni 7.393891124916284 0.02118449775554551 10.735067902825067 -0.10109423363986461 2.072579885159314 -0.052672904913683476
Ni 0.8028808651925199 0.8462657736490548 4.646522011861279 -1.533846612472752 -0.6394582959124664 -0.21065690976205653
Ni 1.1625748529822864 8.572471751836458 13.617843431190492 0.28786636636452356 1.225830767743547 -1.4102089463147325
Ni 4.580111614234251 2.0424433972697296 8.414613286246484 0.8086726222590201 0.6693226875720666 -0.007796870336599476
Ni 0.6960397516335529 5.826457189375377 9.177474103815584 -0.04198405774126963 0.4448358139054532 0.7736698809315903
Ni 2.620653150104786 5.8507231026394795 10.772418138711569 -0.6135135510222466 -0.8525886069156802 -0.8023623637702761
Ni 6.919237139172056 9.144479384203473 13.512843309046472 -1.0991345172648619 0.5364275073715213 -0.43897189892550853
Ni 1.811589809169689 2.8669512342723027 5.447512306093631 -1.157477733090445 1.0242323686393326 -0.43960464741350097
P 0.4639129982307966 5.316713982099289 11.308218671121487 0.2997284079094322 -0.7206370215753266 -0.14626594508049648
P 2.143435995419014 6.809797309073088 3.6883533337252676 0.472095935172987 0.5494665999436666 0.772711887893695
P 6.295648070514272 8.634558438935088 8.713045665407126 0.5357194255609032 -0.22304242791060297 -0.460083226982827
P 2.5943853457695516 0.8212421352598981 3.5266847268583206 2.254759770527601 -0.8069309569775651 1.2160652037163509
P 8.594118368371976 8.709114849388014 12.321577802255012 1.2465124644626144 0.4604778913180844 0.9643387776074941
P 6.171212766644155 3.508725705931403 6.747624559367662 0.41557486015780687 -0.3127430750015453 1.0247206211296611
P 2.7408508060532997 2.0160820466227602 7.25582425250012 0.7465961646432496 0.28704052802911856 0.6214798570571749
P 8.769639313080665 1.0319280740129544 6.412732505208239 -0.6065543460955941 -0.4987932419585151 0.027480207698139768
