# total energy = -340866.83256888454 ev
CRYSTAL
PRIMVEC
9.28126354529748 0.00000000000000 0.00000000000000
0.00000000000000 9.28126354529748 0.00000000000000
0.00000000000000 0.00000000000000 13.58406736304026
PRIMCOORD
 96 1
Ni 6.364385063334288 2.281715075387714 4.59580226938642 1.2189420110435136 0.13177160811906338 -0.6854735863003163
Ni 8.541305393678652 8.427582073245015 3.0312708356547944 0.9678257077148299 -0.7614455709512563 0.3851085732481497
Ni 6.454719600001275 0.03638812128393991 3.580230650069252 0.4641885074004522 -0.6695237478392791 -2.7515035861562547
Ni 6.766662862857272 6.616157895571558 11.072644688826658 -0.36528691053653223 1.6390260719255836 -0.8627151538267206
Ni 8.849972370554637 9.139584913671522 8.08390524269991 -0.7188076816760718 0.8598020939449837 0.0706981378465105
Ni 0.23688475761818856 5.34396584014358 4.5942810703152475 -0.9047529476240611 1.8267119747137637 -2.4423137757236066
Ni 0.3819703952049551 1.7458149267026426 9.592266470337977 1.5055397951082587 1.1341141186638402 1.587876545634962
Ni 1.3893680058462146 5.758940407997031 8.780645973592337 -1.423024352911846 -1.204650534121506 0.48709857922940625
Ni 3.771710539010921 3.8532650005020144 1.8732290387768293 -0.5180842289776433 0.03854315038052072 0.18049375591511496
Ni 2.348512328073659 3.3101625914189587 9.73511717969815 -1.2582672910056976 1.4697135294382688 1.2429185764637691
Ni 1.6580234562071094 7.668940884236198 4.650790970649226 0.007161036524813473 -0.5986967977243882 1.6012658224576746
Ni 2.246214242884763 6.757409443248005 11.062293295757236 0.3985508147959846 -1.6408430705296644 -0.15988147898140206
Ni 9.058735828198788 2.727865406999965 0.7912852486374121 -1.09129265262294 0.5590401025647147 -1.2481227463725277
Ni 4.638617665574489 1.7106667822088715 2.5931979875790976 0.8310599888152849 -0.9662547636832842 -0.7539724025026628
Ni 7.060665443562104 3.1078032055204377 6.618754793070727 -0.19157521054025714 1.3127404823529134 2.160099465438538
Ni 3.735207330060828 7.782747736040429 9.573493258859878 -0.12601619369252492 1.0822619098792394 0.6635729295724829
Ni 3.19733955353507 8.817998418143482 6.160618637904408 -0.7748543881579946 -0.5727296842366653 -0.8305079729665569
Ni 1.9708391578226558 3.0677452726883496 -0.0313149827097927 -0.1460196333976453 1.0511847288584604 0.170728448998235
Ni 4.119822885334631 7.090281955069795 7.372168774532966 0.30961687066773774 0.3443339624339489 -0.005393145991113292
Ni 2.907040196926624 1.0404667521335509 7.7138074396355485 -2.3723980245690752 -1.1208562252126697 2.6015900170208424
Ni 3.917639843440699 8.914597807605107 1.5543433908980333 0.8181175697220039 1.2474884552226386 -0.71700868079412
Ni 8.211152292032905 0.4872292034182803 4.967435193417052 0.6792975393965914 -0.14331329021007577 2.4607046195259685
Ni 5.007585010756795 0.25235940808411544 5.0370669439451925 -1.354276653923487 0.5795832168233889 1.985692539147451
Ni 0.7736239325145714 2.3203436936562847 7.584826650299533 -0.6992266742203506 0.44789439822611893 -3.1812148857154434
P 3.849060588182057 5.117011106236479 11.137725835910043 -0.31936572252438544 -1.2222052551758176 2.1940115448049506
P 0.7372079674404332 6.665599185700504 2.9159019472204326 -0.2634570842822237 -0.046675549679668006 -0.3988164097525454
P 5.836689551494343 7.471407755305399 9.247951088870987 -0.44400457625340956 -0.08302940571835377 1.168458657581981
P 3.642274039641991 8.677201652373608 3.627013786360592 -0.6377541687371662 -0.8072276622823775 0.5837406906351882
P 9.015243827908899 3.91224742940561 8.741075307088721 0.7987777317428114 -0.2348391634352149 0.33502168389408754
P 6.88469268950826 3.54648212009612 12.817559332979553 1.0410779794417617 0.740892429390253 0.17471828688391844
P 3.615924532850912 1.8371332772899724 14.135308469803801 0.4240363606615987 0.0982811896711017 0.03114865768866248
P 6.557258998038558 0.6392989917131437 1.052731013589603 0.9090104373488344 1.1222219952119445 1.7955496901783465
Ni 4.7285159828617 2.135776489694537 9.595472218716152 -0.8072438602322937 -0.24662021523054298 -0.7646648492195024
Ni 1.5154818129181362 7.821181447777612 7.764421881458187 0.6673712202726507 0.2149910183610362 -0.620586655818944
Ni 3.6584420004838583 0.3291414439352041 11.93464852393629 -0.6644252502704492 -0.5935977859349262 0.13052950818184617
Ni 7.063292041104153 4.772620546535955 8.728944695825621 -2.0433757527915324 -0.43155478052583096 -0.09974671847303467
Ni 8.401548129409516 2.089416579014212 11.876848527989786 -2.157106701358801 1.8851863168005727 -0.25843032049159365
Ni 0.8976114021416757 1.4121906325454976 3.8815654288596613 -0.6601867867090695 -1.050553780142681 0.9620499815733174
Ni 7.046557923194918 6.20912808918805 3.310777011056003 0.917675312112684 -0.4203928503717405 1.1324071632750625
Ni 9.248184976708654 7.369230326540695 0.9702354319898043 -0.7438000899553513 0.8294414793752555 0.20541597307809142
Ni 4.534509734022698 7.074039744120732 11.946956407330319 -0.38663220898152767 -0.028178519316745018 0.3067812009911556
Ni 5.913018661691538 9.402847949997327 10.844718206641634 0.7310445900618958 -0.44646872152318595 -0.8937509400866028
Ni 6.440974048906669 7.830787555396058 1.7711991821001778 0.3616050908095708 -0.14296567706266988 -1.2855178991915344
Ni 2.8985571221795143 3.205432815219403 7.663546613948429 1.4701261914956552 1.9080156559902623 -1.1013466944248325
Ni 2.510349717970119 1.8861847543561414 5.4996451117744956 0.22076494473033592 0.32009257338808095 0.2319505290335102
Ni 7.848319861957646 4.7329245829764455 11.14348578797575 0.06367131290671615 -2.052723255444703 -0.21592895679427326
Ni 8.813237130019557 7.198213767142166 6.1145965652118255 -0.21992085156248575 1.7447138384734018 -0.09243141575854405
Ni 6.236925473069445 6.024932135762279 6.578722847776159 0.6197253362599133 -1.2537323792498214 -0.9061757961135168
Ni 1.0641154112753861 8.195392706780614 12.468869692072397 0.21717414205528401 0.24611165102524063 1.0928630824338532
Ni 4.835389730906533 1.9984137913824644 6.795741989214133 0.791838581420817 1.041442304759716 -0.7300662853090265
Ni 1.690916253694811 8.65862984431128 2.518364088915556 -0.20437827584219637 0.18267893649189182 -0.824321898760503
Ni 4.28062077373035 6.957578450984253 4.824747834292706 1.0417832330389025 1.3971824521480776 0.4173378655955006
Ni 6.5322645557038 8.152160581865909 7.471494999181353 1.9350029832123838 0.4164953150895472 -2.2557555587819667
Ni 8.28801043424387 6.601651280878196 8.533416319789106 0.837364590877074 1.288570055754297 0.9269719069232615
Ni -0.07080954285353333 5.692180280364684 12.95709477505344 0.9565480779184817 0.9561248743381339 -0.9577490402051183
Ni 1.746956522100777 1.6710543500199575 1.836117907074071 1.774836626000711 0.7954070154983657 0.33910305305231275
P 0.44204615693700794 0.7644085660852432 0.5212515306616967 -0.6146425224203672 -2.6503946972283705 -1.6875245337466034
P 2.0824649127280135 6.094467361151066 6.587375769643479 -0.20159094290504634 1.3543962102204867 -0.14197940189000063
P 1.5504443321439183 3.510340880418606 3.8229913755456417 -0.14146620969900797 -0.42085359205824296 -0.572037286155331
P 7.10334069267284 1.055678742845273 7.133482523688941 -0.7359510262245778 -0.5300552852965904 0.30806546702021786
P 5.010387952303432 3.8945202163126336 8.131082832685726 0.771569803869452 -0.27830031994264326 -0.1644089345381104
P 7.105763102420101 6.893973952907724 13.205764880936268 -0.019104067819302583 0.6992842669311634 0.877947654505759
P 0.10289951105718131 6.455870476662809 10.942767329446253 0.01950181747835351 0.37919323620497924 -1.6135379549568083
P 2.7458339329413284 1.2886755792254259 10.09694166456823 -0.7076179836078395 -1.9116563380666434 0.24525727344474535
Ni 7.991019286724409 1.675323731183711 2.8817645323108634 0.23949414570872302 -1.4812904356425909 -0.5555362031765143
Ni 0.8393788993207565 4.218037214627762 11.443517477384875 1.523587653748905 -0.8765155500449227 -0.5499381402634465
Ni 5.659343170457379 8.75757739341297 13.210016627699563 -0.885069867372837 -1.1704530623041907 -0.6572189623299972
Ni 3.330256526678799 2.744098336685628 11.793796070586017 1.0513968448692665 0.6635968408318829 -0.27936218554825437
Ni 8.925391916938684 5.002517440940687 6.725430850205152 -1.236865942511786 -0.8753151019789184 2.4412053731507766
Ni 7.085242229043885 2.454615731256335 9.449199507540593 1.084892405523551 -1.0412391876099745 -0.031083608778681954
Ni 7.709917662144833 5.156298694206412 0.9065882401016375 -1.7298328075965113 -0.6765606000814026 1.1814316728028813
Ni 8.759526458726857 3.781882803696734 2.755473453108012 0.7633607856960981 1.7664059787348547 0.6301560446749341
Ni 5.4683811760134 1.9515898175321666 12.933621531789855 -0.38141158401253666 -0.7683052741855672 -0.5253342256718372
Ni 5.1350910073386355 5.133986536994099 13.835507883853325 0.44309826238905625 0.31596852391737845 -1.9984863484780098
Ni 2.7297309409432575 5.4483429283339575 3.995753740589611 -0.8082774437031305 -0.39212999887130534 -0.6812934867806976
Ni 5.550557482152257 3.699687935031078 11.020916495396083 0.3864679154895215 1.2789880684928165 0.4466659251356565
Ni 3.927858514443509 5.009431982173288 6.349709529647056 0.6660229337748723 -0.845114667136138 0.5159759243853888
Ni 6.709963624749944 2.83780197196662 1.36761643694323 -1.1552043636752363 1.0459317079896373 -0.2699270082772835
Ni 1.691473129498779 4.188810516182849 5.904287777211662 0.5421507830085438 -1.8260630282758552 0.5201786496128267
Ni 1.1760381666095265 1.4451948051939925 12.047682246499345 1.4894210351695252 -1.0576266278290622 -0.4797197702668318
Ni 2.669142853471554 5.453586842154654 13.042959455267244 0.11820569650917064 -0.016272254797462297 0.7076280109101685
Ni 1.345476911230148 8.557046416404141 10.045730437509004 -0.6987872726900869 1.7279774995553274 -0.10619375964995906
Ni 5.030463325036474 4.801930776351464 4.263535824064617 1.0765172940859782 -1.457893396874889 -0.5779680498174691
Ni 4.867901996594856 0.1558491187511254 8.18387094639652 0.9098195635136911 -0.5617824411965421 0.9444132423281606
Ni 8.848116117874744 3.1439537264613513 5.0869481659592735 0.9540679918091053 -1.9543739315398276 -0.26772125887521636
Ni 3.6404456307522968 5.430606433977581 9.161910064652593 0.7603888475519679 -0.5607313742242085 -1.785421857715725
Ni 7.953699326595164 -0.17656211427970997 12.556921037943114 0.6139105293503492 -0.5006292667259894 0.2036210859611977
Ni 4.388069960105948 6.572870083076456 2.184793626086128 -0.6553286872858198 -0.07378346164005357 0.2773292142786256
P 8.276436698784737 0.5109446876565916 10.301735525856431 -2.2246123004099427 -1.58404534481433 1.1124734004656132
P 0.9538447208263502 4.68399376233447 0.9817720423953384 -0.4111577049267177 0.17325610051609516 0.8063552869797532
P 4.352903253085379 2.5139972544861084 4.483271591299615 -1.7126778930837794 1.0045055796343667 1.2115899415538165
P 0.9093986066589954 0.02575736218619345 6.229422499737318 0.153609015709129 1.077454461188267 -0.6236840637973453
P 6.9009070566671245 7.6564390224371195 5.094079888755422 -0.29207654779112924 0.4859202426505889 -0.41397254866769345
P 3.242362962285872 7.526751928956404 13.77492350888698 -0.307138070109942 -1.1584416396656114 -1.4400049466302425
P 7.241334516896076 4.479573935961268 4.861534121776484 -0.13116765598647734 0.8484825551671064 0.3247125886585956
P 5.779851094436024 4.813996418770767 2.2090678423810868 -0.0017018131824551336 -0.32451487082549274 0.08483740546137002
