# total energy = -340854.9919331619 ev
CRYSTAL
PRIMVEC
9.49064442405543 0.00000000000000 0.00000000000000

0.00000000000000 9.49064442405543 0.00000000000000

0.00000000000000 0.00000000000000 13.89051744364537

PRIMCOORD
 96 1
Ni 0.6539879769328748 5.685579401688483 2.7938132297315645 0.30296516967917503 1.8100504548976828 -0.4223445747814727
Ni 5.442049462971056 4.735575374577191 4.928314230947227 -1.1491306466773306 1.4532386717116972 0.236456901544296
Ni 7.397520843844637 4.511026724925815 7.404548666121342 0.33590922870536344 -0.13648726842717784 0.014614407479065153
Ni 2.109191350374991 8.229328383941631 0.2746459658834035 1.0668622874947173 -1.8677560371392674 -0.28338441933376995
Ni 0.4915954564571869 6.579275434785335 12.80559854470973 1.8997881258741474 -0.6939165748613468 1.0089834129000623
Ni 5.158317154011733 1.4626032289845161 4.174434373110902 1.1562726570387505 -0.18131162383072 -2.32251990879171
Ni 1.0506238404504245 6.394207866391342 5.121725974014654 0.21679618989057503 0.9392422396501825 -0.03281936052286606
Ni 8.72182640069391 0.6012342292960541 1.7152982831274857 -1.4077337453013627 -0.332897181351917 0.1586584052075784
Ni -0.012475452238661646 3.109533756089448 0.8034931511971677 0.0162668554808236 -1.6297744714203286 0.034043976958586526
Ni 6.423628864443722 5.279617081788329 13.615554824833886 2.4445174682431445 -1.9533138657064293 -0.27040369080338594
Ni 8.10054033762848 9.016757670202201 7.984283738356734 0.35078048939024103 0.6252709486684909 -0.3093988411196607
Ni 2.209260706331209 8.326332261713683 4.954594774723628 1.5322738686689932 1.390710985491121 -0.442096046376787
Ni 5.753418528810546 9.464611695071127 8.377023692293477 -0.15475264239526895 0.07175486124579901 -0.5911472675119045
Ni 2.680158016126321 1.2037174274126543 12.107280716227548 1.051577336311189 0.6047003236059909 0.033540554959606755
Ni 7.1173380359406675 3.2438073949426887 4.4800255345586875 0.038205821645760016 -0.6911608664930806 0.5667102175154627
Ni 1.030494183395878 1.6004263688931084 10.5043146508574 0.0178982204366595 2.133087455626068 0.3492036318214244
Ni 7.691275273430834 5.458980772817973 4.940356909795183 1.345498907730857 0.86612880749396 0.05378362147935899
Ni 3.24767008726763 1.1852676144404533 7.548704913126822 1.1656810948368441 0.32898627633328503 0.12888888725462963
Ni 0.672974960385645 5.538550336582856 10.56541921661883 -0.36293949335027814 0.28026284298565285 1.6868323927755853
Ni 6.644893751086672 6.874026382047499 7.355904367567321 0.345913648216243 0.1630043408810999 -0.8489319839996993
Ni 5.747999370782189 1.1465932379683754 1.3791519916056254 0.5179479605100952 -0.4314694199008763 1.7320745524428365
Ni 4.29332082998275 2.8571680273117748 5.842629638356531 -0.14157728135557554 -0.07467897687112945 0.897900443478602
Ni 4.6070530663109635 8.736546390364632 3.0428287609890803 -1.0011001534972437 0.7644671313863995 1.434101179551298
Ni 2.5309271214890328 2.445387942312876 0.2963529680593388 0.9414639298918497 1.6760365877116619 1.4878158954659344
P 5.058466082879775 6.99258351355405 4.308366348760954 0.45348886159476093 0.029873904741296937 -0.38525512612834295
P 9.10111051881173 7.580453017218699 6.380497681298936 -0.6256944093591547 0.22872739411052223 0.4936731471231304
P 5.210041166716721 4.854920229579983 7.268337986718912 -0.1344326998909943 0.9060639531260009 -0.540597836699127
P 0.2757098671355556 4.535541059754618 5.318137709818971 -0.668753445332158 -2.2504372318928465 0.09037093368508951
P 7.482680397239473 5.418749930642479 11.440716686223961 -1.8169502673413094 -2.8581843127449615 0.05833935917084146
P 5.532618683749715 0.7851059764788846 6.083449048995326 -0.4562916211508787 -0.3109826406670128 1.9387344252303578
P 3.7446951414621608 9.090110861797953 12.97335422841103 0.3909267225918235 -1.365987771712828 -0.04509740655927072
P 7.917105160094168 6.271114206798006 2.7946056985500727 -0.7300169201283299 0.6869833380766234 0.6763690528958868
Ni 2.3415887630551797 5.149130210103765 9.028474819942675 2.794900207974335 2.0971470329757174 0.18733031922097415
Ni 4.6799127443909985 7.11672114404602 8.665571554288857 -0.6150916941426439 -0.6369514703302127 0.10085692081807793
Ni 5.049905521510987 8.234576710368396 0.8652601639470023 -0.7508222869094553 1.9996775405726332 -1.0910933921279402
Ni 5.0544989934649704 2.9746716972751597 8.368689957329028 -0.0008870305906436336 -0.15549543409856448 -0.6898586027418894
Ni 1.6739788640240538 3.389346428856631 4.038098417200636 1.910378499795484 1.5591344405052632 3.210608508386213
Ni 8.548764497634195 1.764728407048841 6.772016189284277 0.15004546672758676 -0.1374671158419439 0.7051985755330693
Ni 9.279344823141944 3.694138478034735 3.1033221292425828 -3.8610891235511113 -0.34344924583615044 -0.13650012394298427
Ni 9.037921807510848 4.309521360200623 12.573405180887 0.16246312366564925 -0.23867602068280183 0.4345323750969162
Ni 2.1544237622193894 4.703838659258755 0.6093923873366425 -0.6788604518591728 1.4472472300149528 -0.6626697010319234
Ni 8.878270185176298 7.226214710023531 0.9476712266850735 -0.1637252782075245 0.7746057624822983 0.8292854134133655
Ni 0.7870382717058085 5.457728007739613 7.315926925600859 -1.417977791626874 -0.7261828910942204 -0.5960038242732575
Ni 6.775931080154151 8.354120868906382 3.362797299839946 1.0898973149373101 -1.2296884509267403 -0.8995451781708766
Ni 6.007179382334575 4.792348410173749 9.842181802786284 -0.6124809959926742 2.9739451472580654 -0.9007178583227391
Ni 1.0176058881200298 0.7191450479099061 0.16667185209562893 -1.7859995845960663 -0.06926860448883554 -1.6375934532441154
Ni 5.64252983808668 0.7500987850543678 12.872828372452773 -0.07666566828385507 -0.6004487474184885 -0.9670456350156958
Ni 3.101333839212914 0.21522598952658595 9.861531328860215 -0.008523978310611127 1.0571733423417278 0.0010418110009530444
Ni 2.6948969870861093 1.270939662640072 4.196116699611052 -0.18458360971377244 -2.2428527346773697 1.9580259264701179
Ni 1.824272710849041 2.78769650933003 6.62461034559069 -1.6475410513751303 -1.395775801608538 -0.27255210460495644
Ni 2.791502257787773 3.4954897973139842 11.211703637384248 -2.741831353173813 -0.5638159266868031 -1.0768916467062615
Ni 0.990975139560361 3.4876789968633046 8.910641824613993 -2.3429280401344164 -2.126132364464474 -0.4094232387341142
Ni 2.69897796423531 6.20201282395305 11.602443912517883 -0.8676259608647768 1.1807439027072375 -0.2759374761374216
Ni 8.873363521952724 1.5836469093587198 4.425615669450854 0.34530866764239243 -1.053708780831895 -0.5113751923885839
Ni 4.151777357417211 8.62294337530432 6.755417051996016 0.3627803420645946 0.26912173876716877 -0.4217583632606995
Ni 1.1718763150043547 1.8936683036745217 2.5709539148070664 -0.5319195921988388 -1.3897254816494002 -1.865634362810574
P 6.006590962373528 2.695940957984742 13.850179691785975 2.011709274926187 1.0788073756717356 0.4213094486487389
P 8.581440786761402 1.7986479706098728 9.046032512328772 0.7582625452375844 -1.0899703342670906 -0.39749409139669606
P 1.0808230713545106 2.5380071423106694 12.826184701766314 -2.4263153434128215 0.9504105975621759 -2.7433027955130176
P 6.9694263408934685 7.874397259695555 -0.010966439757910638 0.31098392621859344 -0.5807828935584449 -0.2174713615807287
P 3.626043103510279 2.8022836299772895 3.1882491618463593 0.9999804380705035 1.3448347917842967 -1.3712970997408835
P 0.8698337055474673 0.5824437021851174 5.6962649183682155 0.7073667868289817 0.42787836011550834 0.3521642571116451
P 3.7864634680520046 6.331095080246726 1.0998356795475202 -2.877978207542437 -0.21125340569547488 0.6731870556234794
P 7.409678359491442 1.9159997902607298 2.8281646176188495 -0.26262378974765094 -0.9777925891195547 0.27057312650171467
Ni 8.03365976560425 3.59172493287886 10.264912193447385 0.4912275137961153 -1.4554608761739964 0.4129759890823791
Ni 3.254095253616488 0.9966979982137752 1.671265488752062 0.9615517017806602 -1.8416896790695187 1.504980580170679
Ni 2.987484067394744 4.977947454661589 2.7842295768821157 0.546986256723974 0.5558699323668491 1.1921004653706373
Ni 2.610041134316331 7.662660980163762 2.6172929358040156 -1.0271567413749794 -0.6186200190108766 -0.008668988528907651
Ni 8.216060462884464 7.206379262949509 11.700316184264706 0.004718488521591875 3.169236630307645 -0.2722042343472344
Ni 6.993874241210541 7.6367040673659385 9.642061123098461 -0.05771843775739091 -0.19273246407315195 0.24251879146765978
Ni 1.0171788091160436 0.5745133196133215 8.154706293171815 -1.5882616968885228 3.6379165978205474 0.8084908452655173
Ni 7.290286051265985 9.065121994742498 5.441679327834268 0.5807723520354837 0.48285703034423294 1.3573190402942366
Ni 6.804535882776689 3.699367823172432 1.9487007550637214 0.5496779446235243 1.0190333409368966 -0.9317726707460147
Ni 5.668894848599424 2.854311343307334 10.663139638053124 -0.6148968045230184 -2.766395672776739 1.8915886207824908
Ni 1.7196098829388389 8.39807204373882 7.199941758762758 0.8100702739374953 -3.3509097512428414 -1.070766250534814
Ni 9.509625822091268 7.178951300249066 8.720827984889036 -0.03236864613869264 0.031170254955217285 0.2592636150261664
Ni 4.578324885309496 4.192330881506828 1.265681845568776 -0.4226268819085818 -1.5890728799359084 -0.4089056756677473
Ni 8.06618420441893 1.9058448006103927 13.080963901448735 -0.11019953837524248 -0.10232090695811412 0.570267852959734
Ni 4.779089979761111 6.540240413821002 13.106508920273827 -1.4459051141647614 0.9983251618552678 -1.5698063183968125
Ni 2.669794232296258 4.769504428782756 6.204213704420258 -0.134870044538729 -1.5072670622120106 -0.3485048059821869
Ni 3.776783010628319 6.471784394804291 5.9748808208597834 1.6707054053067354 2.0244010114612423 -0.3094651755812219
Ni -0.027027457501149214 8.227686502437418 3.919154067397137 -0.48082688728808154 0.25523881013748945 -0.614177924079123
Ni 5.702055160597815 6.206682221063298 1.8141575819057427 2.482821506029666 0.18639160945678868 2.0419742444583155
Ni 7.442753255689036 0.8318407573528608 11.083702365502884 -1.428964629655681 0.9538669315418926 -3.090925456000567
Ni 0.1836971193234229 9.106273429437696 10.104296321628281 -2.281805461791483 -1.3220926129917745 0.11733460675812696
Ni 4.860073649561416 8.034257676209831 11.02948800767243 -0.6099798268373752 0.34940803452274666 0.30456619561770776
Ni 1.7078889369405528 8.596331608033717 11.67497995961934 0.5482700085324042 -0.9492052644001653 0.8849773076590307
Ni 4.218135943992124 3.1740511576249535 12.963352987202127 0.9281564141496661 0.42467322291464926 -0.8712267908421575
P -0.2266432348998153 5.102920261872465 0.8347686211912989 0.5285553037122962 1.5414604202642679 -0.9254685829048577
P 8.664977439941088 9.252780509094006 12.26507691755589 2.082345192076194 -0.13603963936679797 1.2587079780875419
P 4.242764166555324 4.887492121617326 11.543451015165052 3.434277257026905 0.6745014035595287 -0.2544389399440134
P 2.6028756976938965 7.816229099352643 9.183729426665073 -0.6884218702953628 -2.0013695835630756 0.02819805970077079
P 1.1643597245341988 9.24090771278319 2.0597412961001162 0.6273933943281323 -1.186047317198022 1.6042105069082955
P 5.211464763396675 0.5965762209592452 10.371799628436131 0.7245602678891329 0.7517013470802989 0.4761497935273864
P 8.89447071539417 5.041971342681377 9.034892393775905 -0.7023487647891001 1.0114550143690064 -2.339556295448706
P 3.024943641366594 2.839619825570211 9.132793137456328 -0.03600495733969928 -0.6198042691269648 -0.5267830423032217
