# total energy = -340887.2329494911 ev
CRYSTAL
PRIMVEC
9.10867312735962 0.00000000000000 0.00000000000000

0.00000000000000 9.10867312735962 0.00000000000000

0.00000000000000 0.00000000000000 13.33146384068321

PRIMCOORD
 96 1
Ni 6.699647828631105 1.901390010370294 11.308867884458225 0.7728080471519272 -0.5680834437139055 0.4164127826780699
Ni 4.40015414251651 0.42030151260397364 5.8887081089287845 0.9639338288595916 0.7053448713029465 0.16146682119065092
Ni 2.637762486876872 1.596850626879813 4.773877543275748 0.8089454163044326 1.642082342253404 -0.4001389852187109
Ni 3.512377298229267 4.597029007467257 4.826789826541172 0.5774342888011862 -0.025952201089387564 -0.10440555740128471
Ni 3.855045588200909 2.8540388259807177 2.5758389931045644 0.80220604069807 -0.5455343547687959 1.288120112701072
Ni 5.16536467872671 4.844520770008977 2.1313949418889524 -0.040804435610871666 -0.4986806276400509 -0.06059215976076017
Ni 5.211928216694148 5.014051397679157 11.14141130170103 0.25027426704336253 0.2819235185175274 -0.47394532967689995
Ni 5.8798307959195775 8.07971203070164 12.317672581900233 -0.29580619003689057 1.1574031710987678 0.08282114636228961
Ni 2.1036025578814703 6.590626117767984 0.31903128272878173 -0.2049865988501566 0.14159347930549163 -1.5550237607709994
Ni 3.2752056625492663 1.8134913129161114 0.37731130717656375 -0.706263526462474 -0.3137031249219694 -0.6517273430878067
Ni 8.321811458643062 8.958398419024192 6.92348254484868 -1.8042896411545053 -0.3155514909846178 -1.3214570362903049
Ni 9.10912874497982 2.645003882159367 1.3279680559338032 -0.8480575518145458 -0.4273186309572964 0.4578322261651212
Ni 7.014106557357608 0.8371717879715752 4.897446716284368 -2.04267461295945 -0.697021953259548 -1.4708831242663378
Ni 1.1459257546032011 7.860493590118239 2.1482587396575195 -0.6470003699257825 -1.6423253115021457 2.3382146938191473
Ni 8.028621482098478 3.96434966793668 3.4691402477551203 -0.38692300074906916 1.7227098233984846 0.009016601676313504
Ni 7.9847814374511215 3.78144750784549 12.450201045977861 -0.08220948092021972 0.04265691543857815 0.24332277542619388
Ni 8.293073594345865 7.2871299311909405 9.299643023357277 -0.7119616052885158 -0.0698077648217572 -1.418023557263145
Ni 7.124968220229613 0.794179760809503 0.39361401066915397 0.19532773560415392 0.8380595600615696 -1.2909015321009512
Ni 1.555542793413003 6.459989525137116 9.294749844054436 0.9160231212212419 1.0340992341310837 -0.42939068299497657
Ni 0.36125635959804125 5.109309903168882 1.3929511530713814 0.26110683888249225 -0.8577819781911615 0.3523547758558964
Ni 6.507473039108997 1.8359350839551896 6.8923937319698325 -0.41545556097112324 1.1077112031902794 -0.0395682492109254
Ni 3.6437334760517297 4.279190960942257 0.0855495706071946 -0.6280415694350925 1.7137281887251647 0.6089393013880029
Ni 5.954594786458844 5.480934665597192 4.45984145699089 -0.12131467445179754 -0.9517683971416513 0.5839939442965749
Ni 5.050905089896735 2.981751534478655 9.113469027812663 1.3578911107476228 -0.4493079907441939 -0.40727893869760184
P 0.1832255179937419 5.644981871933962 12.670636405315653 0.44912415686816204 0.7500735816688888 -1.6653521114146221
P 4.201539520963303 6.403206055714383 12.262880268463352 -0.9656950345250722 0.7322980028530227 1.8497426312809822
P 2.807211136487251 8.856736516196612 1.285861391817591 1.254327589631659 -0.39825950880781086 0.2322850295547935
P 6.5475056583122235 7.819285952057854 5.757925777524934 -1.0852335909130537 1.4950882607576317 1.1479505103263004
P 4.8566353055130245 1.163897167046424 12.327191145510556 0.690719665190604 0.8654299816547224 1.7968015603075762
P 4.382574403025674 6.200246596991679 7.759938391097985 0.3844850807315378 -0.14165030068535603 0.2747995058782364
P 4.9656479077028335 1.0557772148411237 3.73383647244725 -0.49714259372896963 -0.3085136103012299 -0.04812230942852357
P 0.35899285428017963 6.1604234772746125 3.2972176824733883 -0.3778205242271687 -0.48670211512193595 -0.03549356492091951
Ni -0.006108276322567339 9.097342121714979 4.623111693494206 2.544307895469921 -0.45001452989291524 0.27671266374054926
Ni 2.057685735719135 6.474253707542634 4.572598634778981 -0.6649302149313258 0.9110500934866826 0.2979597460447836
Ni 6.2424470804429975 5.516759077730591 8.969248670672629 -1.197518808172731 1.7685240535191218 1.782806017359433
Ni 9.008459687543175 2.262302972984499 10.14191111404653 0.08812584640465468 0.5521963401700037 0.4838975557936053
Ni 2.516835739995864 5.512368697194537 7.010269984158882 -0.24648111854951746 -0.7229276173817162 -0.29645025137879266
Ni 0.41248991437219057 0.07569489695168372 8.82598927856694 2.037910358801587 0.3525437519382509 0.8045087206893176
Ni 1.8321367671843716 1.1918334680922247 11.584535506153834 -0.09838300535628862 0.25976960812830746 -0.07385545252856958
Ni 4.359001156495993 6.967379063270565 1.2400338346537065 0.37050239329920065 1.0491977803354187 0.06589814535470587
Ni 5.692683994065315 8.007580446749342 7.965896425074774 -0.04599420734192724 -0.04409904720174341 -1.0892059452972402
Ni 5.156310657455264 2.929613488444692 4.850466911946602 0.028352325890447942 -0.7853416608425636 -0.1278887281248894
Ni 0.8055929284685798 7.2093965131521855 7.101937850629286 0.1439133856879199 0.5816843223267918 -0.6961169249467754
Ni 5.264212001501091 4.242082225871963 6.972542770170749 -1.011224129305123 -0.06541220685722283 -0.018147103222671972
Ni 1.1956591108829768 7.892055143141943 11.567165266149157 -0.3170411881562669 -1.343523786282357 0.8187143227657383
Ni 4.807457578305239 0.660652986136954 10.307034965568697 -0.17180625544344605 -1.6151330673580702 -0.42600325457998245
Ni 7.838450600704858 6.7606212877770435 4.630084382914016 2.350762962797803 -0.19819451562898768 -0.7472211998217583
Ni 7.008295223784989 5.7675026366444495 6.880914981862915 0.9614866528706797 1.2408578372799985 -1.5907145293043894
Ni 2.706860882616502 5.42000674981781 2.281093255158409 -0.2658291840588261 -0.31873965890461237 0.7691668508549141
Ni 2.4052089485657078 5.377378158720861 11.348888662386148 0.5406060642292431 0.8288624669433339 0.8466670992249224
Ni 1.5870952377633956 3.6219637468376886 3.719225249588571 -1.3738118957429373 0.2252993422655797 -0.6411472535791152
Ni 1.6933296945932539 1.1992388194943233 2.7515607860244455 -1.0653759327571781 1.0344291066666766 -0.8045580858700144
Ni 1.39119500085696 3.27287384218157 8.307728538836438 -0.9790313466226624 1.120456932891722 -0.2975673957023714
Ni 3.4392437602127246 2.6959669093361702 6.831974991028555 0.9797779949806996 0.22357413204435686 0.9893229583566575
Ni 4.05278577711623 7.228606705165746 5.773510717560592 0.6777445930871747 -0.9621805936139105 -0.026749500179702318
Ni 0.89772442641053 0.3705900171401449 0.6802375446236107 -1.1723230256333939 1.4462612119525995 -2.9006849051113335
P 8.826923828448681 5.570190555374761 8.243257349138956 0.3249776693945242 -0.6835146628017325 -0.11524532832926604
P 8.56957648138412 1.8026702090222702 7.88969417501965 1.2161791035863958 0.7201999340379079 -0.61232852957521
P 1.956816287469641 3.4197603079998236 10.471838191790306 -1.2399060148896903 -0.32685766002605643 -0.6835779119395002
P 4.2531674812918325 6.352525397410231 3.5746988410252793 -1.2224268842683204 0.4006316085844132 -0.42997175230942725
P 6.811511445567356 3.859827641689349 10.44621549376558 0.9849114595525231 -0.21980746591307307 0.3308444125879464
P 6.26165727245656 8.044698290492947 10.06414854825318 1.719431666867845 0.03376166983147734 0.7764901239892047
P 2.134626699179807 8.766943214693677 5.543503053439941 -0.26427520930814485 -1.59995713094858 0.8424993410004781
P 6.99084300572051 3.8839565172910206 1.3907249933140962 0.9788320861276626 1.8177678781465985 -1.6227242494417666
Ni 5.605377360376367 3.160818943105782 13.078166647069832 0.7478770882382023 -0.40992511807119725 0.7762260716945406
Ni 1.4576518813363089 1.3618013120813488 6.749199922311986 -1.5062656175306899 -0.47249008528761205 1.2122175478354864
Ni 7.004742841193576 1.0004146984549558 9.059356221404805 -1.0318433482173712 -1.0643441490585541 0.6921139744349692
Ni 2.9392049214415064 1.6968000991248646 9.394616427372357 -0.9780939224100574 -0.565738854741129 -1.3029497215147368
Ni 6.354146741259645 2.2883173439616122 2.536084188437333 0.6046712701402682 -0.9762555836497381 0.4228899057619813
Ni 4.248166819643921 7.126717085505386 9.939393425979427 -0.701884680668488 0.2806299965170844 0.06702248876713619
Ni 8.574167252733023 7.5289560989330235 0.23502289964586154 -0.054028390500313404 -0.21403251110250882 -0.05957863089458126
Ni 7.438106191325974 3.7128500891379823 8.393196131383831 1.627372032626423 -1.0837744898690238 -0.7142848541050536
Ni 3.497712334198051 8.499758500452897 12.532642737251235 -0.5617323046848972 0.19910725725124417 -0.25362492868315034
Ni 0.20339120983766049 5.005634983539503 10.494354832215876 -1.3001464477379867 -1.2142073245720058 -0.1309578539685164
Ni 8.675492134648083 2.5293874918188552 5.471059952860396 1.0534241597119407 0.9090564600954215 3.098348487937516
Ni 3.894203774766249 3.2034566428760436 11.20034988322922 -0.2964034573012573 -2.120143236760575 0.8890175391666754
Ni 1.3722580690427377 3.467562625537601 12.706724968975081 -0.4524668480881498 0.047977299210227045 -0.1292295584235
Ni 2.982079446717862 8.510488517613625 7.84404696958733 0.03373338769670319 -0.07102543927894218 -0.04441889243500737
Ni 5.842111779737425 7.964660378106428 3.3301601103710876 0.08056063246288706 0.09171407797654528 0.5901931311287513
Ni 3.2310559230093263 8.67402563824496 3.6040542733729826 1.218141112408773 -1.1169273224719085 -0.5096787785227674
Ni 3.4839946721912116 4.792674201520976 9.194137260392322 -0.1940874354391496 -0.3385952601779588 0.02487722285765393
Ni 7.502969053975844 6.661728421636105 11.34399639395064 0.44146072678563325 -1.3447766848528517 0.3527520112943151
Ni 8.092099826405027 0.09071783184403431 2.4612282002976213 0.10749319518767293 0.0495101909149857 0.20498094242320183
Ni 4.914666663179408 0.47306077015776804 1.5169074446957325 0.09362877850075489 -0.7841759226692366 0.09244272861245369
Ni 6.241199192199348 5.852987535671134 13.20937435351732 -0.07130440397194171 -0.7237233738101343 0.9682784789815323
Ni 8.329717787077282 8.980250126298035 10.885260834309575 -0.7607187200875609 1.0008931796927603 1.39951804225979
Ni 0.12569149389015652 5.002392295840675 6.181266854412893 -0.09176704270166776 -0.29474509576222785 -0.8139816931767595
Ni 7.332318059488371 6.049343206243136 2.127755116033751 0.2581081612654845 0.2836158186182857 0.772595931141121
P 8.679973601917249 2.0006836581369307 3.5680066987434564 0.5966000630963596 -3.0934173691844857 -3.323891313672469
P 2.12515367893604 3.3562819636932746 1.5674469185635598 -0.91572770146801 0.523224635528002 -1.4444622110706478
P 4.733941476009622 1.0031199744284163 8.054244180123204 -0.0011976198525269696 1.0209904646632675 -0.5080358436027057
P 8.889208936551448 1.536496557519045 12.41428645797868 -0.4643738839383809 0.3128502900033709 0.11840290012164123
P 6.64894895298033 7.930138506256548 1.2045746803200912 -0.8268446651823567 -0.1922059021457206 -0.009624410463641488
P 1.7690865305234544 3.632183678292983 5.855152667317233 0.19519403823976705 -0.7118471911978386 0.8602255546356475
P 6.971359553507609 3.8076622696354523 5.600027836540632 -0.10619170276743001 1.1939781420093243 0.4962619908962292
P 2.2660102030222036 8.672677554594886 9.957016887102156 0.8224236532965256 0.1151990484723629 -0.15074712078030167
