# total energy = -381171.2662310878 ev
CRYSTAL
PRIMVEC
9.26511995871737 0.00000000000000 0.00000000000000
0.00000000000000 9.26511995871737 0.00000000000000
0.00000000000000 0.00000000000000 13.56043959225785
PRIMCOORD
 96 1
Ni 9.167224534664065 4.788565982214787 9.05907835042296 1.6156272333856694 -0.5380665856368411 0.9099447762376458
Ni 8.214946257490137 2.2033103419883053 6.169240235695905 -1.9215604845542327 -1.071854084282354 -1.2482518157512243
Ni 0.8941340914174866 5.678805017272402 1.302799995131087 0.1959859380134431 1.4849509152133133 -0.9780980361751155
Ni 5.467717793088423 4.144566035825811 8.023766069687744 1.910198265463878 1.0524381416495874 -1.5798559893233308
Ni 2.300779402182988 0.8271111413659354 3.635906326774652 0.4048736716902189 0.08467208352809934 -0.6441644431388842
Ni 3.119482447339164 3.263341962324225 10.978721299325471 -1.1057054856141602 0.5736298274534315 -0.5689033685120396
Ni 8.628828423645716 4.494769033662183 4.941492343426703 -0.7757283061225156 -0.35402265047662257 0.6481799920561805
Ni 9.185272988015702 0.6807407789176844 10.053547203586291 0.4844953372786042 -0.3491234134027923 0.8293653747216814
Ni 5.902678106767091 0.6979813138236033 8.787150790623542 1.1305852795749756 -0.12617663052978914 -0.2710400388358042
Ni 2.562027984912026 4.643724364531947 13.38930626870402 -0.26639302698209605 0.009633923545338248 -0.6729489714707443
Ni 1.6170784174922812 1.3878222933993882 12.267438312375198 0.05944621908177504 -0.687712245822848 -0.96200730126084
Ni 4.881884268743384 6.796938203813726 3.5748167594368536 -1.4139126204185648 -0.49099997116634153 1.9255688343826773
Ni 1.9993294646835393 1.565416109541183 9.359225612079882 -0.5985679854560079 -0.03438259124492789 0.48376128732605717
Ni 4.760066473739612 8.419918502612473 5.782890299509388 -0.7990978340863916 -0.7185060912752529 0.6349102715304679
Ni 4.282634850941891 2.177414332174224 4.35386416537827 -0.9072572021031536 -0.7805781780156492 -0.8983187619629431
Ni 8.64174400063349 6.921109339244253 13.17015653727846 -1.3616762888216678 -0.480957756438991 1.6048782223992815
Ni 4.156888645147002 6.773803199697174 7.980820386435426 1.702187792185733 1.092624741170802 1.6165466598761449
Ni 6.069209369879185 7.968447745467367 2.212833032108847 -0.04354960245617661 1.4382411698616004 -0.07365079271693122
Ni 7.438733051692594 6.804674578838685 4.167841869763176 -0.7829374222764451 -0.06623187454504077 -0.1316520518220636
Ni 5.975492683199602 2.1166073509900314 12.740426383721456 -0.8554577009333588 0.44946225693387115 0.7926708475141252
Ni 7.2567383036503745 0.2699615013799007 0.1457857333894788 -0.7694938951770297 0.9613776380966411 1.8151720923949641
Ni 7.4438381326970875 4.237958443312731 10.869912659019356 -0.2262550213106297 -2.4377009595419437 0.835857153093612
Ni 9.653235658387665 0.519176546525207 1.0773212603767273 -0.154136863188141 -0.7455322421551095 -0.055741516536678186
Ni 1.9276915584644052 5.546869711457546 10.436683996229508 -0.8313770058350713 -0.5392127834261424 0.8128781756999356
P 6.893017496039855 0.4479527911607025 6.899266819338457 0.4268329495701294 0.8769063577254382 -0.010755438744291154
Ni 3.202905585931647 7.758361154220748 10.327359288751067 0.5379632272897574 -0.17370835756216535 0.3234733169348558
P 4.544819210769757 9.200680882227086 3.4013375829939614 -1.7681831252399354 -0.13210662286097896 -1.1617269952851024
Ni 7.776354016853644 5.453208615496705 2.398611655073454 -0.8465989649911484 0.6497352523584423 -0.7411850209300074
P 0.9476920428776942 7.608229153137607 10.217045066479017 0.14607696899814196 0.9708408403920699 0.5868478688056022
P 6.423331513386883 3.808622057346818 5.696605165413659 -0.6103240975506715 -0.040998039678916486 -0.28327231923593793
P 5.354896429401099 7.288841943724003 9.97318804010848 0.1833980740461035 -0.15261811255076943 -0.22130410506325757
Ni 8.043421094811034 8.637685878165309 5.4164057066654 -1.2130642121064978 0.8831479677597759 1.9074217311600055
Ni 1.7289362087214073 3.2191751362835355 4.768284634993669 -1.0469169547210422 -2.019793594596218 -0.4187470872382014
Ni 9.112282374307176 0.39275676652155767 7.753994503263546 -0.5080548697660993 -0.09578721960465438 -0.4849249686168551
Ni 4.099083562774889 3.7550233393595325 6.158270333864108 -0.17977770368469684 0.5179212210372177 -0.24987266072956968
Ni 2.36157711824739 2.047823101666331 6.914535736752986 1.215445824964797 -0.8127838162139165 0.013226525992603027
Ni 5.185094579003004 1.1528588555156276 1.459862305817424 0.5416648445110608 -0.33759870059264435 0.6809340465587498
Ni 8.617311879746287 6.3298186593426875 10.844269586975551 1.572484379449608 0.004729030044553145 0.39251360746296915
Ni 2.6358895198808487 3.573649354343267 2.3496584681490598 -1.3885633430204989 0.22475426839538715 0.8651021660016586
Ni 3.3381114790325035 6.587796654785724 5.919172799529885 -2.2934070505861537 0.1229622373575495 -0.5851972205760567
Ni 7.852383589853413 2.389252031061223 1.4515227714941128 -0.4444558048582152 -0.04024753466613713 -0.750485729505643
Ni 7.514632913015298 0.5442711234774217 2.990890923256652 1.137058803114461 0.2891858565068955 -0.2478443174456312
Ni 6.9162636815938905 2.791682509155905 3.6510668422876336 0.16848953236538725 0.679748510891081 0.9478078698320063
Ni 3.9864845619625333 4.933518781335112 9.512959891737518 0.11952184421743285 0.18154199467397122 0.7263854940233296
Ni 5.851923780555448 5.925544422409722 0.9152696826832766 -0.5490526523346996 -2.5797353830395964 1.412296682081697
Ni 2.929093500766869 5.008612577236053 4.269518220854666 -0.5133379725419095 1.8920537333443672 -1.1619946471241924
Ni 8.995995855818252 7.057482637438696 8.373612360412187 -0.6777610481474069 0.049260022577392586 -0.6910194558192099
Ni 0.5043366041569728 3.402429940617246 7.0619382335458845 1.370556364920117 1.5686624346003566 1.1408447525194547
Ni 4.183053343435004 3.2883855811175926 0.8731022694933486 1.8905334400450986 -0.28005355518832414 -1.0150342470798326
Ni 7.75439568295047 4.707079253658491 7.418753747376642 -1.108718561408871 -0.40790474520705877 -2.829467918646875
Ni 3.796651522577661 8.20147477331494 1.1904150185858888 0.12270641259300157 1.5388731191530658 0.751401556451693
Ni 3.3622563812062056 8.818096290723375 12.587816889606371 -0.26099422456402793 0.8026094467840758 -0.4829884137157746
Ni 1.4564119752074904 6.85423370459737 12.430678604937752 1.431858149153392 0.5489120129917773 -0.008265325332585765
Ni 4.166014788140516 2.3709163589960824 8.6483333538284 -0.9255305464910448 0.9579706692976212 -0.24399691867508305
Ni 6.567793261158317 7.763253137470063 7.698058195553151 0.0011505686646754378 -0.9960625910733362 -0.18434449711977283
Ni 1.835864956222057 8.136572609183405 8.27232885039981 -0.7631862077914469 0.15071035400509528 -0.20241112481349657
P 1.540140862753056 7.874647672709671 1.5240714389886398 -0.16241350137463645 0.1521342309358154 0.08101931726686047
Ni 5.539865280896027 6.169819305682804 6.027899906781846 1.8825427085301383 -1.6489145346838894 -0.16760095911284684
P 6.1951501431896725 4.019385002338135 1.8170178495444884 0.09379769997845136 -1.8089199408376653 0.5300416584498355
Ni 2.073830292917897 5.762154034906563 8.056569226305546 -1.022119693171704 -0.9751703210053593 -0.8379672574580794
P 2.7497485769846945 -0.21697706083471693 6.4349842545472296 0.38687312134774016 -0.28861687137730296 0.12486896746195913
P 1.5887549462931227 5.0448947863351385 5.992778617192493 -0.2426486321773047 0.5887733679630892 -0.7293306926945826
P 5.920216978530259 2.9555546828881636 9.711281633874327 0.999655450630917 -0.04635621866703629 0.7784058529546788
Ni 4.907511590083546 4.4105490947677275 12.222390373442442 0.49760282119483973 -0.6708280684729995 -0.25574840278405636
Ni 2.7205819798846123 1.2231347891255773 1.261810178666515 0.15471510428911417 0.16577521875801773 -0.8219559696314875
Ni 7.358070918797641 8.166656453142734 9.984171839619965 -0.24968805552258935 0.6107555286611352 0.25037633983886554
Ni 0.86128738873667 2.674126669255702 0.3891313251475862 0.8784194519358549 2.1781876903988167 1.6120513431089527
Ni 8.237775512653608 7.966372358634325 1.8355545747090798 1.9597781332745345 -1.5847444277638836 -0.7265693278993616
Ni 4.194959022365628 6.439471352061705 13.053102866870896 -1.350583521342616 1.2001783572827653 -1.3240397094158165
Ni 0.23474941361660293 8.352635202694813 3.864453669203582 0.34431750737371675 1.4339877939018855 -3.0400050150016162
Ni 0.4630901438742076 3.2130230967427305 10.67697487799273 0.8506211987766641 -0.639569367569034 0.0679290597418056
Ni 3.247461547003532 6.1686055749902655 1.8196074505258963 -0.352549922585838 -2.646771755763803 0.004968142638552733
Ni 0.9462096237112351 7.62937215649923 5.913545165769214 0.3511052197195115 -1.747907405710035 1.597221991405604
Ni 6.633455165112664 6.295509920758951 12.007986236373512 -1.4694073110517598 -0.011251147433787075 -0.4477699568331127
Ni 8.131597239855976 2.465781920529672 8.85386891823399 -0.5495565885543116 0.44985692126912846 -0.22471955850270975
Ni 6.003186126253015 0.5793822214350044 4.703180491250704 2.645968543136217 1.2633961275918306 -0.7695756562575585
Ni 4.9702457161841345 1.4425142955219368 6.487734287561717 -0.8151209489875253 1.0761799653512176 1.6170904481947568
Ni 0.10843988853845903 4.007794337480383 2.491269338560998 1.218000473065851 -2.7368904642287704 1.3061803126368923
Ni 6.938592620288679 1.3857747019257165 10.8006049304275 0.8813880476458755 -0.213784913868077 -0.10789377306020129
Ni 0.10902451759723132 4.6927553784625795 12.618382519794798 2.3069472511644333 0.11373120567758478 -0.7146941737283304
Ni 7.431450667537365 4.289472509347184 13.348272906176431 -2.2645569591236807 -0.43524688466543754 1.1358532128421341
Ni 5.7262053701199305 8.81873558398891 11.884681389643386 -0.05241579459755489 -0.7545344456537199 -0.5854229634336177
Ni 0.5947882626224302 6.117712271981767 3.9190622852480175 0.42951178195387324 -1.0954624677299132 -0.3353348442591322
Ni 6.963571383243514 5.64861925699538 9.286215541619795 -2.080133014916224 2.1127112059625617 0.03027962482014785
Ni 8.531489075128098 2.183269887881737 12.50568160266475 -0.9239297776628281 -0.39172453590277057 -0.413659645412965
Ni 8.594464094343236 8.969006561868907 12.12585338429867 1.1763270045864644 -0.172733909464038 -1.64232171195772
Ni 2.3699805818972557 7.543919956672654 3.5712098483024626 1.5640704443542999 0.5461205662895691 0.19810709812150398
Ni 3.662131248341292 0.12949579977405185 8.479071659914085 0.8172225687115602 -0.8175794378303468 -1.0603867070727029
P 2.2991672713394644 3.5980629449908896 8.616370543575584 -0.4769056978568045 0.43874307074415403 0.8960939863974826
Ni 0.9551875247881028 0.6217896012275028 5.557420829874818 -0.5700791339876956 1.593324713233727 -0.3426419194435067
P 3.7062702790226103 1.9726366545674858 12.478113238728506 0.6489754913742823 -0.5533438235108857 2.080641064900894
Ni 4.3599430104727315 1.0420572879426035 10.588832087379032 -0.3805811176914413 -0.11914157805987868 1.1737124497817528
P 8.068631485760628 6.517205707102902 6.204511620225862 -0.06206797297533826 0.25807807935849747 0.54429482593474
P 6.177388908551535 7.683980772543665 0.08985683777491571 0.3667167010045233 2.2544800345036524 -1.3525465586062577
P 9.172579773902898 2.0316462025123467 3.617762442689173 -0.043376052992789814 -0.1130388075962505 0.23469158211375712
Ni 4.930164807970997 4.291955561451003 3.812138170307263 2.1554704513069587 0.46901703913734705 -0.9621610532298849
