# total energy = -340868.51012512116 ev
CRYSTAL
PRIMVEC
9.25991242966582 0.00000000000000 0.00000000000000
0.00000000000000 9.25991242966582 0.00000000000000
0.00000000000000 0.00000000000000 13.55281784710540
PRIMCOORD
 96 1
Ni 1.1403859619278804 7.57693238275519 10.982647513033832 1.4181369429125577 -0.574748514438907 -1.1717566116069627
Ni 3.8621426824584395 9.112762893367472 8.155529659993244 -0.4852892939348094 -0.047062243595125404 1.1157410154732912
Ni 8.981049902839738 0.5459644208039416 2.8253149481435322 0.09618368371212466 -1.6337712512845477 0.4761904169573348
Ni 2.6161196426382363 9.11054977436184 5.71267501170692 -0.655911042151851 -0.12655869645955622 0.14734503707728816
Ni 3.882042233684825 2.7946692688584123 13.296452321528907 1.2234512117677767 0.3232362612233853 0.229198934430302
Ni 9.103641879892374 7.858405932605554 6.501245427071495 -0.21102020663874624 -0.7701389849601963 0.2816183285722827
Ni 8.068920775593288 2.4945832955715517 13.420826831671853 0.40148572905459246 -0.33020600767299907 -1.1158217481125559
Ni 6.969222867685295 4.2273906575973585 5.205555922403531 1.8767322724959485 1.3825749866475479 -0.3641016319791794
Ni 4.334879717921174 0.9532060975769496 11.965145490738482 -2.081546350323983 -0.5456629099268603 -1.4547671925410817
Ni 1.6701825761048938 5.76836967936919 6.35164969418527 -1.2207628663023364 1.029321353126466 0.06998157139546012
Ni 3.8501881358631564 7.358731812676764 10.02687549379805 -0.849821328583188 1.9975185852481017 0.3719005591983079
Ni 0.631335254948444 6.331298259245601 1.9049843166992189 -1.5412989549857392 1.885207399846495 0.6687884123351515
Ni 7.51677999338032 2.068062481686708 1.9051602550302105 -1.74249446222458 1.0274416196052498 2.0051226228476047
Ni 5.493998482143599 2.1008796103727523 8.233417559123302 -0.08838604204457681 -1.9730823065826084 0.23377884049150058
Ni 0.21472254707208482 4.897715698676011 4.326642100065897 0.07702202318200929 0.6884169851993562 0.17156945684229163
Ni 5.5143795488021725 7.419189779152831 0.8638229434946191 0.20859977012271172 -1.2392300718685882 -0.7343469149622515
Ni 5.679539342042659 0.39817344479720573 10.289312516235105 -0.4542439945932306 -2.821272527320277 -3.5036109104257207
Ni 0.7085268086842604 4.287941223195001 9.42639148818462 0.020856788844351173 1.9204130012133507 0.34380662917556915
Ni 0.6530645648171437 0.7783808080265043 11.432330145198135 -0.8780592403829588 0.3264434553067733 0.506445102076818
Ni 7.361769063864411 6.831907630302295 7.975752169420988 -0.5709000872270942 0.2544278842004199 -0.40547788093312104
Ni 2.3956966936420176 3.221921615803695 6.367804536935179 1.6160897748443843 -0.5595396679089525 -0.5302229212227062
Ni 6.183797118489394 8.782026610839413 2.7830980826264486 0.17651625932460566 0.4857299810166538 0.6675380848678181
Ni 6.536034917047079 6.184741629529454 10.42868993605557 -0.1553877048761066 0.14164233026555606 -0.16073097146589094
Ni 4.046868670087643 5.408585052403173 11.10001504764723 -0.2783671686248367 -1.0154366247245739 -1.942781598716538
P 3.596410983275761 4.982221657025007 6.6451222382092725 -0.0639163390379867 0.5717439232846283 0.2530842256883319
P 5.511601575154934 7.6325103755242765 8.755540484095425 0.6786979581393795 0.9070049768830314 -1.1069182749753388
P 5.693790346852993 1.2306886252874467 13.408737090359072 3.7398130156467335 1.2602539824184231 0.7171012405079263
P 2.6137491051259256 9.387884143477818 10.712553469233775 -0.3506408784885832 -3.680500751039661 1.844007528569418
P 4.0792320630779715 1.1794164916715815 6.52867699084676 1.0901492830471162 1.3947126504513463 -0.36486602094902965
P 7.64420564457915 7.2396400824196485 2.2442924999114404 1.6906062579957206 2.024183753244114 -0.48340544664853513
P 9.021237921603122 6.060844004862617 11.986910914264595 -0.28105988496565143 1.6331228190672713 -0.3137707449351112
P 1.907912300923408 7.951106913213903 7.423122463846105 -0.02790006884437776 0.12459000276895962 0.7047031239538896
Ni 1.0670659774650988 0.3343763539971576 9.082041282802663 0.6107611850880901 -0.33420972951575345 -0.6449712553108956
Ni 5.77967603211345 3.857058990683993 9.563694687681817 -0.42735771172534787 -0.1864558870358208 2.2607375853775906
Ni 1.9486003549432949 3.435557049188494 11.296652986275792 0.22483577236559985 0.4404528543464092 0.5729374293720971
Ni 0.2387020155950476 3.4539379748210557 6.240110348283782 -2.6473631094908985 0.9061218029471299 0.7428680650593852
Ni 1.9276914732917463 7.257650611565912 3.927349131888853 -0.8571661989840335 0.3746776077228128 0.30636648205124006
Ni 4.4365165137614735 0.1752651353779248 1.0341210619912815 -2.0617457706582876 0.2850666921321993 1.4042586422685686
Ni 3.7488661770362106 5.839041328954937 2.1067448387332885 0.9659652574673234 0.6073027942258444 -0.31380776882063377
Ni 7.030403107309644 4.374289904063331 12.336248508334563 -0.24751521624098663 0.6997041280774015 -0.9949284774688929
Ni 4.941681761599639 5.543400113503657 8.233458302736794 0.9184265884564118 1.6013861500856228 0.17799207253918378
Ni 8.309771090808868 2.5310117899990057 8.586549865195398 -0.22329928111641542 2.29690323666487 0.8612979617642199
Ni 0.011994364217560137 4.629428263737873 13.42687077633703 0.426742189628536 -0.6802383060433059 0.18118821087897827
Ni 1.88386430905048 1.3092682398556668 2.1136703270358543 -0.29623942091956723 -0.6315683516414284 -0.3169000345927123
Ni 9.263338324959957 8.1576029543253 12.8570018922986 -0.08220228183136812 -0.17082897913184128 1.0488627655935032
Ni 5.827799795595778 4.46199053210665 1.027570600131093 1.3917615382428223 -1.581556259843889 0.3908233642447398
Ni 7.644483441943874 0.3192919570926525 5.259184703663469 1.4577309031550958 0.3669177612717358 -1.48792311046776
Ni 6.046157784180884 7.060145945159411 5.820488168956247 1.6364806797959106 -0.12429612567762464 -0.4056501448449272
Ni 8.154834240590217 6.925266064673824 4.411794400283482 0.07420666522040123 0.44669137905695333 -0.26570834221024564
Ni 4.9094294875552 3.3268919800206813 6.37437814857576 0.22570171991032098 -0.6470227385232856 -0.1725189652397545
Ni 2.837061146715272 3.411953533099124 2.2059110900099776 1.091828727632068 0.28535079903152144 -1.0986537209737013
Ni 4.891909733753282 5.201218579548975 4.9860950782804725 -0.36448755456368837 1.3019572756944804 -0.9821341539177022
Ni 7.576228629431224 9.18343454295322 0.7321016190459423 -0.27298867792174275 0.07074827435815557 1.548455106414546
Ni 8.734384362789273 2.549716812557078 4.075603103503462 -0.3421634371451914 -1.0657078621753 0.9712897550040304
Ni 0.2441246201544572 3.694056756976195 2.1979688633525223 0.5568191836539959 0.3844961364751314 -1.3907757772907854
Ni 3.1152937273105237 1.790885531077407 9.822363851862 0.32031780202500965 1.4400831081663459 -2.116135658263078
P 7.8079949708203324 0.7683652870369937 10.063739204096906 1.119179351730879 0.12971549692098305 0.5812981426319667
P 2.0781465260261838 8.267564411195156 1.382035407562648 0.7181818751666147 0.036832852557633335 0.5637256809658421
P 7.644955697463905 4.360446335387926 3.0405745701207496 0.3999937178900982 -1.7370727769883763 0.45044750366527586
P 4.491900048375252 7.1192149248118595 3.8560478082763985 -0.359340206034794 -0.17957818607938106 0.10477451070492924
P 1.9738336155723777 5.04108691860999 1.1838918072172826 0.6690362666798993 -1.2341256607624873 -2.528664789616026
P 8.664147929074927 5.462449961423127 6.587902463014669 0.11680675927911495 1.4963604426018358 -1.0643030114079737
P 7.090314738968422 2.2655115886202637 6.678082895533758 0.2017169269599494 -0.26606289733618693 -0.7725504226151663
P 2.2919393779176596 5.902036511362149 9.494697230214138 -0.16855612393726452 -0.4300756248771432 0.7808643417975004
Ni 6.247199737031534 5.8381523773878214 2.786161261568137 -2.0021892512508934 0.5996262515171931 1.4135593508442041
Ni 3.548907633907983 2.121195857646223 4.526356181513167 -0.15713245548135518 -0.656106960212741 0.1569671335480845
Ni 7.0165410188099235 4.490196224538279 7.543755969477437 -0.0025106822369956763 -1.0428453557548298 0.7583008546746876
Ni 0.3881153282117708 6.829944528924913 8.672718903767873 2.5022505612885553 -1.122008336539242 -1.1732607069563148
Ni 6.32196426779088 2.218378635738784 4.516991632348326 -0.4212757671973261 -1.8379011585613638 -0.5830328659348862
Ni 2.676003494560541 5.090571889179466 4.022639183936429 -0.31557257403054034 -1.5137313297801158 1.2264959121313717
Ni 6.460622192436712 9.104558611195962 7.000477849190375 -3.4296310165041453 -0.7891450937490538 1.384698460748454
Ni 3.919933794233158 7.161319745391838 6.74178090527372 -0.7968728014106147 -0.08867760514306663 -0.5837558601438397
Ni 3.360709179219731 7.746148017520646 12.683173895287513 1.0000082059846453 0.7207951444197457 0.0225935690297998
Ni 8.212532753243362 7.845877271456509 9.948784802591744 -1.1685427326553552 1.9313679575629579 1.6260882808179933
Ni 8.276444666954163 0.48301183399265407 7.966305207037945 -0.2346566151107636 -2.483506705022149 0.3598053185966707
Ni 6.640107069784791 1.9495633858076709 11.464802805151923 0.21398803101781855 1.9242025501627695 1.37358923820917
Ni 2.106139240478191 5.867811876028171 12.527302719932177 -1.7496318446003092 -1.3715251565912896 0.5279341251885294
Ni 3.3094370456038655 9.091057659270383 3.465780476479233 -0.4822577061973372 0.010070239751808463 -2.832050591772387
Ni 3.45530844182036 3.898487837676477 8.691245210021307 -1.7912950286670504 -0.3394658357083702 0.3143952658929876
Ni 0.702491197940027 1.209150069609191 6.628709969901387 0.8376875214341316 -0.898298450247969 -0.6231086509098495
Ni 7.62191703601614 6.249672133577576 0.3666443698922644 0.06521731723759736 0.5345685997859116 -0.7696296494239456
Ni 8.903896314743767 2.9854327192142813 11.164417736702374 -1.0635285951357942 -0.24535523247519034 0.4131775635702239
Ni 6.816915832519365 8.48301478736282 12.333497388432582 -0.9480703794647736 -0.3431576827376606 -1.8440052145765724
Ni 5.005158459439039 9.008348123879934 4.876534575607033 1.0799949682219336 1.1126538919075355 1.8111398313071196
Ni 2.270882337671592 0.5843643505297195 13.30340466357673 -0.2883780158936195 -0.25905741255263126 -0.30914841567175144
Ni 4.315507981687764 5.219071690188562 13.259656208588801 -0.9910085735891965 0.8285963577661407 1.2515415422460898
Ni 4.816034013535041 3.713734070310801 3.2297443895943188 1.364929762761959 -0.3278822446358288 -0.6340391817794242
Ni 1.6336614825558649 2.9853864196534934 0.10677234312282785 -0.9260000299282956 -0.7330940163917569 0.09761064596663835
P 0.23138205503457415 0.9287877092177231 0.5098989149330598 0.2179045924634054 0.573704903665741 0.1595210103181898
P 7.786761992243273 4.400032459861074 9.910579331021273 0.11422537170518393 0.1937627051098792 0.14079952264928655
P 4.063610591268334 3.265943238200268 11.02219474587592 1.492603803772881 -0.5726088423880847 0.6562136609939344
P 5.385250073766369 6.818425198201031 12.21111561138592 0.14076198454313177 0.19553753762211487 0.8110202965555904
P 4.909151690190477 1.452194984006088 2.925253476094153 0.1502825224390573 -0.3031405189147747 -0.08392029296373935
P 1.251430828520161 2.7907430661036488 8.169964011064295 1.3662690503986727 -2.4131155568930955 -0.5315357264968588
P 1.6176696142599285 2.832329331602809 3.812516035232955 -0.7923394323166355 0.5540128245534524 1.3430255064896999
P 0.5381027553822567 8.959835444086993 4.814421862828428 -0.1386343966771677 0.19897870209317992 -1.4288936672084294
