# total energy = -340884.47205105494 ev
CRYSTAL
PRIMVEC
9.14929108182811 0.00000000000000 0.00000000000000
0.00000000000000 9.14929108182811 0.00000000000000
0.00000000000000 0.00000000000000 13.39091232277466
PRIMCOORD
 96 1
Ni 6.8074658023222625 2.6248766454243144 11.33579568080592 -1.523869189545066 -1.5082214557054798 0.5548592317141476
Ni 4.773834629374229 0.4669120995743406 5.910159167691773 0.3673615336773738 -0.6202788947705382 -0.0895037005887878
Ni 2.4823764406361915 1.7818243905288549 4.633001425376629 -0.28025950055154314 0.9541903763195825 0.04739263035135064
Ni 3.836608723892307 4.3235248329529234 4.407471406241655 -0.7290085334684735 0.28583725174963676 1.6409135187562836
Ni 3.3424646750703664 2.9433817580460886 2.6753432187527775 0.9397307492508268 -0.12843534465697878 -1.278848971811791
Ni 5.314264940541152 4.8772765115786925 2.5908733060281635 -0.6692938912166603 -1.2886209635968902 -0.9417637205204554
Ni 5.52654678654398 3.3163525990212297 0.19528063376929278 0.6725689624235062 -0.26557155952206524 0.6555253766776581
Ni 6.0498679238454915 7.977449666700483 12.566714737088434 -0.5256196181227398 -0.9537301488537124 -0.8063915395343273
Ni 2.2399019348708737 7.064679815626179 0.18402700603963687 -0.36010999432128304 -0.7916197805417915 0.7787310975045815
Ni 1.1122060927418158 0.1680724726778694 0.14718464169672754 -1.3955911964015577 0.0690631733462488 -0.6737575834149687
Ni 8.244032553821608 9.032884409797978 6.991596195348359 0.13036290069699485 -0.7413477717601168 0.10365633794008598
Ni 8.572766573599282 2.257733902712418 1.2475131250737959 1.1304209860829693 2.739995328406339 -1.0153504927686707
Ni 7.525932163888679 0.802956402730871 4.876300282246372 -0.4803016109122309 0.0509662066352219 -1.3102328854397112
Ni 0.7538960754040734 7.761480656490298 2.365009337777634 0.673660138605156 -1.3374217871496774 0.020875815007744693
Ni 7.997047447673591 4.1175834455002205 3.92902754049621 -1.3945213603761468 -0.0010338405811530582 -0.531838088228626
Ni 8.225916957964113 4.2089299652180125 12.380648354121204 0.24905710680680979 -0.35297826837250823 0.2563906643537455
Ni 8.762367327616891 7.516087526947938 9.201940431240839 -1.162073322880928 -1.676357204275874 0.33132803709258424
Ni 7.1184776457484364 0.764195432099418 13.319511982662968 0.9579115339249116 1.1364756769174813 0.08741313660834622
Ni 2.2575234690231643 6.911749419283741 9.196825062733804 0.27865256107573944 -0.7967141643455633 1.0867045190316251
Ni 0.3822326680895565 5.2289295049033475 1.1345687894059013 -0.762208674369526 -0.9633324478301668 -0.39246707049574986
Ni 6.749806971466741 2.005744134476496 6.8621730719537295 -0.09813952188691485 0.9197249955528612 -1.9704600384684128
Ni 3.6388468024479876 4.688124072812102 0.4352070620364734 -0.5935684753588875 -0.5243608060149743 0.7496269810497735
Ni 5.8491050350065965 5.875949054322703 4.8070959612834905 1.0417675493096188 0.05470639040394449 -0.356554929980173
Ni 5.555550038497645 3.364322330880243 9.183661063077357 0.9899909309579595 -0.07461778461589084 0.32123260052979513
P 0.5573638186482629 5.943534865736498 12.375452471854803 0.8319560182669931 -0.9002920836392301 -0.2964137417139024
P 4.272105818448317 6.398309516086318 12.746742588103166 0.23541534765365907 1.1581606180900827 0.23356312493626874
P 2.954900715210021 9.03926146551145 1.2908633799891478 0.20895715346213045 -1.3127260841752102 0.6258674446019091
P 6.753667972200005 7.837575308382613 5.366742527995614 0.194466158934807 0.6375484804842633 1.566797613477476
P 5.0057142563501635 1.5340615946596823 12.399234223527726 0.9943391806243262 -1.6654906938750158 -0.022047723828658803
P 4.301749520760581 6.1858538335575854 8.496574024295008 0.6340229838295081 -0.001523121512745764 -0.3631492953682391
P 4.463078966091494 1.4226689787177627 3.9476673907186712 1.2797776542736476 -0.34421826279169104 -1.11742997313994
P 0.15283249893048084 5.7840352785730085 3.296909441063269 0.9544233182659949 1.130238180648202 0.905460258103731
Ni 0.6598038535060616 0.12692079235067716 4.315957454501543 0.6734307962031693 0.30611374261048574 0.6730114492775636
Ni 2.0061558525641665 6.861419170388752 4.659461174477577 1.0117175240017737 0.38813064790392515 -0.15569238060071897
Ni 6.662028675175425 6.117307346605893 9.0355175757009 -2.138157413949808 0.4293873405608669 0.2970637165930755
Ni 8.881976006730543 2.601006145630272 10.150258022004598 0.8807457860761864 0.5116788396719316 -0.49407423921629107
Ni 2.810305322820198 5.62621916092355 6.917811739392416 -1.307911436395386 -0.15498815544484273 0.8434087401886249
Ni 0.5290092514149486 0.3030803231994757 9.26087375830997 0.9242930745395179 1.7999588749896356 -0.7864690895787875
Ni 1.5630282494499996 1.3810397054088728 11.30404581174295 0.21738651517640628 -0.38823991978827976 0.7287267405619966
Ni 4.761409892417422 7.067452050749826 1.3521069029946524 -0.054067728378681075 0.12805867804385043 0.7064316766092221
Ni 5.926874007122105 8.222925139860376 7.836441711247894 0.3827629558341086 0.5279161274664005 0.6363238640485428
Ni 5.872554667422132 2.8720904838432606 4.692684079365321 0.33174532713566096 0.5248850539495606 0.01570892609482456
Ni 1.1469733979228667 7.618568733614504 7.216563533096851 -0.6678736138303659 0.32476915292814396 -1.0492636005763478
Ni 4.978485966818899 4.669706550356982 6.715488896465793 0.8174483115691211 1.0206060847406553 1.3060790111723377
Ni 1.1551986103854366 7.834272414390413 11.367290284654532 0.03519197452010068 -0.4928370243750803 0.09973026341280243
Ni 4.744007941245223 0.7154132432140687 10.14366961767279 0.17624809326488355 -0.5657023450762386 0.8110236389897
Ni 8.91936000909101 7.26754704135761 4.9996976826956745 -2.856430306168332 1.3707093455582136 -0.5320188367808645
Ni 7.9733416351146165 6.34552725724698 7.187759735683434 -0.3104218830675363 0.06729322593001959 -1.4259142728651313
Ni 2.346363083051586 5.672249243125094 2.4183314047763615 0.4988207527623409 -0.37758629672917554 0.19079179540701335
Ni 2.700504683483937 5.442281817934116 11.568998295236902 -1.1837454085377226 -0.7205490898472106 -0.5336445453097455
Ni 1.2507812517608148 3.8596100410568233 3.8874751212303518 1.1324313316447787 1.0181995321816915 -0.19491635909834817
Ni 1.4509402874044592 1.1606332891426847 2.2741513901905432 1.1368947667327711 1.436510817434055 0.10699105874027379
Ni 1.104502389856962 3.5029432363534276 7.883002452317991 0.46265767257822255 0.6361688265279173 0.8053343019144066
Ni 4.087674413753679 2.662855351689194 6.473716141307682 -0.22367980438428575 -1.5887190961409154 0.5730361597334905
Ni 4.423855956272766 7.2113978434902135 6.284797009457438 -0.2687252746596985 0.27191575657253814 -0.46910368531388247
Ni 8.617918323880462 7.268288133915417 0.14914258993587093 0.030901831785179038 2.1307660065817435 0.27800669996162447
P 0.6919636107985337 5.689532253516411 8.212056697274964 -0.5828942834744929 -0.051794358963472086 -0.2835016616379247
P 8.702878638593946 1.8933176486699825 7.698421914182709 1.3085701530253078 -0.72355496655307 1.315090727752645
P 2.1506597520456183 3.363626984776622 10.378680131973185 -1.061070877623921 1.1675551719311053 0.2064927510820379
P 3.9001962952102813 6.378290867734702 3.826506991879044 1.2220139651006179 0.9311671759515319 -1.0055108809704296
P 7.150271431407424 4.475073686378957 10.281341741686164 1.7817932598242026 -0.46410443232707815 0.15806910836301166
P 6.618240169228976 8.369075911692509 10.139464603604049 -0.1452066505780467 -0.850257130569026 -0.09761630239359316
P 2.5350031615312982 8.654716771627353 5.861590157282929 0.32075617511400883 0.30771682543154744 -0.24793276339437945
P 7.131643475263051 3.8454103416776153 1.6611022427203255 -0.7691840772460946 0.9945842067555969 -0.07837519477579405
Ni 3.1653435537545866 1.818622838275746 0.33541666180510415 -0.420385908393205 1.3525146769270577 -0.05220573546927783
Ni 1.6009337613881822 1.309492251062605 6.708257296988134 -0.7006166125893418 -0.3850481523238594 1.3491089936796186
Ni 7.049409649219029 1.2858596328303276 9.109181261017794 1.1679909739169434 -1.297799544772365 1.369864738169731
Ni 2.6807971110207838 1.6977973034807572 9.162637822591826 0.11319435933750828 0.6097702819297306 -0.8594596230039003
Ni 6.3986388905564535 1.8162074254947465 2.485433218704873 -0.3959547719340342 0.32663423116134066 0.3172880140597504
Ni 4.277641139404774 7.080517238065231 10.680698222506471 0.46967189911252655 1.5714983613872548 -1.2511890440026774
Ni 7.646263636978462 6.520498295216037 11.227382073960566 0.21950921794636388 0.19627364445719103 0.5574804713870786
Ni 7.782880847758318 3.9184491304303335 8.088231110014483 0.22113955446093528 0.6193340143587657 0.3602606609665344
Ni 3.3707634316295745 8.832588134791777 12.510352360744532 1.3715128152961154 0.26329664744495945 -1.6725967087921774
Ni 0.35582506994638097 5.0278921373393395 10.425012140772354 0.5196376895076922 -0.34825438053427765 -1.3086634840700622
Ni 9.020542016458705 2.9463735761498264 5.76608619980875 -0.24579669088798312 -0.2803608020160978 0.19614997439513315
Ni 3.899244768963221 3.151491527427189 11.700135080805323 -0.41757106465222926 0.9227007903517334 -1.0383173859774892
Ni 1.3475258530725072 3.3067092464789067 12.730512661087202 -0.0205647115252291 0.6513452771580395 -0.6522665034207282
Ni 3.1104020622776893 8.837903872768143 8.067046842010217 1.6250940352255239 -0.06870733266872683 -1.1984351493394134
Ni 5.3914026115889 8.147361146836614 3.701703345428076 0.37317325526314443 0.361763470764306 -0.614086135696265
Ni 3.019073841141571 8.81384123786652 3.5703515515249826 0.42451535718054634 -0.5457883797611309 -0.3820006237467872
Ni 3.4991096834926747 3.8735444110017547 8.701106420958796 -1.015445109365006 1.695517322144093 -0.6500561260329707
Ni 5.483197446557711 5.163841449888085 11.46622248140538 -0.07668597999882923 -0.9979688069571134 0.056738847452941
Ni 8.402434226084644 0.3084317434101064 2.1653370444065243 -1.4511640485708557 -1.3757461366511727 0.9757686167109906
Ni 5.112559674746035 0.4086622245307411 0.891126288670016 -1.0926789914475052 -0.6555053220730002 1.408952191089496
Ni 6.864035867568167 5.640647592573686 0.20276749846130698 -1.1250365818426042 -0.15395508619463807 0.9804521382295888
Ni 8.257793087240634 9.013442166769101 11.412658873128555 0.04116027628839363 0.25021256056749164 -0.6418345094541268
Ni 0.6244354399170121 5.443013761201086 5.788596200055313 0.19438131253048457 -2.9478065411894843 1.2582004423235043
Ni 7.197683056525372 6.208635567742011 2.6249269665239185 1.049374158012283 0.7946791361934056 0.05964753645930372
P 0.0438964675783278 2.1454263576867865 3.6385521952830326 -1.5940379372506677 -1.590061726211739 0.5248295181212768
P 1.7342114810124893 3.481094729834388 1.3955870778398916 0.7004901143138066 -0.08823074741363515 0.46668504857006077
P 5.216550514400725 1.4586805874526616 8.113848209429332 -3.164425582072247 -0.8384814780903367 -0.3708487208950258
P 8.784874583076203 1.8153382428652205 12.313090905509004 -0.18313170775859428 0.47434385066689916 0.4222363313383825
P 6.9683652309838315 8.038832258926712 1.36976960895571 -1.7366030364408092 0.13010270505707272 -0.15502697910257815
P 2.303251624627083 3.6959109293990964 6.032525443063732 -1.1326588742745527 -0.46662951274177694 -0.8279623237265676
P 7.003782135814317 4.406307616447173 6.061355773420578 1.0226927920663547 -0.279885405041576 -0.32455780824828623
P 2.597858789582303 8.934895504932436 10.190323681509424 0.6925006683504267 -0.7035294153607625 0.4984273739786642
