# total energy = -381164.9009225409 ev
CRYSTAL
PRIMVEC
9.28091731253872 0.00000000000000 0.00000000000000

0.00000000000000 9.28091731253872 0.00000000000000

0.00000000000000 0.00000000000000 13.58356061640031

PRIMCOORD
 96 1
Ni 6.5053476227429385 3.577700816750091 0.244363768696425 -0.3821379206555999 3.04914245852651 1.0547498205018997
Ni 2.0552034544719895 7.66629756999778 12.572359376760504 0.2869420547780413 1.2671000588059793 -2.22857668437433
Ni 7.0146750842138665 3.682732958033032 11.31791810890712 2.33861167214725 0.3966055181441557 2.0806264096128744
Ni 5.74641917093328 3.8800823838738423 9.66693108682592 0.2632701650823982 0.4155347509484908 -0.6990425832340026
Ni 6.062313753671413 2.267587966367263 4.798922897248697 -1.0971401125426523 0.6072135769461479 0.34111339861412215
Ni 2.1307779641889626 5.561756759065589 12.847005850572431 -0.15683369329401378 -3.9995743962449244 -0.22276346321760346
Ni 0.8154399573563426 2.7167286790337495 8.701533779819208 -0.33708396573975496 -0.4721324448378772 -0.6373222234060701
Ni 5.0858591617725475 8.011399199534306 8.235767231870026 -0.3923667974724597 -0.018055057729497937 -0.4022701726291008
Ni 2.930635261369105 2.7513000960416987 6.894648692912661 0.3813984713864141 1.000232920400942 -1.5593488705089145
Ni 4.851274695653646 4.700246328144828 11.749969868516768 -0.5474284864677154 -0.12347902909296798 0.496793437919667
Ni 4.285194424785776 1.7995605869595213 1.6493702862844801 -1.579782712883234 -0.3897967227524383 -0.4865352505267685
Ni 8.451685917079832 8.15029740810906 5.158696728972569 -0.05981260128225828 -1.4448198515203827 -0.5563769539102547
Ni 9.13071495170253 2.1258776398452857 11.05651550410737 0.0006664299394053039 0.9386506288127704 -0.6506374524577375
Ni 6.451518302301032 -0.12431510319365599 6.596666280597438 -0.1812658581944491 2.2066621436894254 -0.7671593335065819
Ni 1.9860142158695047 -0.007714298474364253 7.259136302542126 0.9031920308948445 1.133713797901628 0.010828200963755545
Ni 9.370199742165106 7.649833222676412 10.931043998615944 -0.4772093451401523 -0.5269375656032151 0.6684366854226875
Ni 7.932056637386399 0.122065408835877 11.489763573959248 -0.33081175957779796 -1.1420760538233945 -0.42371343010454127
Ni 7.142436192007537 2.2903076519606747 7.083596104305874 0.02635123630001913 0.802575765332663 0.05260579912117391
Ni 6.108681216589993 7.4217361177624905 3.5524131013349076 -0.734164109527484 0.5440999363151144 0.5367640647753337
Ni 3.61624446636996 1.897864063187224 10.914119317795624 0.16082841627570366 -0.2904598381233126 0.6837391201077128
Ni 4.124272599416429 4.07182613565484 1.0446684060912743 0.7621636800642035 0.047470277666821464 0.09692518986383952
Ni 2.4095860013260855 0.18221689015451223 0.12482833792131762 0.09002409186863206 2.043659088359906 0.9671675053055407
Ni 6.472957221304618 2.1367363131068426 2.08758921545165 0.6374775180370118 -0.13582495225283062 0.7023798751373517
Ni 3.6661108351172635 5.854235587411491 4.3610566429395945 0.37496120040150266 -0.05403507536853275 -0.28488851468312226
P 8.195541880032215 6.061608403955278 4.672962287414635 -0.22427064389074924 -0.45675904770560044 -0.49571126059908177
Ni 4.079436487855248 8.903165420910344 11.368150145796738 -0.06220655543573158 -0.45430364418657243 0.33715647084890316
P 6.689100504713508 6.25085558897785 8.831555719071439 -0.6448347297330315 -1.001162888414379 -0.0039361018296125766
Ni 9.431639414807421 6.506572703828858 -0.1024186349663129 -1.921602907756394 0.5771121295750771 -0.07641549994626196
P 3.9026350129555376 6.640867577414096 11.5376995119045 -0.2717229238354418 0.8737253888942953 -0.3497811015914492
P 0.543445041622048 1.51463642531012 13.244623550750427 0.49796663229216176 0.11237931963538064 -0.7028318750731056
P 7.231727897519879 7.612050608276583 12.730377203101185 0.5623246868532573 2.8517876651899985 0.3877879198525257
Ni 8.168580815224674 6.940696892275517 2.436361447787275 1.7620523297518493 0.47129426520729806 0.6866686350496819
Ni 6.124616551624261 5.399062278488585 4.803567996366141 0.5046604993725695 -0.0798540933141657 1.1723003999255746
Ni 1.886485658555883 3.675605213533138 11.04653202134886 -1.3903412608565282 -0.07895909230372208 0.6821136686891479
Ni 1.75732313224726 1.1726439030749798 2.590357852654252 0.6337399053714505 0.1334345976437831 -0.8852207911284045
Ni 8.409504147871475 4.91370742644894 7.035468979463883 -0.04019225594816949 1.001055159191921 -0.259484729898037
Ni 8.134074364637948 3.759393335076161 5.19793923166645 0.1037517258673697 -0.9149162613103081 -0.683973604716022
Ni 4.8921014509336365 0.5180589484832985 3.502874348968914 1.226246258014411 -0.31833805259081954 0.8056978559014125
Ni 4.553663520031126 5.9782100809395935 9.422739015099872 0.005450738701926096 0.05707489063612106 0.4796290103252385
Ni 8.851442868699527 6.539659174065996 8.825891575232525 2.0473653335668995 -2.165415992555445 0.5595370968057911
Ni 7.615345333924321 4.406709475224721 2.8642971205665777 -0.5802185364145427 -0.11795835638505492 1.223823250395215
Ni 4.972093677293773 2.353362204216246 8.028699757505988 -0.4899638165923433 -2.7400241247617454 0.42358616049805764
Ni 8.823126789963622 2.7691751427953384 1.2548125045460867 -0.34944171597415946 0.28335716564026037 2.0922861053389905
Ni 2.0932088108874387 3.8642769816820204 4.971243545267484 0.12830113307195967 2.1318425274753734 1.6068697989080132
Ni 5.714242230593264 9.209333602299665 13.020413294009105 0.609203353682667 0.3292228178241234 0.3570465249046109
Ni 5.574332402030896 4.284516917821594 7.4596570178303505 1.7552826151281835 1.9167532929735764 -1.764351410198671
Ni 1.162453455860288 0.34285471945394225 4.733545331388538 0.10811488793207188 0.4377562813508526 1.0565791604011545
Ni 7.068309505392105 5.731838849827377 12.233572483366855 -0.1999778327816556 -1.9082100313892556 1.172079285053704
Ni 3.3872656743108704 2.1815724246680235 4.168455334398453 0.02616791664461945 -0.024392055691119283 -1.036855456719982
Ni 9.136858918966759 5.116495469837846 11.227165587008995 0.08453735772244796 0.6342798370353205 -2.0241248749817204
Ni 2.834438553372491 1.7872169669271532 8.793386090419467 0.012036876559876045 -3.053131782191561 1.2477905598440897
Ni 2.494098034419878 4.259523407485378 2.872392864742694 1.0545377044910935 0.7174138866523387 -0.8672930030053901
Ni 0.4847385991297584 3.2288775393692197 3.5740524881525544 -0.839929780501089 -1.3484834442804776 -1.0739688166325119
Ni 2.5824152436138754 7.2804898371063915 6.010494679920493 -0.5996455347909028 1.0930068071005692 -0.6663448358906653
Ni 2.536354050966775 6.63237553806852 8.262499986111555 0.5264148603305258 1.075623064406483 0.29986364793571585
Ni 4.906997323228337 2.387757283795161 12.799721433022874 0.315817600161811 -1.1543818677739408 0.13719483601716373
P 4.454181367304092 3.867172627885102 5.258603947712748 -0.6454191414815916 -0.16307478910771916 2.890459627838899
Ni 4.626908519501389 7.8835360016501435 5.534702885084871 2.1390698984617487 0.5134014787899932 -0.7416609321251614
P 0.6846458457832909 8.51276363394676 1.9435902147191597 -0.3551107413344788 0.5552973476928308 0.6255686824145679
Ni 1.9250107463411161 3.0680485231730477 1.0311405410091843 -0.5479853874124498 -0.7323314271941195 -0.925910812648599
P 6.68298438020123 9.247181183120714 2.429609580438743 0.4589406287379515 -0.4460442323912576 -0.1967223019588354
P 8.11443594359397 4.92566124795397 0.9389949534216896 -0.2679637139033256 1.3228971111709409 -1.1898998581748925
P 1.0344139205470912 2.348545408128427 5.950537169773794 -1.358275747780551 -1.338225256887579 0.02088378542754468
Ni 6.499676982261904 1.7114568388638285 10.567168001437707 -1.0663588654957377 -1.6445220620431482 -0.4946432243458835
Ni 1.8840169345494093 6.236498009887568 10.48449823043145 0.9676128203730754 -0.34893520865138616 0.0046791506432242
Ni 1.5773754263768938 5.2651664843480015 6.841849554293003 -0.668160034722533 -0.9760288123509127 -1.1752556258991567
Ni 6.198093574027463 6.950237675277979 1.2099569030585386 1.073131408332881 -0.5092648309138004 -1.4461131164105094
Ni 3.0031563492885973 8.6080229692943 3.354840933478476 -0.41512286022205286 -0.9352829978921183 0.5293932262325592
Ni 8.16003309037519 3.9596384071200528 9.048213165299721 -0.9120088578555261 -0.09805647525480532 1.3183624565253809
Ni 7.049023759206194 7.049413557733533 6.774339233633268 -0.33657540153445265 -2.3740908388904662 -0.6727461114313188
Ni 8.929885181867629 0.77781326236745 6.993727125736379 0.5246886216680383 0.16680237447095142 -1.6738159259112595
Ni 0.6619252320981476 5.3720176854251855 2.0080981586266624 0.27848466803930744 -0.8998030598179537 0.0007530761159406385
Ni 4.982126348914067 3.947331910756955 3.3042822082992815 0.8993508027718834 -0.13310086845344818 -2.628836768551937
Ni 7.891276286692997 0.904851386702081 4.750116409259059 0.05476269756317665 1.800182303854351 -0.3857042978506196
Ni 8.437198405147104 9.156859295786123 0.27694535703148654 0.15352031265006463 -1.035699745848984 0.9243010449593178
Ni 4.12548839958503 6.182186081745148 0.1911841124667484 0.6131865067001311 1.375146812504277 -0.16748525947058898
Ni 4.348545966395509 5.940984321578819 6.574973064459349 -0.16135163576902534 -0.7870288187369994 1.5088984271678465
Ni 9.139661755996666 3.772906350690543 12.975261631259126 1.0342393592533736 1.2265897573967584 -1.8081663505010923
Ni 7.590583846521043 1.9399251804704514 12.97962180621492 -0.291248395462879 -1.6597165103953997 -0.9384220577417322
Ni 3.533727830499444 3.782335762685194 9.586529572012081 -0.32455189471101525 1.4168015119305857 -1.7442088738125252
Ni 4.465132849738825 8.450702139844168 1.373175755463985 -0.8741645333142429 0.760487320803045 0.35444174029191217
Ni 2.104345911668523 7.1914208736096725 1.2608070490415053 1.161850151126528 -0.5593298658909915 0.9948932533555832
Ni 7.579817982432663 8.26099090895572 8.712971582321382 -2.7762152299703216 2.2815879464640387 -0.08075989295788673
Ni 0.19299574752713813 9.207013372970271 9.011157246725858 3.2957439047039756 0.19209611604073368 1.7513539694977387
Ni 1.5993526385848997 6.710929222244434 3.9601924778839117 -2.090741900780322 0.1911005848966838 -0.4940469855227814
Ni 0.5477012703038856 7.667893887776403 6.836904681546202 -1.42857485041643 -1.0052643121772622 0.8276100825934715
Ni 6.200961377478593 7.538907698896813 10.721653510647318 -0.3175055293871952 0.09360229613819364 -0.14927413577920096
Ni 1.378847324036752 0.2891757498725804 11.237788524970686 0.6274142202637387 0.5843155893020517 0.29377090477441664
P 3.0943692046856763 3.4873325248289113 12.848228147383153 -0.11077238015957695 -0.28461289242423243 -1.1086928503772584
Ni 3.7404045782444126 0.602519936531845 5.703044803849616 -0.08937565965135576 0.08199196559277493 0.7057703888761394
P 7.935397767620724 1.3862256533042203 8.94644512263737 0.3080420699814502 1.14891750222526 0.12310416225205251
Ni 2.8912841719426075 8.655624794216116 9.376256468806552 -0.13759309989684693 0.40113631613497364 0.2089396699606337
P 5.083891607301222 0.6020373288313314 9.294890666683417 -1.528124365276994 -0.6316256872419251 0.7372705163669496
P 4.440167182154561 6.18901683689088 2.412928987743874 0.09057687904830852 -0.12488516541187525 -0.8141560139710946
P 1.1698039423758033 4.8457618307670085 8.877848006559745 -0.3681526621201014 -0.016905774616403142 0.9842563424670273
Ni 8.72087892387595 1.0388966036114775 2.5081233566701906 -0.9087350722002608 -2.1448227417851258 1.4205987741894888
