# total energy = -340856.87267979514 ev
CRYSTAL
PRIMVEC
9.45155250893571 0.00000000000000 0.00000000000000
0.00000000000000 9.45155250893571 0.00000000000000
0.00000000000000 0.00000000000000 13.83330247439759
PRIMCOORD
 96 1
Ni 8.748990363830027 6.728333476554596 3.4279892925336326 0.8801827144838648 0.9116764142167718 1.4184850702805956
Ni 2.442281198329074 4.200581887836631 10.197855726788761 0.06617402472391183 -0.04661564297601004 0.4500006459358443
Ni 1.9173230624250746 1.5296581799534597 8.398295229451538 -0.20402706315036476 -0.33235982079120824 0.09904866396474554
Ni 4.961932806447318 0.7285266214989351 3.1840664578505167 -0.4639013151773365 -1.2705628205435988 -0.9738395180090776
Ni 4.677034655668551 7.47457136251773 2.0891333860443697 0.8362189073084051 1.750148893446044 -2.8069849070530104
Ni 1.3102214826562222 8.638936485063216 9.812763556941702 0.6537621141296482 0.07367444686601506 0.6132919219297438
Ni 6.7700053720787166 6.948951617929973 0.8474848079938637 -0.09757156519858681 0.49241356368441647 -0.6630509956307419
Ni 9.135558866197128 4.571148911609416 10.605093829591722 0.2941185179218225 0.9508973073906074 -0.2829951543151514
Ni 4.441454706487622 0.8356892703177233 5.264125408219516 0.5852743536708953 -0.10593999176794011 2.5198885860852926
Ni 4.884666363737024 4.6111289792136425 9.49321506908401 -0.7032375951519566 -0.06042940893065077 -0.26883377521310475
Ni 6.140683192088225 1.8261911920137395 10.477564975176339 1.0189760053364 1.4185220941661183 -1.2311658068032152
Ni 7.399412616042834 1.838582177505262 1.0122338766469374 -0.20547433711985258 -0.9458674582761838 -0.4973583092842015
Ni 9.028104164402222 3.4616311489474585 0.5657888432444853 0.4873346064996123 0.8509364160242378 -0.7678956974519743
Ni 0.86985474274698 1.3545303613627497 3.5959396020608323 1.5298647450068685 1.5791720758824288 1.1842015222385347
Ni 3.4575669813186596 0.4960354397158924 9.963989344098765 -1.3938968394182705 0.6983807812802876 -0.6831238551212171
Ni 3.117802567551115 5.51310954933338 1.5762496086189515 1.1061124912445917 -0.10491952092322578 -0.6411549668885991
Ni 2.8476771935253997 9.221246642296398 3.94040238263832 -0.7189264666421231 -0.3479800438269684 -0.9085859482169062
Ni 8.0896216980443 1.3891797532864123 4.0981157155172605 -1.075479082629451 -0.915377774327759 -0.14807780147825467
Ni 3.1318192200941573 3.6056822625067984 7.701455883283555 -0.2831910723760413 -0.1724395181520708 -0.6182940031300255
Ni 5.310959741787474 2.4857583404045913 1.9066021662824093 0.0061698762561377615 2.6973605244549486 0.6219169445945935
Ni 2.8934699659940697 9.076732402658427 0.42144567670902955 -0.1953760723435861 0.7495609036985285 1.0004257531380385
Ni 7.421047220001717 4.934976978360497 12.477777208968389 -0.1877326968657154 -0.4320150079917011 -0.04245739783326236
Ni 4.77061447820979 0.6569613553321081 11.671019141236135 -0.9220353888535927 -1.4510977141092944 3.0416032127266712
Ni 5.354729881994369 5.74127948125622 4.958021753971047 -0.3918389499934477 0.1741950673905968 -0.6163075688276161
P 5.380712200160803 9.33025139872182 9.048570556456642 0.4458429150137289 -0.6243646348041376 -0.0296666738264973
P 7.9447766540644515 5.704834294333787 7.737422821643159 -0.4205864544397854 -0.7386172602028311 1.262252758016007
P 8.897030032597163 3.346095369658083 3.0244580886702415 0.5166104726455941 -0.46208354524230744 -1.4257047279574866
P 2.500124700394762 0.8192133237816271 12.144076911365117 0.35545372649619433 -1.123110568464485 0.7018833951169073
P 5.348019279630539 4.657488844839819 2.5489797759139687 -0.8617962415568771 1.5226003501349712 -0.20422118143904186
P 9.393491737336447 9.15535986894674 4.728983224361958 0.1896815930619701 -0.7113175439466136 0.28156459251621185
P 9.04050460144637 2.7296556558956193 9.459820843348963 -1.0109024842996461 -1.0222341072623815 0.5605462547965959
P 5.631839953410043 5.922390132658626 11.021338316891152 0.8954553243722191 0.4630348534119832 0.6072403164190252
Ni 7.089978234649276 8.263256171320243 4.308686856452142 0.7047761432836701 1.4996563397442881 -1.5948334365687695
Ni 0.29696211254946014 5.305477841264908 1.912661556670369 -1.6873728386600875 1.4523053612641506 -2.697277734933155
Ni 1.3628099214623484 1.890253815706752 10.68080360158466 -0.2292264452341278 0.3978710151201406 0.22096471944596782
Ni 6.641445353271936 -0.2854822567309985 6.2245298057361245 -0.03668424279491101 3.6939221666518898 0.6434357925029758
Ni 9.287993506934942 7.689641442502165 1.1885308522973737 -0.15155161895946803 -0.5183513665961009 -0.644517969823561
Ni 0.9066373500981304 6.434768252018602 11.728994019883313 0.3902183836708893 -0.19330453452653804 0.1050341921242191
Ni 2.599630646431947 6.126515314703181 7.90928796426768 0.16159409079713458 -1.050017962243869 -1.4637290297200598
Ni 3.563670111088173 8.013952567727651 8.64086176633295 0.5046463583051825 0.5631129870825076 -0.22077728602551008
Ni 3.465780380549883 6.717407481719966 3.6356134393600046 -0.26425258360032555 -0.9831631094028487 3.6758516823034237
Ni 7.960343361238013 7.143681956665165 6.273942522860211 0.6310970684319648 1.157373089191781 -1.097884704018161
Ni 7.015547257726515 4.436331964964811 1.3500474899526589 0.43837231766829665 0.16553404928148913 -0.5982885065423761
Ni 2.039739572025532 6.904311934881566 13.834270657811375 -1.3512725769898406 -0.9650157490698607 1.0549567943063831
Ni 8.662442496441871 7.407654369931932 10.253686993300562 0.5508668227253029 -0.3638357799123024 -1.305212035186352
Ni 2.768473182526957 2.1131403297121554 0.07187244162714308 0.29304122569724367 -0.24891132525756485 1.5955114364724006
Ni 6.595265067145637 8.387572442998348 10.805565986546672 -1.5315801850360784 1.60791932321845 -0.7972679799665044
Ni 8.598559452248734 1.5082409617049546 7.057626515168779 -0.8163458225335619 -0.5285578748154575 0.3272440968311977
Ni 2.1211174401277506 7.502510152077562 5.689236397036564 0.6307952209208297 -0.8414297620853831 -0.07721948390479605
Ni 5.049851148966114 5.365221105408245 13.008782448241936 1.4066911629694612 0.6037464443331538 0.7349477817710439
Ni 7.750868600407643 7.354139678968546 12.404018237437272 0.8481637383751071 -0.03638908015199539 1.6243769545538411
Ni 0.603063876487404 1.6326422973566854 13.295325169177472 0.06380526738141915 -0.07708681498167369 -0.06159900375871972
Ni 6.28973417698625 6.752727933880012 9.149401610171868 0.8669191646057391 -1.2234370707003897 0.8816099338486946
Ni 1.4839410199057903 3.7159346238787356 12.431712231784116 -0.9504015987011117 0.5616633991201746 0.28911592250090856
Ni 4.494903236582634 3.19383085686752 5.612323442394448 0.8493911830243048 -0.004322281524437717 -0.36966498499956985
Ni 2.0509869196494157 3.1452026186113162 5.0822586326071 1.4327004425490293 0.07938615253881166 -0.6855977705830063
P 1.0388957614471173 2.3668578083806757 6.671455923167194 -0.01581228444190825 0.9904889536403005 0.843518783403928
P 8.69713914612866 0.09924791865051898 0.028453899177901226 -0.9372051546154956 -0.4022465184800169 1.7559228198153438
P 8.810907485077138 9.040892115104 8.681808727770726 -1.0491833821577157 1.5748048000526684 1.2353698175822336
P 4.491557386953344 8.04504817586427 5.496953065276013 -0.8413323172755705 0.10113331440791615 -0.5360559829647156
P 3.0383906223949197 1.7870712156983988 2.4795637928140923 -0.5517014028114563 -0.9574528491209381 -0.45138261388503553
P 5.443990344985932 8.487352484061661 13.489863641394376 -0.15557925206162238 -0.5909873448952725 -0.45927075838386067
P 3.883964326447986 2.687378861003491 9.545034151506453 0.26069289127352524 -1.1473609563714173 -0.14865964212365368
P 3.0467079887050192 5.056722427724572 13.019489167055664 -2.1413054726604863 1.1008111336363362 0.5530923696217119
Ni 7.093494212225819 4.049432658255831 8.998052007675415 1.2132449606587365 -0.08673410826345063 0.46006394370911735
Ni 0.7465904288760501 4.265589666792154 8.343819315586178 -0.9221734570933537 -1.2675847117518817 -1.5554017129357083
Ni 6.44811384432526 6.538026464447956 3.141709324761075 0.0674750029235225 -1.4217280026979255 -1.679442270959101
Ni 6.947836334720209 0.6034655674739713 12.594364000909678 0.6334804810624768 0.019731416990656343 0.6509655252211175
Ni 8.800038199558259 0.5907135326721695 10.792714710442304 -1.751300490551984 0.5460228643694403 -2.441932738235104
Ni 3.090052809043785 8.01948172601334 12.246401310395111 0.4666919905485963 2.7751888455883367 -0.04882087815744495
Ni 6.663495825546324 3.3453486970006994 3.768814170505715 0.47805446674926694 1.1802163123385416 -0.015459786198495955
Ni 0.9671962832330139 4.977168709279 3.9353391858970475 1.9553188119516005 -0.16673861111255153 1.3590753608637112
Ni 0.22808297763869015 5.575867858764126 6.1301447109112255 0.4206232212149918 -0.07863667596729683 0.6508678233009888
Ni 9.11992599815519 3.3506415664707623 5.223178446781741 -0.8359437992701475 -0.11203787713556188 0.15909652118626147
Ni 5.836343197559602 7.44347575438111 7.185003199586895 -2.468996941441748 -0.9131401432464918 -0.7612776779148244
Ni 3.9036519105660954 3.251249039065079 12.28604773819167 1.7729180688217594 -0.8530804589504342 -1.4910179473429999
Ni 3.50713092328475 6.570284613557465 10.814668776879916 0.2118900108382093 -2.280733311773227 -1.9214067325851878
Ni 0.6888348262497751 8.039140955473576 7.57684566831881 1.2810431512496325 -1.3662325407337825 -1.2609101279451833
Ni 4.884080367474267 0.997375090764998 0.44539402075053963 0.6076969443404695 -1.3229418483659474 -1.4683971246196903
Ni 4.973813408097085 5.045418370784938 7.016445155225901 -0.036685785456807785 0.303207110486652 2.4416121216708917
Ni 1.8010406104783152 0.46638875459670204 6.1020357934041405 -0.26744795060917165 -0.6017607813616925 -0.6176579122079233
Ni 5.177191917484256 1.7239631988205226 7.709520893138564 0.16296757410589352 0.24897611705722925 0.29129236132693703
Ni 0.7537717185606106 0.29798098992244726 1.751254557025535 0.7546300906913197 -0.2241253765621366 -1.9456031273257333
Ni 1.7000318675737376 3.6787900220620435 1.6436732044254543 0.8962364255126177 -2.6437177994288277 0.3818926374140133
Ni 0.3907139533484762 8.929231472390923 12.268922469990228 2.63865632574552 -2.6040582760556767 0.36943744236979603
Ni 3.5778096338153413 3.748882736329878 3.187303614624618 -0.43238550395724246 0.28761311270313694 1.1708430986537577
Ni 7.167121807175445 3.8427744601077456 6.634465381658291 -0.5406184055244173 0.49479106277765755 -0.2999641780693221
Ni 8.458109380239563 2.749598431934607 11.867134132430907 -0.1364420170115392 -0.5253735635502048 -0.055980629130677785
P 8.962992418367822 5.83526572056034 13.745792783377171 -0.16551990821410204 0.1243074385315343 -0.33979005181700833
P 1.6846352883474296 6.925719701577446 2.657156576329432 -1.9387637358063967 0.5542123421587681 -1.2351091077216794
P 6.609584169372683 2.0996246094582447 5.514784364458549 -1.422906596387059 -2.0074247886182204 1.6073829910990058
P 7.560202429301249 5.367045255064891 4.799754560108275 0.8068913619888813 0.4248783969469199 0.5181557056455269
P 3.130316423226764 5.077969518025825 5.62343090703948 -0.19952557573558544 0.44575935416098716 0.30007782082905093
P 1.270458800762374 5.914016057032778 9.473737309434178 -0.7921311729605712 2.4743772319170545 2.3022788991544867
P 6.504218260707928 2.813613797864494 12.80147681873903 -0.9638703226115077 0.15598548636110557 0.2752301656577518
P 6.744429470675162 9.520170897170832 2.2785661295331874 0.45267022234820753 -0.4423187039105544 0.3155545763084114
