# total energy = -340892.6609627371 ev
CRYSTAL
PRIMVEC
9.07756426027647 0.00000000000000 0.00000000000000
0.00000000000000 9.07756426027647 0.00000000000000
0.00000000000000 0.00000000000000 13.28593286917027
PRIMCOORD
 96 1
Ni 6.353623089373619 2.1004212333272436 11.520205808259119 0.5378459849856028 -1.1337539071109441 0.2178889087341215
Ni 4.71060215297399 0.2007058487159495 5.812435968585728 -0.8349305275142848 -1.021805504365395 0.16181623411026969
Ni 2.721163217619221 1.482565914400491 4.844356428101196 0.10096722114369708 0.5775026801452764 0.5442428896508821
Ni 3.4674660677344655 4.402491474274357 4.935311804285115 -0.214052822817483 -0.054906936450524794 -0.28021296358432385
Ni 5.227033848864062 4.642792749583316 2.672226069871012 -0.2158150569242283 -1.006501784128789 -0.8853249208064365
Ni 7.492085783649574 6.004826768639582 2.424297825254309 -0.7730715852259589 1.8982765743256276 0.6767722018715763
Ni 5.062303294201336 4.518239493368665 11.533624263425397 -0.13811863338301375 0.08907895434654335 0.357086634113927
Ni 5.529325809013036 8.05553926127508 12.666488823956906 0.15423867887332793 -0.3931669247762519 -0.8031663477288102
Ni 1.8903119360206113 6.399836967909351 0.24767225731072973 0.22627404747402322 0.7555505456230601 0.052511953855786976
Ni 2.4410205137317256 1.5715260420080688 0.4153212488128266 1.0513724193892344 -0.35043519023568037 1.169594056738005
Ni 0.4933102325197392 0.04273535599499536 4.776545209197714 0.3803995978082545 0.1756369420434459 0.056251366293561186
Ni 8.8007891139615 2.373664988543131 1.223173614155665 -0.6266686003469659 1.6472733995360405 0.5168069049271165
Ni 7.052867847497263 0.6846589282216181 4.852859382338953 -0.9065416640933678 -0.3483304851878517 -0.16975220112789477
Ni 0.7470617344691215 7.293032959345599 2.417893603822968 0.002969109930652951 0.02316718214508268 0.6287889891240784
Ni 7.886197304079227 3.90475956030996 3.5375657405328327 -0.03809834953361826 -0.48202990645724725 1.1611215004906197
Ni 7.84435881141154 3.954722472794869 12.717480224447725 -0.4174602501059778 -0.320178448233668 -0.5305486799932411
Ni 8.082672100195392 8.882832137769386 6.966983198586976 -0.24331377656512937 -1.1722548913996198 -0.42601765275768566
Ni 6.815208143324407 0.8571290139862033 0.5549841103747029 1.0932870573451494 -0.4461897568301864 -1.1495044850769816
Ni 1.9817139283553766 6.111379215359759 9.259537429149292 0.13263832699473285 1.0034354864986397 0.08253961056612881
Ni 0.32564127037675084 5.024576938044491 1.5743700428222989 -0.3498505213768039 -1.056921888452554 -0.8135160663942506
Ni 6.080678893771103 1.8119453256495686 6.8110469879677416 1.4306587295286524 0.9015658081453312 1.252434229263688
Ni 3.363909217148012 4.300604895471556 0.2630532818227991 1.3476663476958208 0.6392343528271185 0.9491630983083202
Ni 6.090328344347313 5.662157803633617 4.622893821447748 0.9212424606386521 -0.5862277187231 1.2280560575296398
Ni 5.418452441809062 2.7885005876797324 9.21358135343234 -0.28897965403336034 -0.12150056521035849 -0.29086555820216353
P -0.0014705653747375098 5.814470250687448 12.492443780831104 0.6128689754597122 -0.026717618500502374 1.470192011736584
P 4.139296582452509 6.306265437768646 12.677463598883186 -0.6987739029536483 -0.8457564144851949 1.063252201545956
P 2.2713880744865413 8.446755038775466 1.35524490890956 0.22276397743823573 0.5467111486857165 -0.4341927323693103
P 6.351907429769759 7.678466328551491 6.0077924088119685 0.27212041638417656 0.3015526056023645 -1.505646238779136
P 4.678313257678057 1.0015094855804936 12.759277868077225 -0.23505950697613712 0.6104395400826133 0.2485850522663977
P 3.977697787384132 5.979654683552253 8.298871535217526 0.5233012544022084 0.2192186832891386 -0.4084896711762514
P 4.742718574553134 1.0250203764482106 3.7420360550568295 0.5317594124718906 0.17666564041827637 0.27862427894096536
P 0.3873015318856521 5.569103694643282 3.947649234893662 -0.8648442843545816 -0.1962944703927974 -2.1148745321624673
Ni 1.4317043230754647 1.2912017868397416 2.7078191984780844 0.07629311543578472 -0.3073044204844772 -0.22347951544802158
Ni 2.033483276084562 6.620766721553558 4.771057821734573 0.09291221204970451 -0.21791359132446986 -0.6902478677605081
Ni 6.004463666077918 5.3808985593690055 9.427298982445503 -0.8738454594119273 1.4141147091270418 -1.8750924228996804
Ni 8.716304225426427 2.3239562478513864 10.294112849507679 -0.1704908790661322 0.7074986844211558 -0.2520789243522691
Ni 2.3547201123883337 5.100510761252386 7.058670226432647 0.5394891770159805 0.9295964890303022 -0.057824367207635896
Ni 0.50538702372067 9.333460571921975 9.300591620283784 -0.7247001359011067 -0.7743131709425438 -0.6900966868946244
Ni 1.3647209780125753 1.036512572524863 11.637360849779874 -0.6391399933410993 0.24606768516118271 -0.8283549311792958
Ni 4.204591500603663 7.241063905207498 1.674080729524331 -0.07588893801883059 -1.8813926540860952 -0.8022425503629603
Ni 5.455252886433666 7.793370134189932 8.010248571002377 -0.24709021288842606 -0.09266332926369203 0.4044484112273422
Ni 5.29966343876082 2.9524958596550896 4.757771899003302 0.4246272001680623 -0.3225528620031155 -0.08328934424795978
Ni 0.9252942578873076 7.222300580333532 6.890682641791799 -0.758873439348706 0.04345292897731226 0.9010040221045903
Ni 5.093920449758192 4.272346438610088 7.054179555501272 0.025365218237665993 1.496956681424938 0.7402195716929445
Ni 8.066550346457529 7.29224321127398 8.869675116447507 0.1862594547542986 -0.08655721636595416 0.34310728911569943
Ni 4.553968785436362 0.7490070564432341 10.588170551314528 -0.07001525284687297 -1.4781542040064544 -0.7223792010774139
Ni 8.31526652363304 7.155961742317596 4.967463628364022 -0.830078598738622 -0.00043554487552183055 -0.23386291556487462
Ni 7.120813414348562 5.915666934623089 7.012594326870347 -0.35015545421173244 0.6188565605017148 0.5210505106948188
Ni 2.6161811894782376 5.3238823796237815 2.461683772759596 -0.4300164895044336 0.01869834774045167 0.6178849406170649
Ni 2.5870603640328182 5.265259471043197 11.41887386861926 -0.6479539920883035 -0.13155769233604436 0.4634310604091374
Ni 1.2484736928959792 3.385404888798496 3.8301746631186435 -0.22593183364325606 0.7643653157012127 0.7782891248711563
Ni 3.6914095726404805 2.776618056349292 2.8826358345474206 -0.5052670226083169 0.0313646303542105 -0.9642755284697264
Ni 0.9987499061118504 3.330385773142422 7.999007823449677 -0.44318465145527547 -0.35268259150896036 1.527432481416292
Ni 3.6434981896289704 2.5567140674417845 7.089905216543353 -0.10505578939077391 -0.6318146633242796 0.11983037659678716
Ni 4.157306469511023 6.7053060754728815 5.804345135755459 0.4449425146866466 0.815924418725427 1.5792417527780997
Ni 0.5487514549037475 7.3012299996751535 10.932661383423639 0.8790959091775893 -0.32856667229736314 0.3507954017885765
P 0.16102781629016147 5.474424701689503 8.310829410329513 -0.5033939739553202 0.05938451260590418 -0.8603780210531118
P 8.426639156859304 1.636811882595181 7.79100361324429 0.21616292718195032 0.5048551318818789 2.476003197556252
P 1.8586947804637548 3.295782099015882 10.53003147689736 -1.140946053984009 -0.9940321909068687 -0.05299017904378616
P 4.134485473510467 6.149859009332058 3.7037060408912175 -0.20932816364830403 1.185865797314835 0.03776590589486399
P 6.901862569665421 3.8260843127615027 10.490239974921051 1.419359502465749 0.6524415955460119 0.017940900749136842
P 6.291260224407899 7.646858250558676 10.081099639464142 -0.5046540716146664 0.7568957467970449 0.5215302785447148
P 2.3537034252156754 8.505977066582796 5.775739915947602 0.9960733897066136 0.3188751560412121 0.2738736516298574
P 6.993999844687555 3.9924760616438397 1.5181971687765385 0.7115294028471035 -0.4522835284327501 -0.3476802531983625
Ni 5.37355481005936 2.895951713240028 0.3185462463218444 -0.2193544375360545 0.6103917175638134 0.8843736126367608
Ni 1.6722779253056714 1.0169958098354455 7.151405712925122 -1.5215760226355148 0.09063832841386325 -1.3976336807528833
Ni 6.835432956009068 0.8094990354599828 9.253678769316851 -0.07842018908111656 -0.8357273123839671 -0.7381979132772254
Ni 2.5546443828403023 1.4885026412836908 9.21340887971555 0.9880600324838339 0.8337069395198288 1.3488793941673156
Ni 6.380828548806262 2.0504946310985006 2.5900659454869888 0.5532042126092278 0.3843590966766348 0.6141614690188907
Ni 4.044072935656235 7.041402884112735 10.678222709876309 1.076095118946895 0.2699357500280319 -1.9874223773543644
Ni 8.05422301448905 7.597303828455639 -0.010608949095405726 0.5433252629326191 -0.5813428798269731 0.3345809968122431
Ni 7.630219075670443 3.7257590749738556 8.050052781568343 -0.24361408141436752 -0.24856962564743001 0.7117978260171418
Ni 2.9655947845671036 8.540399189428504 12.420340689648759 0.8656043024490576 -0.6387805531191515 0.5799218311097303
Ni 9.250582412222265 4.81277013626208 10.649206276417367 -0.32689236991873377 -0.7300151203561169 -1.4755064819709622
Ni 8.76955321609439 2.4450691072942745 5.8752254790614025 -0.01042813731185946 0.4042676626751037 -0.9322382975285235
Ni 3.543227417225572 2.615091881793247 11.797044278835475 -0.08971658793054227 0.20411756598164205 -0.883192447844466
Ni 1.3201773712604954 3.517773927652955 12.757405166615445 -1.5516283619362052 0.3882558606278797 -0.7994781002439457
Ni 2.8997642901374956 8.28608215523933 8.183522928941047 0.9715980302730688 -0.6245461546873244 -0.41001510668184227
Ni 5.747205501139269 7.821437962206527 3.7195690840538953 -0.24233624314320848 1.0462834349021013 -0.5350252277073559
Ni 3.066609917221912 8.67555504044373 3.373590439198367 0.2005452752493514 -0.889146608545372 0.6155614346902109
Ni 3.470579672200731 4.095352094927175 9.432002068375452 0.5450628144490162 0.12396162515634135 -0.8746085628301971
Ni 7.088805923537916 6.189473498809554 11.471100725576141 0.30536143782549346 -0.5719174727480151 0.10338405811530582
Ni 0.36028488578507323 0.2383686619245046 0.7969365945828271 0.41744019550131983 -1.0279560973478232 -1.5440585200087473
Ni 4.776523423044014 0.39546044644623285 1.5902993522024802 -0.7732983565247843 0.6203107764497381 0.4321685028504299
Ni 6.016082948051153 5.633227607033071 0.45327363631430845 -0.6620672915612339 0.7538533604262952 -0.48224125113710503
Ni 7.888657323934498 8.735103860556558 11.182410587387086 -0.8310317066805107 1.023263319857844 0.056863288845947234
Ni -0.039027171084006024 4.943151188591432 5.998266413106724 0.6936401812715085 -0.8294000846143587 0.01992296417617214
Ni 8.073195123335971 8.958439168671786 2.650769431745906 -0.8151443460262929 -0.5399483760405862 0.35868200362550484
P 8.560161046347044 1.7341869120693123 3.7106149748832715 0.10999205035012669 0.5751982003818158 -0.6094810328240858
P 1.8226477736546025 3.433289039117881 1.638062770920112 0.7008626671618768 -1.4796464722812646 -0.13761032628802752
P 4.592748139022033 0.8673966466736452 8.199625619794423 0.14152071708602723 0.26472926612642794 0.21294724845813
P 8.37945397897112 1.4389572967446949 12.37304294996646 0.4026154717836614 0.6334881943719607 0.7206768736743265
P 6.47584341162958 7.840174054388368 1.3629508530244654 -0.38361810474555225 -0.4517978470455832 2.028132453479217
P 1.8975649096898413 3.2716085459731294 6.06537321304058 -0.5071786378087331 -0.9110218113519083 -1.4802938760572764
P 6.8636278699222455 4.012955046121666 5.906886206925659 0.8553335166506689 -0.6933025954264318 -0.5059187972597029
P 2.329248467687633 8.460262454069351 10.268869959420828 -0.3668503983689101 0.31102994896518044 0.47767600036392577
