# total energy = -340886.98204161995 ev
CRYSTAL
PRIMVEC
9.13966480250044 0.00000000000000 0.00000000000000
0.00000000000000 9.13966480250044 0.00000000000000
0.00000000000000 0.00000000000000 13.37682328993557
PRIMCOORD
 96 1
Ni 5.046922778050762 3.060105934182984 10.000031469076347 0.5658355282199932 1.5446709567817656 -0.637343820672625
Ni 4.697577379018827 0.20842091095738785 6.1737913240011855 -0.30475697147227515 0.7005708469530708 0.8539307227658712
Ni 3.311327894342856 3.2030045898056274 3.1736379335612326 0.0904372681466507 -0.9492895965838555 -0.49209603244399763
Ni 5.052004431554196 4.675148642152951 3.159217370795553 -0.8305434541901825 -1.022793065089645 -0.2583958677092324
Ni 5.126812586096654 4.326616673268149 12.268593096917071 0.6121179562263007 2.016259870411347 -0.19771037690371757
Ni 5.721347766669276 5.736428213217237 5.465703122821794 0.5755008192238993 -0.2824292545093523 0.08497187415670528
Ni 3.5272067715930535 3.0676735764506877 7.872902494660516 0.3317039323747642 -1.0047925147471661 0.7491873224091936
Ni 5.547246296189217 8.236574317913014 13.035580038514052 -1.7326846752230096 -1.645235028949773 -0.5585297385871993
Ni 2.1690069174962887 5.901453996774796 11.888182891962794 1.3421143075293402 -0.1374905128807116 0.40953893837637206
Ni 8.333582717706983 7.2790208001049725 9.724843480469167 -0.9594511104978898 0.26900603912491095 -0.17558680553180084
Ni 7.864855020002651 8.990678902292206 7.691566065703266 0.22755651373087263 0.29441625166789936 -0.18836441691244332
Ni 8.444574804299974 2.3584447451323958 1.7465314063377781 1.9612680875564998 0.6459081653028682 -1.3555025559107883
Ni 1.5976042279617804 1.501482375631538 3.1208664242744026 -0.8040091553450798 -2.0118622555642838 -0.37126986759284447
Ni 1.5842420383538298 6.768442578313905 0.6816690867602803 0.013761315450150495 -0.2196565421575056 0.7932742854260789
Ni 7.578655563516084 4.067772232853127 4.7051505050852755 0.7866824911411742 -1.149469260963672 -0.42151436557069344
Ni 7.500529710733074 4.072936143337731 13.345521601665851 0.8715170683890668 -0.2848869720212254 -0.3847509327984148
Ni 4.521684534282161 1.0165774716303009 10.78573278785612 0.6156509090802236 -2.7364261229978424 0.9843105927437306
Ni 0.42625567642653284 0.2524750081730388 0.8143029850992786 0.9356270114950984 0.6038881121173406 0.022536233429303124
Ni 3.4852465715314254 4.928792613425071 9.801572792505187 -0.3089607251409776 -0.12083644926379834 0.5071058755892686
Ni 9.062050542954644 5.359919731069825 1.9251524409499385 -0.1383693159412391 -0.9165797650556602 0.0458355702768759
Ni 6.690344144524619 2.0012575138955215 7.40594423601781 -0.20332643753891433 -0.4634544574479051 1.0011379487137146
Ni 3.0202021586506236 4.738194048388001 1.1846650428203254 0.5308096469641116 -0.41373395029432614 -0.3995059796204023
Ni 0.34116539923773787 0.07826477568454235 5.7205846046773035 0.39985693520191784 0.2838906695462272 -0.9974430163606306
Ni 6.68438508322203 0.7815884697212364 0.6340066499706083 1.0840292861923073 1.7683672162262836 0.8646964459228076
P 8.9497149256692 6.03958174748954 13.025775006358502 -0.1383862852221036 -0.7794070405256834 -0.02096014719143487
P 4.147844834190509 6.191199643116277 13.277379918464048 -0.8852372461886369 0.33372019147384463 -1.6543290208312411
P 2.189918470042794 8.450698379564903 1.9192930019912129 0.357286665939875 1.1736453439892431 0.7320468060741651
P 6.368582253178589 7.9540672859145545 6.479131066039714 0.2818978074859145 -0.7295042421579695 -1.5115536054025065
P 4.634321760498564 1.1952030760747485 13.108002740602558 -0.5382907858325052 0.07141084764281895 0.3999003868453435
P 4.162486576838893 6.653474737630999 8.513184438327992 -0.6637482788080827 0.09608315357851839 1.1522537656873446
P 4.725791523560375 1.1658007751385129 3.867506644595584 0.8135554042726182 1.3516500149339172 0.9869937960028484
P -0.10250499406908822 5.869035606528969 4.2302334265310755 0.8097985083333473 -1.2637907919270879 -0.5055876391725294
Ni 3.1056123240995266 2.054057356142532 5.345164656580717 -0.28167437862119876 -2.460907993786026 -1.0462158148889595
Ni 1.4870234262746451 6.841303984301989 5.414576753158378 0.6141133893897747 0.9406391199977091 0.5055881533931615
Ni 6.912684764629002 1.1772893335086865 9.994546756365176 -0.0312972674513848 -0.4233573323167032 -1.3996113733045445
Ni 8.785200963327814 2.8226848675306395 10.699906767669074 -0.2765856512443817 -0.4108813113368795 0.5510360013133154
Ni 3.4348413214029394 4.5590109244045065 5.296686961710997 0.5225139826142228 0.7125997530931469 -0.2050040823516534
Ni 1.7096930743037118 6.9754559809268155 9.688993146175605 0.877993677252346 -0.1372863672897055 0.44151806238613
Ni 1.3951606576361295 1.582085077514243 12.126049974246376 -0.48108888270021655 -0.6307198875982041 0.09677272344637528
Ni 4.196687201676752 7.010990996792555 2.0063227160027215 -0.25647242543427445 0.4047533440622707 -0.4131647080544174
Ni 5.734975006549888 8.481407652535294 8.523658493930393 -0.984743052295459 -0.7028115633581316 0.874234981540862
Ni 6.68868986523663 0.8116936108632528 5.131536878715224 1.5238823021711883 0.032071426613247994 -0.3830046395312694
Ni 7.970984805041994 7.563602535961848 4.893429423253333 -0.9306282727289262 0.514332732355011 0.8671225388657968
Ni 5.032281035402379 4.863142402786284 7.559617642207357 -0.12266013273609844 -0.353131763231237 0.3904749797663856
Ni 0.6129388091598788 7.832281255459056 7.770663464830546 1.4548895770515589 -0.8220636988539455 -1.0779612256213564
Ni 6.256895552077936 2.2528085019800765 12.107509250690502 1.1293521784988227 0.2118807548668286 -0.4074404039761305
Ni 0.6557645354567141 7.79992684286525 3.3551480161453995 0.38561688034313585 0.5774625709359603 -1.1557273260582417
Ni 7.326345983271844 6.105140561482583 7.442222306613458 -0.023902517649210447 1.1430186202423216 -0.12781545168479277
Ni 2.168358001311498 5.5511215139688135 3.333450452445485 -1.0932538901143687 0.29202049774221317 -0.6798133026907454
Ni 1.403788500994478 1.1635889763114788 7.623893247294136 0.6315130729234608 0.5831511366803054 0.18631859012700816
Ni 1.0855727995033635 3.5024748392543983 4.266283919478818 -1.0490910795542256 0.6290838946566779 0.6524040574398571
Ni 0.3498023822606606 7.90554480668842 11.895193014691452 1.8568399044473958 -1.0551923073559568 0.04815419110772352
Ni 2.494497791988722 5.466652733971086 7.533237828345915 -1.4700667990126295 -0.7497529651046765 0.5374400077964356
Ni 6.541294494643322 2.0611497358523607 2.9833528590190674 -1.8160511525658078 0.46979299807142316 1.2014919338878662
Ni 3.778593245715267 6.980656450069719 6.381078916551333 0.48468662735380397 1.3959547503885636 -1.0167782263541327
Ni 7.911604404301328 7.853238506328434 0.41805739730318703 0.6983730679708037 -1.937387167173844 0.8066257670323204
P 0.2654706972315509 5.7244918112829115 8.352808916105948 0.8741925583387009 1.1869366617815107 1.3557632657713425
P 8.558710935506598 1.7445426153263621 8.558866309804364 0.8427801054656904 0.8416146244026795 0.2890459884949216
P 1.744771106940725 3.784104463453703 10.980124313691615 0.6871088079108941 -0.17333503338314665 -0.29727017617692675
P 4.001482245694122 6.365136599633995 4.062514183823405 -0.2675284261381199 -0.39469158895089446 1.250614145335814
P 6.951181031816887 4.145230890122196 10.677767758170212 -0.98589259251887 0.4782012767397764 1.3412113360990965
P 6.362952219800684 7.952275911657948 10.6353496609134 -0.6992161326973894 0.6202997207061446 -0.06997462941692464
P 2.5612996003638995 9.011946901757117 6.1184917834930435 -1.6800865894113195 -0.6131841927072859 0.5026103017117601
P 7.095386659473687 3.9311159681348813 2.205396491999746 -1.5318300962633553 2.0318204438537655 -0.8563467884065316
Ni 2.734039260822356 1.8828622989971702 0.9051695302991711 -0.23854026643588597 0.41871546266931764 0.06912256582927451
Ni 1.153690719577272 3.5008479789601337 8.823232021588856 0.53796836949608 0.2149233983478944 -0.6411130579070701
Ni 0.4964793752184112 0.2440007111795425 9.900641272694257 -1.4489546996243627 0.1741827260954226 -0.7167765101786558
Ni 2.512649165833722 1.6773660807036292 9.990092083851556 -0.3950741691012938 1.07360500553519 -1.4072614336506344
Ni 5.0036464662904026 3.0106237901765245 1.1620525986965018 0.4203532553830568 0.09388023238992865 -0.2524753884597394
Ni 4.031213574555041 7.546602759853238 11.022689559548077 0.12669753603026565 -0.406479582724758 -0.32525432009467853
Ni 6.914750328822844 6.35166473405115 11.998154078022809 0.5288160135728506 -1.1254081062494101 -0.04892937871085122
Ni 7.9549538333782825 4.143302420896972 8.69076172324574 -0.7529609305190129 -0.8429081464031225 -0.10199643373915983
Ni 2.7479681096339266 8.757827667927122 13.196343082514053 1.2092085858058335 -0.12509393898857166 -0.7092552621009464
Ni 0.04810022672279165 5.332199128415301 10.906029966952428 -0.7911302424998826 -0.5782285025677074 -0.3512684847702531
Ni 9.00712115886177 2.4631761614918375 6.306436189937673 -0.6034224853348318 0.3707739017930324 -0.3851260567496464
Ni 3.464609208922156 2.8318153924405864 12.072569226988563 -0.5686886813980722 0.35599005861563854 -0.038412538339927395
Ni 0.9538519536553598 3.9785599669412224 13.083455429488309 -0.14013129293766835 -0.14301735623621176 0.6136847864927883
Ni 3.1624518980884755 8.750296584317717 8.362534433179697 0.5705661009264432 -0.36494006872007473 0.16306244781254498
Ni 5.564584239887084 7.806900406935609 4.270136288096979 0.7023919593222097 1.1314522555609612 -0.9359957076884269
Ni 3.3260884526307084 8.702148831339137 3.935033228371521 -1.4428287892322829 -0.7025637090133836 0.15789041669330228
Ni 5.252364158356856 2.8901447317551825 5.760862192490763 0.15768884220545745 0.4360025318845394 -0.8392342970959611
Ni 5.975028296599694 5.9654316487964465 9.639218532902762 0.04121812610952256 -0.12840551986030788 0.17152934763297553
Ni 7.932781007120494 0.2720165249998232 2.65990104369321 0.9764643572264344 -2.103445464389919 0.526441342693087
Ni 4.588129895738932 0.33679298370528676 1.7856053003267724 -0.4562170591592014 -0.18615043998026004 0.6849796773830332
Ni 5.9409647667304535 5.612960484480026 0.9187519858233676 0.6638179557037535 0.5867655935044411 0.5763225437942461
Ni 7.633658064925555 -0.016846229743757993 11.923939087711236 -0.6011113207031519 1.148229217908984 -0.7621294843921584
Ni 0.2739998322124944 4.9866558298463675 6.354753026710881 -0.1989959284843605 -0.9408566353251538 -0.6347930292263132
Ni 6.939866127073629 5.813237954301515 3.3562584853912036 1.6161795063447135 2.309757981140351 -1.181238840065785
P 8.675643804073026 1.6342725622347605 4.055210677861904 0.1823035554303441 0.6971535937414058 2.2342829907304873
P 1.3357985362246125 3.4005492999193345 2.007807911496081 1.1045739431128785 0.5707152249097978 -0.530256602674119
P 4.880663139775641 1.3563262228589879 8.58737200964584 -0.7447902217827626 0.37610277020511357 -0.3005982121088952
P 8.512875517665373 1.8282619428289788 12.825269958889107 -0.8172349100067345 0.6296904178924252 0.6283627002199372
P 6.606478582388809 7.9019346391814835 2.0306689544963317 -2.401533765592767 -1.3820553666986521 0.7091925271838108
P 2.04053065257224 3.4220914893214815 6.426399771277013 -2.7357776907805658 0.8835200063872137 1.2867072915139453
P 6.899615044287437 4.018253530188369 6.696143261697152 -0.015723067162211633 0.7297063308664465 -0.14560594289899442
P 2.2174105810829543 8.86776869309404 10.976177806528339 1.2138381141580452 -0.39439359809450136 0.26656734777643126
