# total energy = -340869.3843928705 ev
CRYSTAL
PRIMVEC
9.29408714206473 0.00000000000000 0.00000000000000

0.00000000000000 9.29408714206473 0.00000000000000

0.00000000000000 0.00000000000000 13.60283599313799

PRIMCOORD
 96 1
Ni 5.220525816586537 8.924600524027138 1.895609892162827 1.563518685615888 1.8998130655748118 0.8728951796835162
Ni 8.664115149058345 8.291738261289419 12.456620305609288 0.07944554502183737 -0.34466254941796126 0.25681103972061575
Ni 3.849136816567975 4.359437954686095 5.1138092514005855 0.11252253008146426 0.16694995579240926 0.2502482989014335
Ni 5.717843115234453 2.502377146968912 1.218997573921823 0.12580124946824142 -1.2594070610370955 -0.09199432822112544
Ni 1.334621592041378 6.241118798735826 9.133773244940816 -0.6541935452401121 0.02433240609777745 -0.9734427967912912
Ni 2.590494385349014 0.3841868840572485 9.586408291164286 1.3789376470052768 -1.9881931940821178 -0.16825041977138766
Ni 7.408939412272015 0.5607243480520476 0.7486201157093636 1.2671993033880045 0.8399588339668115 0.6572744981582809
Ni 7.702530324959396 5.759387683904325 5.942439373442908 0.7575390368079985 -0.2859112995206818 0.7358127008745006
Ni 2.3990083119026218 6.440040141742823 4.096806575040373 0.5336378604415261 1.4754607163346911 0.011315425012819224
Ni 8.679710626961711 3.05183427341056 1.9708464554378786 -0.8906959553103628 0.6189992567271662 -0.7848382388435838
Ni 0.43600606585117957 4.39472760283811 6.394584621284072 -0.8346142818254464 -0.18823046243774036 0.08052540834957746
Ni 3.0185521480399085 4.388909504406937 2.8464210106684624 -0.02933423018774303 -0.09905946259802295 0.4067048113616867
Ni 8.970987311998353 2.0868106371398314 7.474662548144275 -1.219544420514203 0.4337574446041046 -2.4132130017029083
Ni 3.4868068367928156 7.714231580430395 8.10705917712576 -1.3481857105344006 -0.2903752488293063 0.18166566473602908
Ni 3.288656903002732 1.9054551184697612 4.575966945421295 -0.5730017069511293 -0.10657068337340356 -0.017605628896905163
Ni 0.7243328076896524 0.07725338014336547 6.061314463177838 -0.5063983079992828 0.9282998817060657 0.46673235686822845
Ni 7.206978902832123 3.183605838198355 10.789021319200623 0.9984400901665772 0.6438492258913106 -0.6630720786766645
Ni 1.9846686215510407 2.535017980339961 7.684323208622867 1.8763764318184266 -0.8836261929477751 -0.9271829944928032
Ni 6.605391242683694 2.023397081874834 6.880967426634426 0.08417354662512601 0.06056516317756666 -0.19392159928524666
Ni 6.29535909018043 9.138884992763732 9.175316884201992 -1.9134679373540855 0.6618070959213119 0.41101989379727283
Ni 3.872037446814634 1.0634201348183654 0.2655274171395772 -0.5492783951922604 -0.255329827189399 -0.6363529175142653
Ni 4.526573520321511 1.043261260222179 8.044567595286278 -0.14699588126798557 0.08056654600015803 0.5905659410871378
Ni 1.2024782637755522 8.612848965437983 8.171509023085767 -0.5175828638611925 -0.8057994144762832 0.6735513809414336
Ni 1.728003116319008 9.349851472458905 4.096888363005539 0.6653747586679121 -0.89269781623174 -1.6935627695208832
P 5.028946802270637 4.619551566176858 1.8867405449857222 0.2739253308033992 -0.14601629096353563 -0.4946676498259159
P 2.138931876759662 2.9622485692922385 12.758262685822109 0.15234506139504086 0.4853846818620931 0.7127565903859854
P 5.183804879044107 7.211542299524943 9.293388964824377 0.028540530641854075 -0.3596718783425999 1.116697980069922
P 2.422048353453542 8.308040089801043 2.1006727678268815 -0.009630581111228576 -0.8982328871173563 0.7327885693361961
P 7.5532672885302805 1.516395344624232 9.124047912355547 0.04290579822459062 1.978336355892696 -0.06957276599281566
P 7.675568178715257 2.5871113376989396 12.771892464335387 1.6683417901705653 0.13395344626173059 1.9563711644755142
P 8.756191668479469 4.901236753480322 10.394361857967265 0.05629430371635467 0.17887164693065968 0.20608548834129023
P 8.25218262722701 1.2705481566028773 5.423083006408668 -0.4640812923986265 0.3633202737284646 0.09685268475469126
Ni 2.1312642550252896 4.651644048417813 10.992819269630681 0.17533252342914965 0.5374628906145712 0.5037058487687841
Ni 6.129989401065656 7.908003999266673 11.175137655708848 0.19731185591371825 0.3909627180360815 1.6159157111603653
Ni 9.141766159718465 7.815676539497879 1.2754210463911577 -0.2648670772558729 0.6045177752815396 0.17599741070665817
Ni 3.9484534297237364 8.485575738734354 12.029150858622378 0.3605295983572049 1.516711495454362 -0.4658892921416428
Ni 5.4782880240787595 6.29610261713649 5.354198951564458 -0.026461022405006043 -0.013507033347499317 -0.08809602160798377
Ni 5.055165421558715 6.296269910701603 12.604006865883047 0.24100261193344943 -1.2972907234567463 -0.63589037605555
Ni 8.56475206546783 8.816556763224618 3.987276689734428 1.0977124401063547 0.5266830263902478 -1.8355830519511482
Ni 2.3281966634248237 1.0713665791612603 11.808349376115915 -0.4436790745931907 -1.550725904726594 1.715431801679833
Ni 4.000035612300423 7.643540755082957 0.6220811218748429 -0.617505188680143 -1.307268917715381 0.6743551077896516
Ni 0.7220464622997668 5.194799783906849 3.2645991589307046 -1.7868323649100064 -1.527013134490686 -0.6729356017343056
Ni 4.295355225160644 3.0588791913192317 12.335581552432226 -0.3752368226603925 0.527911242370394 -1.0906984706823668
Ni 5.408350019774333 0.8170552661538534 4.943733036653951 1.3274708465845526 1.0327555756189954 0.11749838602950086
Ni 1.8040845120978832 6.175084310950716 1.308466172544565 -0.34328778055762166 0.948551175755934 0.0075266473943483275
Ni 1.9171284916799087 2.6834073725957053 1.5485603207434029 0.4779783620956929 -1.0458514895710054 -0.4762240984087476
Ni 2.467598673599189 4.985896591514743 7.145134189444413 1.101216339494555 -0.5584214951441093 1.1864188416048278
Ni 4.037026078364425 8.52913712427254 3.9108151657992662 -2.380887035876693 0.283042462613319 0.1637756718294857
Ni 7.2912298010407115 1.802011930707865 3.4418708557946136 0.5758150080302084 -0.8233857600994787 0.133570351890699
Ni 0.40470265159234375 3.981224380312096 0.08480017874737802 -0.3341786191675019 1.3148341316571486 -0.3815655930918977
Ni 4.818844672661884 8.392142282618419 6.4126755615337165 -0.13190710525566315 0.5811991551602572 -0.6284046092014661
Ni 8.106423461578329 8.928234512024883 7.849774685702807 0.748898073303549 2.1649267116238526 -0.9829224541469523
Ni 0.3748677030717271 2.921475409839279 11.441386293995803 -0.8890131682913013 0.5153282634990609 -0.8795281116190015
Ni 8.346852196907394 3.908163562792216 4.572851567475402 0.38643243426589574 -1.7056911773533012 0.6541922596885315
Ni 6.340184471543917 4.2159651344273 13.497373091763459 -0.3916008658407127 0.5258543598413653 -0.6488171114195471
Ni 1.8833073092661134 8.455909013187545 13.530876416403538 -1.1914774870746578 0.703906081973891 -0.13853309521261303
P 1.7266554737111484 3.6710435224176194 4.826653564517908 0.7079347435173098 0.33376749977201225 -0.3146894000946387
P 6.044288625292751 4.11013336631906 5.677727977137607 0.5483664249009523 -0.29024592234029367 -0.21820721130548873
P 4.472658521920185 0.9796711173051176 10.508367775548694 0.3799830790961263 0.320936409445615 0.1445661887805704
P 3.886703516022924 1.5249273164450245 2.321772590524463 -0.313792342201666 0.5019431004414064 1.191214206110942
P 8.695083046778258 5.583580735143856 1.312606688281126 0.08014179975791359 0.12781545168479277 -0.2969140783890887
P 5.6046504302612155 4.625592722694848 11.147292571204389 -0.35418951507179 0.138503013305626 1.3473591008680472
P 6.02826561938965 8.621009173780745 13.448756652332756 -1.0682676524826764 -1.7751176475762398 -1.186613474114137
P 3.277011412053437 4.258327582748838 9.028120852710725 -0.42162775122010615 -0.1625543978278749 0.4762796342370313
Ni 5.927415481887015 1.4366149022389565 12.493755759429721 -1.3975928002126188 -1.423818309568051 -0.23562386412003938
Ni 0.23239864420361322 1.4260289372020472 13.30702833219462 0.21529903651975826 -0.6496591477048682 1.2246467747377747
Ni 3.2406622379890364 6.76378107249845 10.47937951834929 0.636076266814111 -0.047981927195917366 -0.05986299490421948
Ni 7.877166218764071 0.850289991681056 11.357320348117534 0.5779675355968369 0.13328650210169304 -1.7775722797643192
Ni 6.485162933888735 7.156846597819754 7.546567181247481 0.33466378633403654 -0.3165742758221774 0.5146857448190555
Ni 6.63639631675141 6.596506095558772 1.2137334030729159 -1.3734624828233184 0.053366331436282284 -2.156146137217745
Ni 4.580107461157857 3.3744785019059984 7.282250783637587 -0.6885018316036787 -1.2697308115606067 -1.6137284737010595
Ni 7.414487982181616 4.286730312470343 8.18837686149269 -0.018007749431330277 -0.2222281595394237 0.044786817297387385
Ni 0.5229596845450474 1.3815288488818354 9.341801863750856 -0.8296782779764098 0.7578619673650561 0.6644769294439911
Ni 0.5327965461737258 6.43410122018129 11.522268085684745 0.8201186593124328 0.47184550972507766 0.0319518703162482
Ni 7.762886125617595 6.61434144841727 3.0855448561896415 1.3950764615486682 1.2459432222227058 2.6531131246007984
Ni 3.298462164735778 4.539074067270276 0.4804141427105791 0.4532654327300452 0.07405059925851118 -1.360672787257818
Ni 5.305427300881679 3.0851907514768175 9.453426636255502 -0.9715980302730688 -0.1097889332003851 0.6537531152685837
Ni 7.725588954684217 7.308823507638489 9.647280843056947 1.6303416567777083 -1.4139838399761324 1.013673362176564
Ni 0.5140131964462512 3.962626912323637 8.718954909111272 0.10909756356031533 0.4586174410705779 1.4204419368966503
Ni 5.261707915865331 2.892078212814043 3.411672508474222 -1.6376996398046761 -0.03779393091932201 1.7527230819311233
Ni 1.4736611328246636 7.023420685554724 6.37828836922462 -1.6999463044497238 0.6076635199993728 0.972114564898171
Ni 2.3746113336568913 2.5200637944361977 10.139594205290576 1.7651214555954762 2.1079546651141827 -1.0879029102151005
Ni 7.617898369185826 5.821574419691823 12.44889320171843 0.43797662489177475 0.6411822205821087 -0.820411250852187
Ni 4.683048768224412 6.427920652359038 3.116708859144216 0.588838931093702 -0.5033245541699654 -1.2994720473787813
Ni 5.0523214309517845 5.4013422782134635 8.046906916971784 -0.5552510678359276 0.5820213939512363 0.37513037898951523
Ni 7.302252588164307 8.228250353328818 5.670192331437936 -1.18772701889329 0.288554907791116 -0.10226151447508841
Ni 6.760128496326803 4.597970696277206 3.219328590802275 -0.5572022780250274 0.02650730226190919 -0.7422116624223088
Ni 0.7318257005893506 2.2120112824534437 3.603839838494105 -0.19391260042418218 -0.6966383446678841 0.9227601828347591
P 2.737610487692505 6.630764100059253 12.67453783293493 -0.6448051620466766 -1.1372783753244349 -0.5883367946463028
P 0.12820728244218127 0.700710956295615 2.0116958264038343 -0.4751198096009753 0.26657557530654735 -0.13635151418026195
P 0.47975890958055084 9.072748270022162 10.600078107943958 0.6036891087326571 -1.9376995562079402 1.6735120215175951
P 6.100136793779833 8.267257636261133 3.764435155142275 1.7868524195146647 -0.8729648565791869 0.38130076946628527
P 2.980074628063785 0.563969843215251 6.680067372515615 -0.9276357657595056 -0.3431677100399897 -0.6624449866156269
P 0.10315600047511793 6.644249820224798 4.821184923756084 -0.6236413834848679 0.4557827998352602 -1.4305155190825685
P 8.732333747276883 6.960490422811167 7.739836789979724 1.1267846748819628 -1.4238972424351024 -0.5742096112163014
P 3.4317951361313 6.539282402202978 6.010222078983455 2.2209824169668395 0.5243348378730454 -0.10663907471749377
