# total energy = -340855.4669176634 ev
CRYSTAL
PRIMVEC
9.40279588494009 0.00000000000000 0.00000000000000
0.00000000000000 9.40279588494009 0.00000000000000
0.00000000000000 0.00000000000000 13.76194222678107
PRIMCOORD
 96 1
Ni 8.171123599593386 3.4077988739589116 9.141163971124683 -0.3263267272232509 -0.9233016571605259 2.5637852874682427
Ni 3.5880316643261176 1.8453927085490363 8.977836467370645 -0.9774220931540136 0.15614438053647303 -2.605269265644642
Ni 3.1038911101098674 2.81247025911598 6.0904992673395055 0.797799169879626 0.4867849046437294 -0.6035523260444767
Ni 5.155007588506781 1.3689530441131876 12.642890193414935 -1.2413198645180816 -0.07284706586871326 -1.8945096510840278
Ni 2.268932243675312 6.3645832433918725 10.084668712559187 1.097268924811033 0.8336634878764029 -0.5553202305109661
Ni 7.344721277359278 6.52914157311936 3.1708061065961064 -3.5010230950938865 1.3834653596723012 -0.23338597592845614
Ni 2.856766830245984 7.701839462780109 6.064186483503759 -0.676427416937648 -0.020599678528222587 -0.5709044581024684
Ni 5.628513580645334 7.681567034982129 9.165095967057624 -0.21429270674243095 -1.7320123317463332 -0.5978599036453897
Ni 2.7099797846271163 8.901692626782495 2.206162939868168 -0.005795780746170664 -2.3018569811257197 0.12061559150224388
Ni -0.3183720846661286 5.5836810501533245 3.407910767229225 3.933055329476768 -2.528755549557619 1.19583267871956
Ni 7.681115700782544 6.361282862057414 0.6272332413556071 3.7621299339763783 1.524091589968517 0.5914020638351879
Ni 3.5666685122124755 1.1781703168307054 4.4515750300676595 -2.5855633025752827 -0.10710624416189941 0.8353159358781614
Ni 4.751853314728383 3.4609904899390496 2.6482382064036085 -1.1703913558283199 -0.6387831242223128 -0.2885153128024322
Ni 7.402303998989535 3.347940675739085 4.202250495980804 0.7787596367496716 1.1893964361759128 -1.059715392037291
Ni 8.3674069624333 1.6444267533884405 7.174279618284297 -1.7547000031518363 -0.8092104970403612 1.8141505931089852
Ni 9.22828933695646 8.802558950403037 4.359961709788769 0.5728371563488069 -2.541137211051424 -0.9055556460310146
Ni 5.668560088062589 2.1447683248105913 7.448829973009567 -0.15595411890253788 -1.8220431084831847 1.5279438738350717
Ni 4.375261939154666 8.80139300372078 0.13320282649097226 -3.201559510810067 -0.9201703106203958 -0.6266470030804111
Ni 4.779666784777746 5.708794651396335 3.4289250756177725 0.3656962301598089 -0.7299739827055364 1.7651883042776697
Ni 3.625210319016849 5.38070289668625 12.258711701890295 -1.3409871359034322 0.27714332352006465 -1.1068568256097842
Ni 8.089958666034866 3.946155948900189 7.153058448387607 -0.7060436971421841 0.5989814188443425 -3.967211149422871
Ni 5.868209651807731 9.272510685719867 10.779605844970723 -0.16441947606107168 0.5889386898963599 0.27331675068512284
Ni 7.472928398428605 5.19943579877833 12.056383281614707 -1.1338557227961312 -0.6571515994271715 0.5725923873278526
Ni 2.4831749465403368 6.4685029428460865 3.507396108172526 -1.1120368271488268 -0.6847781028951884 0.8405391319503137
P 6.495178674600665 4.757231713940092 2.183883015161621 0.557303322379266 -0.6015309247390738 0.1509075576175659
P 3.871864459089499 8.036362729834268 3.8523113451721054 0.8040451507893379 0.5636521474154293 1.5146790384053654
P 0.8512134795766565 7.092256209466984 5.232702890406 2.0423208291644572 1.3647901518603012 -1.0924928435786283
P 0.776636144772897 5.357233518307882 1.1712949925237093 -0.43429763337829075 2.390080786560819 -0.05701806925625664
P 8.629613326799948 1.7144211655072574 1.234026685147554 -2.209109062568021 1.8197013477238853 -0.8092835163701418
P 6.353027207323357 9.328269264960138 6.756425953793197 0.06724206097711 0.38520550383733015 -0.36706559970350977
P 3.724842343575015 3.778908419566847 7.819714791797293 2.3026828194611246 -0.05171311210357546 1.107786793623221
P 0.6737874237631131 4.20828709090024 8.252926982988404 -0.9035553277715342 -1.9534478201811323 -0.2008746335643121
Ni 1.0791024600220198 1.7617830480761025 6.493173058251264 0.8278607651516968 -0.898294079372595 -0.6280305136914991
Ni 9.45112619520523 5.965970519996787 10.437662831731322 -2.630609287071328 1.8987002921266072 -1.8188796231535385
Ni 9.311494677208934 2.2757304650565455 12.998030030594258 0.190247235757453 -0.5929041023020111 -0.13895707012390907
Ni 0.4886689406854099 8.25509056630766 11.424641399661171 -0.1789300109724209 0.621483970822233 -1.9716113784640368
Ni 2.9697508248751756 8.807711682514954 11.27979697165968 0.8490577109442861 -1.1317253067166897 -1.1111510821097639
Ni 0.2766368351187641 6.289981461318969 12.777137670522029 0.6918290962046988 -0.5275430603976979 1.4079060092131688
Ni 1.7724176101538 2.190418898539347 11.249782307107763 0.9669402197860831 0.018549995088045473 1.4454490004639493
Ni 7.801161195076061 8.861890592056684 9.136456931534855 0.4470883573850558 0.2365435477208313 0.8483403731622874
Ni 8.69873327890707 3.9101244353000673 0.9553569655714971 -0.8484743276369904 0.2887994197017542 0.020081858351539607
Ni 5.948443708579609 3.4923958279934357 5.800672190237899 -0.9199173140693254 1.47220261440871 -0.383197729378682
Ni 8.860226297195718 9.0706796733434 13.467505044162776 2.8774130790675865 -1.691190412633965 2.108111759517337
Ni 5.370058931812727 3.6941046040241803 12.703745087992177 -0.715813117824122 2.0698118354958743 -1.046546715865817
Ni 5.718789823357956 1.2627390624777555 4.974983540206883 1.489540848576841 -0.04929781779386349 0.789059476013783
Ni 4.827103889713188 0.47695023624912813 2.8374375028692174 -0.5408531472430427 -0.29988935896732866 -1.6957854882038148
Ni 2.4988494071800558 3.8464392991796013 9.549026224772492 -0.5068384808604948 0.8282842258423606 0.3602915142044698
Ni 0.5983967471205199 7.3335225475321 2.1291380573112484 -0.4152254472381881 0.8234744631585431 -0.4248724834096489
Ni 9.10749161899697 3.897411855345118 11.14348464058949 -1.0133162359474612 -3.5425101585940797 1.1646027741710008
Ni 3.3439444875136015 8.79063620529736 8.622462500575288 1.3842711434030484 -1.0297209025577299 1.7901714565855686
Ni 0.8580022981620657 1.8169022372002972 9.297375438998614 0.058355557120757566 0.6982249724287137 -3.029786422597401
Ni 5.560014213062639 2.6603330226728774 10.48037973316278 1.0765005819154296 -2.3680708579486316 -0.3276580444401647
Ni 5.109347611982201 7.545057245199621 2.1996261162108603 0.3924945812995757 0.8381384929286211 -1.4693306921775533
Ni 2.9720733154438683 3.137017159800167 13.291669001123184 0.11457067085974462 0.1355470160010956 -0.3397046911920537
Ni 1.0923415965431502 6.1643507063056004 7.815640560366465 0.6970499782840058 1.3382350270795922 -0.9234361258558613
Ni 5.704206087033899 5.844307744821429 0.4212649988162885 -3.9221548805141806 -1.2405415915911604 -1.1511978136190044
P 4.4424825265052075 1.8557733951394684 0.7168719745113171 -1.4434538244107913 0.37645166890410003 2.7149908359422015
P 4.220557739451429 6.831074749845224 10.763517661314719 1.0450400494133034 1.2314082618313245 -0.5297524093441909
P 6.767671697599498 5.512295024252456 5.667993099474361 -0.667098169116922 0.3791670109527341 0.35255043680647025
P 3.9922390512368793 1.130855448240984 10.765265641058527 0.08073623880880289 0.34021608361083344 1.6974520772729607
P 6.8915253242020045 5.759870638315924 9.930906672997583 0.9044590705327261 0.5325641677613732 0.31785237120365256
P 7.276090270635038 2.8506362073683014 12.087609026268842 0.2060798319143354 0.1480988845241772 0.08727275437574002
P 3.6515663557133893 5.019090174861228 0.5327135168873125 0.14655596551708955 -1.5523719249704488 1.5212055266699736
P 6.978783269454909 1.5742536881489548 9.14936602992254 0.8497796767119752 -1.2363640631747028 0.07988211833862371
Ni 2.371112425901962 1.6633075674043707 2.558854289014747 1.5368530033992434 2.1770463777055213 -0.6920820927557694
Ni 5.078083315865185 4.730885080039377 10.426074826157002 -1.185052043164288 2.4969209215455255 0.4628829012151512
Ni 2.013636934239793 3.8251701750242058 1.7444226661450208 1.4909264160704583 0.24056141063097278 -0.015421990982025052
Ni 6.474370287440678 1.8798351496547896 2.5918139092189505 2.645034461357722 -0.3816095589559557 2.1164850711826966
Ni 1.4702493635323193 9.287620978610105 7.68998065668604 -1.4731994311043404 -0.22399605007312393 -0.26214659300091625
Ni 6.2102269471341485 0.3705190500301462 0.8182783066415974 2.0935444032261237 -0.6545851242515758 1.471965558697239
Ni 3.7632433617229526 0.6507223656052061 6.671308084869986 0.6022305219092596 -0.9552699825370065 0.5680119670460219
Ni 0.44282937076057854 0.4818566151104391 2.216938543883236 0.385237128406214 -1.895182508781336 0.5227957755206997
Ni 9.569883506470768 3.148244098014819 3.139897236161263 0.20023468598746805 -1.1802955023159092 0.05833833072957695
Ni 7.619800069209894 7.451320773623522 11.744523573336743 -0.24768413771868314 1.2114084216706296 -0.38798255236183504
Ni 8.413800357032203 8.371403150658782 6.950414094172308 0.1668118875526482 0.44089765519331164 -1.208731389059099
Ni 5.96222820725857 4.536190789693833 8.271601875775772 -0.44686261452749493 -0.2555709966659276 -0.8192565684224535
Ni 2.652331243426086 6.856264839859505 0.9137307884556988 -0.294941270933434 0.15062525049045672 -1.113229047684715
Ni 4.363799931044398 5.2041748078739625 6.3152589973344195 -0.3436881013198339 0.5037392731098809 -0.25891060256212184
Ni 6.566141574689422 8.654709388855983 3.8762433411050465 0.8674274717007254 0.40833849031036773 -0.06818642716825032
Ni 0.500396107637934 3.759171951130872 5.5926748243596185 0.7738699127575382 0.8606657274968598 -0.7818328763583566
Ni 7.3053517712414 0.6961566750299945 12.572428462343632 -0.8622790947305666 1.0600776604727162 -1.616782430036035
Ni 5.26030949894722 7.52508570686803 5.825636613152388 0.717550669340519 -0.027902382837222912 -0.39262904999491094
Ni 8.479093371238687 1.2878539301254397 4.95030778312421 -1.0038769449114324 2.016916015938107 -0.12016333445617369
Ni 7.84022981172755 6.160881074646298 8.003037340872485 -0.7542979041628816 0.9766181091954795 1.6300130697936959
Ni 6.439363678585444 2.9377719162754854 0.711606408849504 1.1529667325939692 0.43455320103252254 -0.5025748204881344
Ni 8.885068483764485 1.07670474708673 10.853314361440285 -0.7294559054185372 -0.013963918379259822 0.14158088090000134
Ni 8.864053235096357 5.982359593119182 6.0642410197195415 -1.147050367109534 -1.477308053956075 -1.2858104907312888
Ni 2.349777482175794 0.9559540431063633 0.3291881207032424 -0.37896697912678606 -0.5294618746869656 -1.2808626598077102
P 6.11669733706619 7.885118758994508 13.235534310049925 1.3292078838803172 -0.08371743292431388 -0.11751201287625569
P 0.7478485450760983 7.811128158650208 9.131062547570243 -1.0538131676202431 1.1968973725386485 0.8541803768828322
P 1.1576534163412835 1.3779139085340948 4.166565945546613 -0.6678322190694692 0.023073593990011878 2.0788317796062974
P 1.9225990650653728 8.285245332517365 12.961258516962733 -0.5337954690653129 -0.08740696596075916 3.2922649450164396
P 1.493681130727388 4.733564876849407 11.379667827231792 3.3737246922548283 -0.1373907540780537 1.7635715946098531
P 8.07082397653167 8.408628819328637 1.8810095588532905 -0.7536214469211473 -0.2406971648778887 0.6740427187555553
P 3.9548723406296546 6.888422401579866 7.770708360238714 0.32949638320048413 0.12613857820300212 -0.17206053754609724
P 2.672735310365612 4.507314803716282 4.945436194607451 -0.5479463066443981 1.238781928587576 -1.5861299952575005
