# total energy = -381174.7185352771 ev
CRYSTAL
PRIMVEC
9.15854436116996 0.00000000000000 0.00000000000000
0.00000000000000 9.15854436116996 0.00000000000000
0.00000000000000 0.00000000000000 13.40445543242268
PRIMCOORD
 96 1
Ni 8.257151444923606 0.5619948539170752 5.457905494434597 -1.7167230096874304 0.7885460267124741 -1.82369709914684
Ni 3.6669347046950884 0.4815727582903817 5.866446186702912 0.5247277024360898 -1.956304058683005 -1.6235842834492167
Ni 6.964001587376532 4.075607280005052 1.067563914806391 0.05257443166260623 1.0949703585848432 0.001124086302114193
Ni 3.50259378112909 4.310871972635645 13.05301780809686 -0.5163387070414462 -0.0058978535416737135 0.31559854217246935
Ni 1.2699970569020205 4.16959226426911 11.642051517488854 2.0302060481787936 -0.43361551970960155 -0.548098001730914
Ni 2.9184251749803143 3.193044133580763 2.166414333680649 1.261191406631028 2.4447936047226673 -1.778931364895375
Ni 7.197910815412399 5.245437335065715 10.344674075773364 1.1890994737607845 1.1049925187075356 0.26742635334261683
Ni 5.289233495146666 8.840660635864136 7.289129003365195 0.9961109278127683 0.1476473988090554 1.5655040914770328
Ni 0.6135840195632473 5.640005751754877 4.515465615392733 0.5250151517695216 -0.6738298314138008 0.7477019961129188
Ni 9.077399854168723 6.613568196917003 0.42089556887835256 -0.6554297316400582 1.2377619719634942 -2.513653660919174
Ni 7.990372200465627 5.266428719194853 5.824691466204151 0.4667683523124865 0.8762437844407748 1.0544572289621452
Ni 6.761542801356137 7.424914500850809 8.87128314545148 0.5189972277102158 0.5919322253070451 -0.030200691953096374
Ni 4.4018621128289235 1.980480309607988 9.557551206343552 0.46782996080778144 -0.27679982413771687 0.7655361960808623
Ni 6.877196902046699 6.859548386681581 12.467430543395901 0.8923504601946504 -1.3397944011469118 -1.0337310521583873
Ni 2.382137439785787 3.1472422522413988 9.115297911553704 -1.0476839147940538 -1.1530582638665108 0.36307241938371665
Ni 1.1286074460007787 8.067862645978998 1.7868540239602557 1.0872683619548953 -0.1819384587814415 -0.17484607071103436
Ni 2.4578144934764827 6.320632149198632 3.3168786462713884 -1.694074161939663 0.0577444058993199 -0.5300365162435129
Ni 2.3647911563911146 6.294768419364125 0.9855006079947317 0.9686389476447447 -0.2611189230673503 -0.5691746198955553
Ni 0.7222675519899829 1.4254175580675905 9.038115193137514 -1.0281350461278487 -0.2029752248470827 -1.1356444392654377
Ni 1.017147958718222 4.358716209411657 0.8063915313274086 -0.1312339904480385 -0.356320959592496 0.08777900458819721
Ni 2.851567799699898 2.549683853947421 11.360075500044193 0.41111605305550486 -0.6356854591335955 -1.2599431360462237
Ni 5.125304706085821 6.6894925313107905 10.687145027593331 0.04093324787925209 0.6878940228163507 -0.2729861068185815
Ni 3.5513172381827633 4.5979648689253985 7.750255310927697 0.16822650851198773 -0.46328167931546665 -2.3717017698329994
Ni 5.536266917535524 7.788591146742596 5.270162657811541 1.1124255779468133 -0.10003879579215674 0.47483698825323384
P 8.677629384170071 2.3598821765075115 6.81512028702606 -1.821054262207354 0.042519618529765484 2.351245558861176
Ni 7.265967960030039 2.6846808007465084 11.559413054078892 -0.059470387451491136 0.6558930444297221 -0.3826511128465926
P 7.315094393044307 1.7598051784598199 3.4497837814932084 0.3540311351170548 0.44166744347980064 1.119355472297427
Ni 5.916941822128743 8.735511385782704 13.240867799691257 0.024010761092300582 0.8265153068673959 0.5037958373794291
P 8.730144478671154 2.9633661531311364 13.0781644238924 0.7793643602132061 0.5080558982073637 0.32222247524689024
P 4.3286029149017935 8.603674136856458 9.401376041106326 1.3387001396414686 -0.07587788227523706 1.022504844425265
P 2.239630486448352 8.056405306735737 6.287360072670381 1.1279565837028767 0.4402067997738741 0.7526755380681102
Ni 8.946112117916016 3.6195026024242285 9.766955832557464 1.1905400628620528 0.3876637355698355 0.5308492419527954
Ni 4.398070475381513 1.1295599346349106 1.6247138986517757 -0.18682406900851695 -0.15610092889304727 0.03767720283579963
Ni 4.444815686810451 7.983292645521551 1.4003368837928754 -1.9778637871316518 -1.1238327913424904 -0.9343823404547199
Ni 5.543016764875479 5.534215403554318 8.656731417195433 0.3089931210408098 -1.1777344264569523 -0.6404602548144195
Ni 4.065633624980343 4.704561169047148 3.9284441226138402 -0.28120283830141896 -0.8392618078997869 0.4838206798090828
Ni 8.226113137413288 9.017860155990917 12.237222283216312 -1.2678009415277456 -0.8127994999432002 -1.363550108805613
Ni 0.43963761446381056 1.654939843259715 11.34378886025499 0.21057643423310832 0.5277616041664072 0.7234276969465864
Ni 8.675522918921509 5.855588732128263 8.151839172749025 -0.6577954036587574 -0.05388697982644269 0.4687871825147281
Ni 6.865519757734023 1.7854124690466753 0.3297927785869986 0.3239679971830872 -0.9026886088958648 0.7500843803021662
Ni 4.868242677404901 1.707473254849916 12.365047173771275 -0.11404462315294553 0.3169380869194993 -0.2429327390766268
Ni 0.28787137257726586 7.800121754342329 5.529941110808649 0.2658255845144002 -1.184151899947522 0.9364726473248453
Ni 7.807128040929934 0.1881586345460326 7.736153899870264 0.12441593908494057 0.21748550264811578 0.40227171529099753
Ni 2.1499958108497994 4.1292213998532095 5.643329387575323 0.8640079044962151 1.250510272768098 -2.517475862878742
Ni 1.3669952023259775 8.29510445357594 12.484280433675478 -0.19119828681681267 0.6083880568702232 0.5560866763633455
Ni 5.900502234645408 1.0558977607471864 4.998575177460108 -0.7607665426063608 0.2805135255438782 -0.5164387229544203
Ni 0.11418873356112723 6.8878391308242115 10.98696188983885 0.1636813123434665 0.529096778038063 -0.9927574379595032
Ni 2.7081907846293616 0.2326554232857452 8.29167457863861 0.40284661395786103 0.3940146174885279 -2.2034647197980504
Ni 2.1697416329189196 0.192324856465904 10.468129424719248 0.3067783727776781 0.20275231020299922 0.916387446539196
Ni 7.241001767562311 3.642820256871344 8.311995557306032 -0.5416609878563188 0.14517039802347256 -1.9578019833847704
Ni 6.8892953394090855 1.6532729881499844 9.610056226445623 0.3615703809168934 -0.3241513168384869 -1.3260315430348648
Ni 6.694841121333224 6.700775858207431 1.5243948649707393 0.5778952875980048 -0.3629374364677491 -0.19225578154704956
Ni 0.21488418342353702 0.9496128511404425 0.4209065591318233 0.8256308473799134 0.08952555496565871 0.3961195796466726
Ni 7.906965335167168 4.205219002603469 3.5176907259800814 1.2797779113839636 -1.4726075631566122 0.05485628571824746
Ni 4.7605839861143115 5.306845376333548 1.6035210265423399 -0.501138345151924 -0.7031306372604471 0.28017773947101426
Ni 1.7012088103715868 6.1519225998780085 7.020891718613431 -0.6282588276522212 -0.27850240865112036 0.4779397955482736
P 5.574659536326689 4.012138566211451 10.1878953624497 -0.8641539431557762 -2.4393642061769794 -0.3692191557114028
Ni 3.5714935118461546 6.288220060004468 5.521188289773651 -0.6638012435332051 0.7301038234151813 0.4300056908711562
P 4.096442968876688 0.34717752786881856 3.5859869086107103 0.0003337291903349091 -1.0984922556951726 1.368688715583759
Ni 9.092429025789977 6.095515123939367 2.4544496442055204 -0.21930558657599006 -0.694542895591436 0.9675655120749078
P 1.1825421149085007 3.9006149691169814 3.186520502291415 -0.7230196628748903 0.8544657693337349 0.007302961419316455
P 7.6972255062224 8.69182512823646 1.0273789688450372 0.8359661678676505 -0.786200152188117 -0.44718965884961054
P 8.271704372227795 8.615855001119877 9.992029812657302 -0.44121235822025306 1.3256726170335493 -0.12356053306318077
Ni 5.734961541742186 4.392025835972599 12.32187196301142 0.05472155991259608 0.4900021260294465 0.21648997150406588
Ni 1.6568265034388612 1.1011592879575722 2.3072690855796476 1.1804927059283798 0.8892111432347202 -0.6903208870902885
Ni 7.692627916853802 7.418164653510855 4.0878357687001765 0.20209487912465837 -0.11700344867095334 -0.13116431355236768
Ni 3.8155504072533506 8.607245969234453 12.17491853629061 -0.17572975886756834 -0.07228065184228197 -1.0297784952685425
Ni 0.9597696770563304 3.95819473875917 7.43829330274254 -1.8486452844517451 -0.9416001983593978 1.3322099039314348
Ni 1.1422353603045128 0.995909293885991 6.351728155539672 0.5335725544212295 -1.3489223315901093 0.7479076843658217
Ni 4.539478403371874 6.464485408586233 12.85374711143744 0.3350437953812746 0.09620656653026012 1.3291685460019498
Ni 6.072600445452847 9.058661472001088 10.897594643741419 -0.6223653449859218 -0.3835350581134427 -0.7811615613229449
Ni 5.334302692921313 2.001911303875957 7.399701943534445 0.5111548488476616 0.7920229295174811 -0.6427120269630737
Ni 2.4225632554690413 6.3443253039726635 12.005795020755922 -0.7844050079609071 -1.5032188602845662 0.8752582805990539
Ni 8.623355849113667 5.113352805436377 12.18301468968073 -2.6190092409385537 -1.1088548298764194 1.5087737286645242
Ni 6.2590226199505 8.684690622025029 2.6868431331168794 -0.019583578558882403 1.837552002752061 1.2473138773179873
Ni 6.525206559012146 3.5557774493829775 5.5267374519219254 -0.5817964224246239 -2.144046782851049 -0.39761904701033457
Ni 4.509612389565101 7.036106808689233 3.4404145904093912 0.6157352412639138 0.7567790187135225 -0.5038670569369967
Ni 6.359116353435386 5.61167837343401 3.7922675552755596 -1.7041063493646844 0.36455388902524954 0.11431664586740957
Ni 3.536480395997246 4.8857171804233985 9.984376016969378 0.5972520948580616 -0.5856831590735397 2.1387942762028582
Ni 0.746202492340372 7.96777807103867 8.679934589835561 -0.03966106603504783 0.11867183751231175 -0.10282561450867453
Ni 8.724054046539445 2.6661439065591708 1.9614342003431726 0.8469558341099349 -0.5063545992455408 0.42201315958398283
Ni 3.9010179450775757 6.946261486565824 7.884701829198789 -0.12840423430872727 0.8019425026240382 -0.5612157700597947
Ni 2.9341412374434914 2.2734621500491543 6.736194697580301 -0.5728610676082069 1.2588241919504322 3.237674254254753
Ni 2.761246233259423 2.186071317867547 4.0329715075197194 0.4473997179778875 -0.7351457567144629 2.9785348235112763
Ni 1.8267724562749437 8.880866646477976 4.207980303787996 0.991553647459389 0.06537209764790677 -0.5862251476199387
Ni 8.747023676293319 9.331549465679894 2.851825154802005 -1.1642227651237627 0.5022889138165995 0.9945960338301386
Ni 5.552303529058265 3.1252159525770975 3.0874616843416915 0.6236113015778809 -0.7589243471912994 -0.601357632386003
Ni 0.26734249494835455 2.6942148456323873 4.909435979122196 0.08696936420270829 0.47268497490723754 -1.9102594577191165
P 4.269640205031202 3.4157616201655796 5.75610129429318 2.127449283503684 1.1927725517369971 -0.5312999563369689
Ni 5.689159660402821 5.500044873804833 6.324410048829202 -0.8224516783209835 0.9067375821542578 0.1266204029354271
P 7.533727168755827 7.426434819247597 6.432128270659423 -1.4121668413720518 -0.06612851619795708 0.7859147597372143
Ni 2.456056052921162 2.2557128906938875 13.553110975194373 -0.7722416331254959 -1.2971904504334564 -0.09485622314995276
P 4.9912602479208665 2.9475127124995746 0.8401334411915331 0.25929986758074053 2.7955247289322114 -0.9211247041138653
P 2.7093539197883496 0.07815077657607111 0.4704203985809348 -0.7000543123279686 -0.04868332413831615 0.9812620357253939
P 1.311274617229258 5.573441449900347 9.473197347537697 -1.1701910668920557 -1.399418540567448 -0.4532289230651549
Ni 2.756181558118318 7.003786304940659 9.971293036066902 0.034430670874043924 2.39532069480352 -0.724788581849855
