# total energy = -340872.81017167494 ev
CRYSTAL
PRIMVEC
9.23507317874548 0.00000000000000 0.00000000000000

0.00000000000000 9.23507317874548 0.00000000000000

0.00000000000000 0.00000000000000 13.51646309259742

PRIMCOORD
 96 1
Ni 8.643317328906795 6.61791803504766 11.626888704033794 -0.3991547669285706 1.011546288531232 0.3827228466247925
Ni 4.5480333940249835 6.640276147043288 10.795045034831432 -0.4793436178743357 -0.9443679909125219 -0.4126713133577667
Ni 2.2258280855324495 2.845741603012197 9.794299266533478 -0.46416073948631026 0.2508460803864325 -0.22203609813327568
Ni 4.387204595840826 8.708932523342536 11.582960231778694 0.6567510215546432 -0.07570330437058574 0.8776239526177531
Ni 4.303941176694781 4.234779714185383 5.42219678574695 -0.008525778082824025 -0.5381930839123763 0.1342846043489042
Ni 1.1730666914583014 8.784299954980831 2.9550100645244073 1.7758159591948448 0.3782514411170002 1.1254690413943327
Ni 6.325886553211344 8.721335226527223 13.236374474857545 0.7035129603005303 0.37492571917787687 0.8427723921562067
Ni 8.220978965509842 8.825857783968987 2.277577741203121 -1.7014817672576437 -2.2090640682626987 0.6396148760949888
Ni 5.028164844934795 0.33180878872915615 1.3621354197008768 -1.1287101740394498 -0.31148272023188295 0.6310124791379583
Ni 0.5087380133706362 9.097304287846503 0.4178307242127035 0.2684635363578796 0.26196301623520046 -0.41520590685416237
Ni 1.2735627570247676 3.8431756740934486 1.962130731500257 -0.42308710937445204 0.2504020508704784 0.6126656011996545
Ni 8.496738248529018 7.694792205008047 8.914459075371733 -0.3208870442649184 -0.971144744785734 1.218675130535372
Ni 5.026779583968524 1.4204465948151228 5.222004411945212 -1.07012630295797 -0.09181717921331284 0.7162594613329213
Ni 2.3351436459175132 7.8620393790025975 10.645336188177195 -0.9346289092478871 0.3502050765027453 1.3207029317330996
Ni 5.704966412762773 0.567413973872667 7.579423977707687 -1.0500511294746497 -0.1709819597699378 -0.17107889035911825
Ni 4.5659494358554324 2.4820274837078684 9.476379104252166 0.9671801037110311 0.47843241891397603 -1.1139975504196236
Ni 2.7580915241396244 8.265852185743942 1.2093291295260542 0.23116865656216318 -1.1192857954017563 1.0444908617780526
Ni 2.952776100339466 3.6423405392033605 7.551486034539916 1.2413761716773137 -0.08065550616953852 -0.38738734197999736
Ni 3.7328996661051033 4.4386439530550525 2.7519114132154305 -0.2733296062009293 0.058560988263344306 -0.14696862757447593
Ni 9.061112036334375 2.3726934531765878 9.026334598022466 0.8751703488709379 1.16218208054465 0.7201094312066308
Ni 6.670142373476108 3.0944790621159646 5.030057111414724 0.14832462738173813 1.127713100233503 -0.6689120823972093
Ni 9.187133843972678 7.4679788094638075 4.5998689358755644 -0.39401410326789565 0.3883116535664796 0.09817885976528253
Ni 6.920145037595738 5.771486644363145 2.215321342856933 1.2311493517429828 0.7451542899904006 -0.4192134853516587
Ni 4.0266950469051395 8.36213705797294 9.060368612949143 0.06651778121657576 0.24249076644320172 -0.6260019132972445
P 3.8422891070750342 8.593420228901683 6.254202992236021 -1.8625894053366632 2.0005758840171866 -0.6457251027577846
P 6.16733881808498 7.784861873035041 3.0349322342198044 -0.4553248863622352 0.6597129323964445 0.10696329082613192
P 8.971421006304828 5.191117709933904 3.3490549344389127 -1.1294200556222806 -0.4809618702040491 -0.7182875475065436
P 2.1012284791528537 1.1876765771159148 1.8275470875830848 1.0864525509218192 -0.7532293536890512 -0.6420713080552813
P 8.925384166859063 0.622113311894187 4.2438448619486655 -0.5977981971695189 -0.13278205166144874 0.8604150449386343
P 0.5646803922325573 8.730274777296232 11.767824231234977 -0.7688662888953598 -1.253733921911718 -0.31630713820371975
P 6.93663887816748 4.978683323219567 6.345722566741046 -0.5029365747029274 0.10921840540889576 0.22004323607296297
P 2.970387384757335 6.584256193567255 2.823872949891319 -1.5749274416734618 1.395395535450984 -0.4356379494562691
Ni 9.305352014834313 1.6677526175870763 2.2693465205415344 1.2119555524233514 -0.9438738248849229 0.9137204412299941
Ni 5.450854141109871 1.5448892049518743 11.543857085222774 2.913842525539214 -1.1465376891391739 0.3555043772284716
Ni 9.204384960539315 2.83418852655349 13.752190248258518 -0.4939251152329364 -0.4137352358459068 -1.273346296826007
Ni 9.295470486608242 2.836765111950755 4.702242491804984 -0.003616256596348611 -0.40509170123829585 -0.45845983244679106
Ni 1.3106692807746352 1.4912426652647213 11.658733083126451 0.48153985419470613 1.2150143938543332 0.4423354160811028
Ni 4.017395328284901 4.899945089896677 12.537248964804443 -1.2736517438815678 1.855411142420669 0.5818401311783657
Ni 7.70284518875864 7.80531755997032 6.531830530545043 -0.20057715692855135 -0.31388181659167874 0.28938974498758546
Ni 8.230685027346853 0.9899259566440585 12.269272077893781 -1.0328512206565954 -0.44545390710542637 -0.5369041898976238
Ni 7.67097495146128 3.048239051061811 7.322260437899742 -0.47631280146781196 0.620146225847416 -1.266506133975722
Ni 9.000400665719235 5.085256066891412 5.516257852371428 -0.19059639156675562 0.08987162545116781 0.7520780136934273
Ni 3.6006995945572298 2.7085176516933105 12.120658510910209 -1.0316029500717911 0.8113581395109833 0.037489769415341885
Ni 6.873840381029824 3.5855448395862157 9.446656021452526 -0.24732032662136114 -0.07397372327398873 0.015827968171192097
Ni 8.448863629534666 3.232718871476784 11.270499844719112 0.5202395847577492 0.44414752958917697 -0.3125471569406552
Ni 6.417877116444901 0.8536799995673601 3.3467166139278457 0.3735149548732793 -0.4231896963905873 0.5822327386310939
Ni 0.7507117049297541 9.479340792198055 9.614800844553221 0.004884324675494814 0.37050033641667157 0.2820245628717659
Ni 6.812334794127356 8.357427170687618 11.125063142884855 0.4537847955686249 -0.057865504858216475 -2.11757136226834
Ni 4.126941765497676 1.914098192755748 2.999533275487694 -0.24360071167792885 0.23697832126540477 0.6511473022146206
Ni 0.6967077679133026 6.842007084024898 7.099021939155795 0.3823078705745609 -0.7434864153696744 -0.3464841760077323
Ni 3.720681664382586 8.835471495074913 3.811453197965824 0.5687007655829303 0.17855848656561504 -0.7949488449150245
Ni 4.6107026001391205 6.6619693337751045 1.3474618120388149 2.0881908522236943 0.5276201934925365 1.1948901123006326
Ni 4.5523923485321856 6.435746982909808 4.173964910751429 0.7123765813387473 0.11953727083640057 0.3498772608496813
Ni 4.999840875711092 4.883497424690476 8.24809683418558 1.6343363797593984 -0.56719255646852 -0.03305513068275597
Ni 5.655069312757662 4.344704789395607 0.9695977137176749 -0.4198698879887349 -1.2278218300316468 -1.5040835222777065
Ni 2.5091324232812533 5.739487116042267 0.7381556995314663 -0.6399969420247559 -0.8616977683057999 -0.04287623053823584
P 7.485728619978303 4.182185972832596 12.964288903920922 -0.3793940393618756 0.2305032550640224 0.7060699223944292
P 1.8011901889314863 7.944970335516737 8.554947837839071 0.6941009229580111 -0.4262459667184078 -0.40423578099590385
P 8.276869627962357 7.317696464769532 0.5386716558371485 -0.9580688854383823 -0.014211515613691654 -0.8028881543667591
P 5.352408261773487 2.2460528956400183 0.19777001412538414 -0.1934981385945829 -0.548505778692294 -0.22351088290658927
P 1.2579554834714384 1.9599410956662366 7.434244010905846 0.03614045447629905 1.0379540891007994 0.28044873374421375
P 3.4015083026804507 1.1367082086302205 10.745304007561856 -1.2868862402939707 -1.0811599350643122 -1.2828231259681908
P 3.998528073924279 4.573476020438843 10.198117614318688 0.4021130782259462 -1.0754415445232963 0.5456225436072281
P 9.406106662447819 5.273005103186786 10.003885556701164 -0.3557015808409423 -0.3513204210541111 0.2427990417122399
Ni 6.159498241015882 6.476990819412275 12.823271184569073 0.3992426986566866 -1.0725045733821592 0.24743191249856095
Ni 7.042786808476335 6.2485058756354 4.4950351564700455 -0.08197191098811689 -0.053182754670566476 1.0235350854619922
Ni 0.4816210682022099 -0.08609119853186097 7.038360437935442 0.582192629421778 1.0232723187189088 -0.4862105201974981
Ni 0.6458492967975991 6.708126229171281 1.984392798735556 0.2178626834818764 0.1780126413644741 1.2334785140967917
Ni 7.507855855146219 1.0283530958484386 6.005742585325508 0.6716449079473401 -0.8077292845091444 -1.262830742006664
Ni 1.8915092039324088 1.2062575442101742 4.815240075838399 -0.05732017387770773 -1.4480213891768159 0.9679308658341266
Ni 3.2335038526910047 2.8140098918114638 1.0051499746633858 0.9234176139131001 0.33848393141107513 -0.8588168472135791
Ni 6.65124741389616 5.7782374828054435 10.467135293968676 1.0448238196374395 0.7081502019622256 -1.3280470308029966
Ni 3.3213386330257464 1.309080848199977 7.349184370040201 -0.09752528534168364 -1.6765852611262804 -0.151989477827835
Ni 5.77898552372723 3.9216183850768678 11.635592760438536 1.1670702618748867 -0.3116254164573343 -0.035617749203609626
Ni 5.724544767752748 8.341376613625082 5.292546517884327 1.7017974987258497 1.4665554434252615 -3.421673195109649
Ni 5.1933618326992645 7.315009058494964 7.058877999860549 2.254129078922137 -2.596553740148515 2.630454249550702
Ni 0.9060908864725988 4.507343661909026 7.974834714934936 -1.4496311568660971 -1.1353459341884122 0.6754100314167272
Ni 2.258686475652417 7.573240172754249 5.178413943365881 -0.04142124325926415 -0.8934380368318743 0.31149377597547645
Ni 8.073448672601893 5.527255900936315 8.156428575003508 -1.49802446056782 -0.6089256745412481 0.08785150969734548
Ni 7.801337243460567 0.5433889311809595 8.414862860871178 0.34421749146074265 -0.8960145393097988 -1.7886925580471968
Ni 1.506674472428989 5.618821650806883 12.01527062711818 0.7729111483886947 -0.1537581396924836 -0.8366521381910816
Ni 1.839645033355192 5.073342822581474 4.042220128307803 -0.4739440441253193 0.45217605632060837 0.46510947655282475
Ni 7.228134725763505 1.2551018458809184 1.08615818895634 -0.41517736760907203 0.8696489048320765 -1.436166546720759
Ni -0.10115360277178988 5.218268824872832 0.3432251861058576 -0.2817381419795987 0.33027722723056663 -0.5041845881774156
Ni 2.338920790818881 5.751557356595048 9.548664791994161 -0.3902430662612376 0.00806400795505708 -4.962229101281777e-05
Ni 3.3259654046530938 6.166692362967386 7.372135373729393 -2.0582884082373067 0.5063795389462052 -0.2815985310779408
Ni 7.789756461782535 3.1922415460423212 2.2871748291774523 -1.517414692168974 2.811253709631694 0.7771907496006552
Ni 3.0288361624608973 0.6200585081275504 13.211355738299364 0.011139818666903395 0.7808941665941712 -0.22463316943649053
P 5.694013616056117 3.8736144750589947 3.142023065493035 1.4825693023550146 -0.4555729978172993 0.7262577101962138
P 7.1490363245893835 1.4715534893974445 10.030932315313965 -0.6305962175361461 1.2666673421439345 2.7950760714305667
P 1.8571639670419762 3.6963103064493104 12.96455856805569 -0.6328886131147488 0.4866818034069619 0.6817228610086324
P 3.7556641213175035 7.125339126993028 12.994538385887743 -0.11069370440284161 0.2592651576880632 -1.139895758342624
P 2.678420548432778 3.02487431609736 4.250481185484419 0.289008964609399 0.996699967547019 -0.45738999642137995
P 5.072169968296697 2.680156742177172 7.095196771874264 0.1646966409818583 0.6266148642908951 0.13934736358379227
P 6.235327426309601 7.6707902499991105 8.949411980072703 0.45869920215110677 -0.08588333022738111 0.5768462775082001
P 1.8920171329533753 5.145034695122596 6.19378437343842 0.48837873149341055 0.35664414725986965 -0.15824754292240487
