# total energy = -340860.6443254927 ev
CRYSTAL
PRIMVEC
9.42460626514434 0.00000000000000 0.00000000000000

0.00000000000000 9.42460626514434 0.00000000000000

0.00000000000000 0.00000000000000 13.79386392284201

PRIMCOORD
 96 1
Ni 2.2670230954677466 3.5814917982405463 10.585604804763504 -0.23667570242332142 0.5348262243226724 0.39981039823469855
Ni 7.466050664244263 1.2690515245674099 2.257145165507782 0.6181057983786193 -0.954111443452531 -0.3650719663122487
Ni 9.348568668111369 7.219568933261578 0.2105127206857623 -0.6739735560805167 -0.3170931244401249 0.3417960265034436
Ni 6.677833133215094 3.823845551623322 11.52302139467084 -1.2507046481670911 1.783325894418645 -0.3710991463429351
Ni 1.1003039471099492 0.6630521609124813 4.387428531748228 0.09158115194310679 -0.4238036758255023 -0.8574965857402587
Ni 8.096754748635815 7.233573898360812 2.5350221453051165 0.08878199193141484 -0.2381242619443899 -0.6227101299198501
Ni 4.552226256666599 3.1000263560740096 9.535008116688802 -1.3023159445854797 -0.3347892561683073 -0.9806696535570336
Ni 9.391290408888507 1.4458288666712686 13.723832860388816 -1.0420331442661794 -2.028003126990204 1.0057592495358099
Ni 3.5608613348473948 3.791292961143676 13.74089611026241 -0.2861861504486232 0.6830608630937656 2.263125625993793
Ni 3.895142698982479 2.5681015712821025 7.042816095134341 0.18472424905669477 -0.669843078851911 -0.13230459780439793
Ni 6.348141552393151 2.774425054426405 7.628048338603425 -1.375038826171503 1.5443017463678048 0.13128721228347712
Ni 6.570807303022023 5.766294627540246 7.017283893956456 2.0323668032755386 -0.9475471599714519 0.5854466175827014
Ni 2.7563203855464393 5.963806103707573 6.657677669984123 1.9605245245222558 0.49627330375013884 -1.0225405827592067
Ni 5.786416162188203 8.862843303855428 10.111150327292336 -1.3795881361050821 2.00577311194741 0.2774582836573221
Ni 6.476580088309949 1.160696824872999 6.108033682713704 0.5205262627602326 0.15856635971440433 0.309913318862234
Ni 3.5550369280968384 4.13747760315247 4.887703603352889 -0.772716001658753 -0.36978351285530514 0.1788654762830726
Ni 0.7419964338985007 4.944751688307246 2.611095683183984 -3.1309158803505754 1.3951471668856037 -0.031509640572507026
Ni 6.637486393248861 3.3772417285025913 1.3647951584480353 -0.3417785430019469 -0.20830435036947995 -0.023510938637746604
Ni 4.089544055040286 0.3205025895892695 8.613757554126499 0.20688818674824372 1.3016597990587195 -0.19957802624007565
Ni 7.9833955829469945 7.79655276121596 6.920726916544159 -0.28593958165545597 0.5197580171356403 0.6701243575377557
Ni 1.1555981128146642 3.2676712545835493 0.4501795187860406 0.4090540283201536 1.4710507601924536 0.24936023986952538
Ni 8.465341680039549 3.615844488541158 7.1150547606721055 0.6853154634558971 1.0281702702411584 -0.8447621688927257
Ni 0.3810990388503972 0.6087890471471044 11.515242324554482 0.1759740136678905 -1.7890697388809578 -0.5904872653304024
Ni 5.87921083672862 8.822977218815213 4.869068329133027 -0.28984740135029435 -0.2560340523452752 -0.5105370127580047
P 1.806178692087969 7.962717996521881 4.043892204135724 0.2106345411645534 -0.8272431861723559 -0.9696823013075945
P 2.3214784712035303 5.183656035750372 1.32826538407076 1.2959712333143745 1.499847886929804 -1.3864689223853155
P 8.038397585853541 0.38709026113410044 4.264648529509479 -0.2688129492774983 -1.2931077957236503 -0.3718144272424048
P 6.930092147916372 9.247357820062462 8.05622328638429 -1.4753712419446785 1.3405497912556976 0.4609897979574964
P 3.8839274173754204 7.706689139263607 9.744565182286367 0.07412130459544654 -0.7132507564135846 -0.20665935856688925
P 0.3325425242556704 8.678761891797391 8.095274142971554 1.283617339734712 0.06629435235186001 0.6367213565972777
P 8.087942741658841 8.80193207274079 0.8318817324455569 -0.7696509895801842 1.0849690243977572 0.21131305528881672
P 4.224155708144163 0.6272904919561936 5.779490961411004 -0.22032708586196892 0.29517858375522066 0.09772917382237363
Ni 3.62771949259569 8.069951168055585 11.977005627057526 0.6087508395262806 2.4213613418416555 -0.2080217861320547
Ni 1.6862600003499777 0.9574834618382171 6.631607323781228 2.9206011844192865 -1.6282991724263827 0.4409411068367374
Ni 1.5330535988337262 3.2037535740297094 6.548719795480593 -0.30267643479416256 1.702129685254288 0.4595746627775246
Ni 5.981430117661523 8.081515160099165 13.018056131317278 0.3838453902650099 1.077074709251345 0.6077126280697533
Ni 2.4406997420684777 1.3893095021355304 0.9553544432541545 0.07071433579642661 0.6040038117595985 1.1497641664962717
Ni 5.182364864674602 6.441313211189266 5.180658068456922 -2.3544416972009707 -0.9000046343057984 0.9010901540604933
Ni 5.309220066717462 1.4666666714050554 3.3642404839841564 0.24896840374774543 0.3832468374490625 0.6001615551953728
Ni 9.25493520360202 7.700695089597986 4.810610323062354 -0.025528483288407646 0.5125504436436076 -0.7672904597678076
Ni 5.532206253963679 8.450808936982334 1.8316873317498714 0.6848323531718916 0.41131865598461426 -0.07619824172913328
Ni 7.909770557808894 5.628601128146026 12.814789048026059 -2.269296273580879 3.3333262338331235 -0.7571896238883797
Ni 3.416382118850585 6.8512176170176575 0.28927227138648887 0.38364073045337155 -0.2835875364835116 0.1693022580746697
Ni 3.5485433742924153 5.9262207734143395 11.33303829408983 -0.35089516059123443 -1.5156982236984995 -0.8027955946529529
Ni 0.6459351907824485 6.3270115848611965 7.644517838274295 -0.4069120422764863 0.27165838914609347 0.775786927274593
Ni 0.5794577871324096 4.979302295342099 12.72072864884713 2.666632756353788 0.955284894935342 -1.4166796416407408
Ni 0.08397230049641052 7.589399912709119 10.290070824889847 -1.0677225786124835 0.09616131511462149 -0.6605433987175399
Ni 2.908094246891033 4.55632596044733 8.242661792501087 -0.5425364484827366 -1.5605935415492929 1.4798745291316706
Ni 3.226316081733321 6.093620632157674 3.432823344702277 -0.3880051780696544 0.5690622626874071 -0.2652841101886334
Ni 1.4664216316388508 7.227287685897024 1.9214991183670662 1.1522200842359318 -0.38986948497190277 0.6738827961389233
Ni 8.421046029994864 0.7561927185075022 9.443486706472012 -0.9642737286975136 -2.294825271089919 1.0055918707200102
Ni 6.78946759593409 7.025195851022948 9.332679724194277 1.8223986920503903 -0.5323654214870057 -2.93112599521001
Ni 3.5084416740923876 9.150991219699293 3.2811465568035256 -0.20860851187346008 0.11035457589586802 -0.4251087677901711
Ni 6.393907441035062 1.8837526273045206 9.83830797222987 -0.7279453823112818 -1.201079528940796 -0.028657001615060324
Ni 5.417197782156173 7.727734285338029 7.384876529385782 -1.0189484945325742 1.157929218805567 0.19435791549171688
Ni 5.901820467464194 6.520470480279756 11.247613661748336 -1.5998357748793672 -2.5949226323029957 1.4242595108705278
P 7.334888417080037 7.985714036119546 11.247917134074175 2.922597388913709 0.4770355385664494 0.7062131328405128
P 8.147562801697706 5.305318279670973 1.3523075549779915 -0.11358336724581083 -0.4165127985910439 -0.6576033422526094
P 4.25068597513901 2.52441852065293 1.8118098944074794 0.5735953746710701 0.40978833538301684 -0.20257798940866403
P 4.781498656376604 4.773563137794131 6.835314536190976 -1.9056319862494342 -1.0531621642998057 0.38913209258524595
P 6.637118833599555 2.2674283535426234 13.186810305999213 -0.7017396704501915 -0.04972899179401113 0.31092710483872904
P 2.541740947202319 2.0354228179787968 9.019324756093068 -0.2686229447538793 0.06947557829331905 -1.23135941087126
P 7.712023466481753 3.4023111815066036 9.188355071742304 0.8006168418340792 0.13172918491690216 0.2995111496923035
P 1.4665724253411303 5.782344732226649 10.811796300643804 -1.6599769631456378 -1.2554994984525731 -1.593712692700765
Ni 6.114854270359946 6.2837809153388635 0.8005364340447879 1.2213781312888319 0.47721165913299746 -1.2625906009713996
Ni 5.783852669249447 3.5383459501757457 5.253890087508456 0.8898806584979191 -0.566346920638773 0.12451209834317264
Ni 4.314471711203355 3.212329965846872 11.780139736428083 1.3931028827620653 0.05403584669948113 -0.47795470794660905
Ni 3.335698063524513 7.978447664590939 5.548471239675831 0.3050356790549585 1.0584483523994093 -0.07294039691346793
Ni 1.4654508971804245 5.391430908279117 5.006510191536567 -1.67809218468911 0.6637382515057537 -0.6368653383743096
Ni 2.7140698750889247 7.896764600987263 7.866171386176616 -0.73574765196452 0.20895895323434335 0.004930090311765703
Ni 9.0452471359756 3.9393723767824156 4.3590265379238335 0.18306665884861378 0.5837733436453365 1.9157773022135522
Ni 0.16073383464193003 2.422048446017748 2.701418283467652 0.43475580396163194 -0.5669675849419075 -0.5221077483147395
Ni 4.933526982093794 5.341320276090269 9.206742478814043 0.6049453497372613 1.1051722388185095 -0.5497303951280145
Ni 7.118103620840075 5.413672979365384 4.527628976442849 1.3736987672038405 0.07909458944032184 -0.6304283244997143
Ni 7.943689716215451 2.0020125883174344 11.498744551064435 1.4274883022204705 -0.792726383342409 0.6014131682142868
Ni 8.374281133075348 3.6812229830858327 13.442838220796848 -0.8345561748940014 -2.95266026973736 1.3804864795496354
Ni 8.310994901149805 5.30034208749574 9.914974317850824 -2.220035479672538 1.676772694546738 1.6681301883803916
Ni 1.3432231768762743 7.292600208196952 12.244468416791165 0.32415260239006755 -0.8651792990964969 -0.8514820041150626
Ni 2.3283301600508675 3.4160993806588107 2.4713363100685317 2.7227247142513495 -1.7021551391755847 1.4146939786692798
Ni 2.394472047713334 1.7210273733318584 12.123275518268908 0.3393187686075446 -0.6003104220684112 0.9696023399992786
Ni 0.5074943201013047 4.2352767436872965 9.15203546608758 2.1302206756012345 -1.3023771368407182 -1.6581908177794926
Ni 4.518853725430806 1.2641318800305323 13.306982519649162 0.9128079567180537 -0.1822009684142088 1.0842342031142618
Ni 8.961933615466025 0.46636439534385676 6.170160688052972 -1.091594757244391 0.13846316120662605 1.2923572907108711
Ni 0.5028564712955623 9.311652484872 2.164022514664907 -0.9361695142621296 0.43403435241457505 -0.5089205602005041
Ni 0.31075566165816054 1.8467421980012286 8.192189255426767 1.2390490662060338 1.522030079453798 -0.027328512611623904
Ni 2.011333524039603 8.979482232568834 9.905456407855052 -0.2735386368879418 0.8548264951072633 0.4746289860074859
Ni 5.081474453243039 5.018527507147626 2.1562981072656258 -1.8257131011356043 -1.3233552817542822 1.8771924999618188
Ni 1.7287272767545194 9.027387506861839 13.417567081216037 0.22228986601529457 0.7700230282076224 1.3045543469976952
P 1.6969757778182342 2.7735014429999416 4.507075794822116 -0.4792883391563681 0.5397429448979995 -0.5666099444921726
P 8.650280731279299 6.043321507840978 6.046995219412769 0.4638501502244269 -3.209523759962466 -1.1458517188157429
P 3.6241569913793303 9.04217471429165 0.8973337389200933 0.2315072708485045 -1.0897502478364844 0.13409845648002713
P 4.943196628252486 5.376898165221904 12.92482321257961 0.6835426878261905 -0.0336300293496195 0.08896222626302099
P 6.164719862782589 7.219069429122777 3.561700124816326 0.1828753687734141 -0.9416400504583976 -1.9397515536409624
P 4.201348160674347 1.0021655207449929 11.197030856779225 1.1443823333590677 -0.36849976104687504 -1.3596919114017876
P 0.5492406141168211 2.7605331846038803 11.99092294331731 -0.1786713579943955 0.8608842712655689 0.18348292045042594
P 7.518555146456802 2.5224393533105083 4.183292499747623 -1.2752111179488879 0.6141262449055811 -0.20534552485147214
