# total energy = -340862.2903723074 ev
CRYSTAL
PRIMVEC
9.37337666942391 0.00000000000000 0.00000000000000
0.00000000000000 9.37337666942391 0.00000000000000
0.00000000000000 0.00000000000000 13.71888423113891
PRIMCOORD
 96 1
Ni 3.1830956361183858 1.8262149916073405 12.347352347839275 -1.26157578655364 -0.9585638227969299 0.4017163570081598
Ni 5.936871870473187 3.2762763743597687 6.45848060234952 3.1696251239953153 0.6978573046766496 -2.168678979577433
Ni 5.593403226334871 3.9399583149272264 9.687933210507598 0.1027443676487779 0.2525502075617328 0.728133844173004
Ni 2.892146021893206 7.651665532689589 3.0006625418302657 -0.0021453284777769505 -0.14777595396711968 1.1190803642591696
Ni 2.7155890974877455 4.85164105746536 7.210041699270287 -0.837784709133628 0.07488106557960653 -0.6451013531308568
Ni 0.285055634926701 2.939753402390941 9.030743270675075 0.11693222911338572 1.870634901348959 -2.7045033061473163
Ni 5.660216655787098 1.4663616849153658 13.538851007702569 -0.2239978498453368 -0.6393906758993246 0.9591703460326771
Ni 3.645249976626521 0.7703790880779351 4.227213881376435 1.7811741381829644 -1.0252255857905377 -0.7628542783733249
Ni 6.798013365591792 2.032213692374956 2.223336844245169 0.530594445629512 1.4732796495229723 -3.9891084637165948
Ni 5.424129415661788 3.956539818392572 1.2874051760626875 1.9201450922639447 -1.2016282023554143 -1.1601473095028083
Ni 3.459647743660258 6.046427897891482 5.0734217126618075 -1.1003257093594856 1.3205818327742032 0.13654331847609388
Ni 5.544858508162442 5.314245320057349 4.848720313271013 1.7758437271089869 -0.3738628251310013 0.3638617480542314
Ni 1.4769442272626672 9.53038080745657 12.36071503372972 -1.4484685040165635 -0.40280316231443536 -0.4118200211010649
Ni 5.179390548799049 7.55930027822519 13.575988326373965 0.03756381718638692 -0.4016201977499277 -0.8568422399857114
Ni 7.823413914823866 5.593421973088366 10.920670978706752 -0.6908806162485005 -0.6735110146218013 1.6271653159322554
Ni 2.0144792635697355 2.9875295036701206 2.4459395445823233 -0.6772249731382788 1.007674978501284 2.7159531998554707
Ni 1.3143255140799142 3.1998083668581896 11.013232136745161 1.1574286250200647 1.856706464193325 -0.9860556004592953
Ni 7.902459600930856 0.9604524217524907 5.890299310768314 -0.6476606292176007 -0.27881839722964236 1.0371819868214653
Ni 8.168560393399884 3.216249269672331 7.020900079244379 1.8209611882729158 0.4669627277114797 -0.7809149925297777
Ni 7.634146691549548 7.659267341231361 2.2024164046836625 -1.2827465070939843 -2.826555630096087 0.38929921429072956
Ni 1.800616299711433 1.901267619220131 4.681706423731617 -1.3999196485735825 2.5662363201118965 0.6178384036498457
Ni 5.0123476017917366 8.414395945342017 5.700375013784035 -0.06583952420262855 1.3063919144270661 -0.7625200349623578
Ni 0.552805204365517 7.2832730797811465 13.378751858189393 -0.6853902825578906 -0.05465111168597685 -1.1240744750396512
Ni 3.7584897411063665 3.068131170317103 5.7754585735400905 -1.682607298950644 -0.013533001489428305 -1.063234203823827
P 0.3808149891111682 7.068482151624897 1.8166953901831429 0.19657703463022275 0.11367464140803647 0.37543351205223086
P 4.789251861837693 4.80641451466135 7.383778174612592 -0.08628647920307075 0.1011497694681484 0.84695017768298
P 2.476418016412691 7.898410302176176 5.79371791144314 -0.2522936114662365 0.32231812028449003 -0.5536230453142014
P 7.708524436036559 4.492509500782901 9.021470189059322 1.4496604674421356 -3.5336408811289077 1.7275864347644958
P 9.027658492387655 8.715515673337633 8.460065848866158 0.39442547977370135 0.536668933958366 0.07202354152615337
P 4.0420718812084475 5.389597895726042 13.991066756845916 1.4550006487081264 0.2347049518501958 -1.9596598625291155
P 2.5880268133385678 1.9305875416845757 7.979671854546142 -0.7286269817593387 1.0695917706107387 1.916594913018841
P 2.776234845040481 4.305370034030139 4.113854137674228 -0.07961652338206289 -2.0633097727112983 0.7626426765831511
Ni 8.99662324197852 1.1634516419610836 10.047230675958478 0.4170640431088236 -1.784061744143405 1.2830964342342355
Ni 1.9960043380015065 8.65893797129307 1.0832267850593287 0.5052189429792009 0.40073830936560656 0.2977959667734097
Ni 8.564997989535184 6.3654507754737635 4.378560171683312 -0.035306902831410164 -0.9235945058105965 -0.34053387196156837
Ni 3.2246384418608476 3.1398468758079807 0.6103980431117726 2.6891857019536394 1.7514197897386674 -0.7444647201225437
Ni 4.71423672773189 3.3737032522675174 12.303575866418015 -0.6720436860476554 1.2857559833442698 -0.5843179032948969
Ni 2.0048621790273695 5.722896426093921 0.7343187703947621 -0.25558076685794046 0.1765867075512249 0.4009961910126836
Ni 5.233671773540608 7.338866577267279 3.5218841532469503 0.6116140200066886 0.021340413348989052 -0.49055979830512936
Ni 5.379793343648737 5.569032446792814 11.96238682750456 -0.15101657239160443 1.0362707878611057 0.30377146763055424
Ni 7.468715965342711 6.138568191313953 13.554531729662532 -0.3645356341928045 1.5008961256886604 -1.187949162206425
Ni 8.280178563702508 6.550931154542316 8.8931983402904 2.5376921899256164 1.8971830841511326 -0.7666116885332281
Ni 7.641673513077345 3.9530716689962024 3.0353580958590833 0.368199713307953 1.3335710459450194 1.7055153138970691
Ni 5.449156331576131 3.0183772865443177 4.0358217135935845 -0.29135921000913045 0.08708506384496616 -0.7528606574957228
Ni 7.185452520050026 2.021912351330063 8.807153553766467 -0.8795785052409626 0.05096569241458965 0.2166100420216979
Ni 6.926344266634219 3.1789244834659955 12.356613244065256 0.6830958300967591 0.8348122567688656 -1.3703473342331047
Ni 0.5312726833024344 8.613102159000508 3.487985336241623 -0.1926663867219069 -1.126225202834067 0.5500998626522913
Ni 6.989183384345741 8.634351604085833 7.538965674710368 0.30522979734363564 -0.47142024926220105 -0.6696337910545822
Ni 8.991299163986255 1.4772348019418222 2.9216834066981794 0.26841262851528613 0.6736136016379367 0.713817427550332
Ni 4.975585218190218 9.31899241505946 8.33227391698668 0.08128516933373743 0.5979092688260864 1.7113699729056333
Ni 1.959260701153481 7.512639608778897 7.937732554967285 -0.5363709431019731 -0.4475753243238033 0.5955831917960711
Ni 4.78005657924894 7.083442060913021 7.5151085562140425 -0.9367086745950512 -1.808605752031356 0.7028293039699444
Ni 4.70175138990496 8.938742640566133 1.7110874290506604 0.056828578953269863 0.5101212653768247 0.15274589637788533
Ni 2.9666175001476858 0.10497432086438908 7.28891210323211 1.381315403208834 -1.2055007979369432 -1.5975284669024292
Ni 7.249969472199251 8.934009085308926 9.979898898772147 -0.041294744983728884 0.9233697913943001 0.15265873598071775
Ni 8.879615380046403 7.999089741815114 6.17193366318238 0.43755727796616894 -0.0806346802339321 1.0960188544540157
P 4.61104522312477 1.6838240254444954 2.2514607238367037 -0.09095328855112078 1.1031071287593648 -0.09773560158027683
P 6.893706168801356 7.545896349477058 11.67354997239814 -0.7274645860201213 -0.7213818701611512 0.769770545877184
P 6.912509162555728 0.04115099859443898 1.2917656709253662 -1.4096844412698304 1.00693938588684 -0.8881338510101415
P 0.938481226657651 3.844631073410793 0.7789079235799806 -1.2001135654831008 0.3352147737415001 0.14067713813880933
P 0.6294428699862159 6.035517287358038 10.845161867646386 -0.024154742869332592 -0.985333120470974 1.079498488201489
P 1.2999373807733532 3.1129640312977416 6.70053587144961 -1.4571104959622776 0.7586741788537062 -0.3577350663312032
P 3.3957963012600674 9.254972251877824 13.201791878583816 1.9161066605285129 -0.7155876320768773 0.7543819792362555
P 6.155018467504843 1.660793638777251 10.74999397353465 0.1466302703984507 0.6893268986081355 0.044089791230362774
Ni 6.125923506082325 6.960332130718643 9.530152097063944 -1.7767320432512113 -0.5448571261961133 0.7383151555813802
Ni 0.9306685171390722 0.4508003692545602 6.157323380846916 0.042883686737403566 -0.39052820160182417 0.4926794157512935
Ni 8.256866975732855 2.0689854493532223 13.743715529883803 0.5453602910847769 -1.1976964714011762 0.8030943568402943
Ni 3.937605597363743 5.094936424309071 2.4478601494777728 -0.9878078072637116 1.6180273581867295 1.726741056045065
Ni 3.47811329585174 7.66641922768928 11.550861844157373 -0.5772234583419608 -0.7892332825874859 3.0346758894792187
Ni 0.28095290792456307 8.087743139087722 10.771354961803265 -0.10563763003617291 0.3579358694880997 -0.981188245064665
Ni 6.92818144847662 5.343030960047218 7.398690279679308 -1.6422330088986556 1.1609047564941233 -2.5293808418464434
Ni 0.08033921209806763 4.724556815530278 12.750413171983967 -0.05974318149690356 0.38332782719864306 -0.7394191872788362
Ni 2.4842166658661493 5.4484064614363765 11.95047888968524 0.13209042491106285 -0.059273698059652755 0.5219128586951141
Ni 7.889627448164287 4.243102692300182 0.8620029084416501 0.6609105522489713 -1.001837031663268 -0.34842870132861287
Ni 1.1889659734662688 5.443288597732543 8.834893124911378 -0.4299347284239047 -0.4589465422752225 1.323024894998057
Ni 4.646101652158346 2.5202479260814066 7.96522560630375 -1.373291504463093 -1.451102856315617 1.7929127667761318
Ni 8.958154903809056 9.205059020700341 1.1974441927338804 1.8104075811267852 0.3082328458360175 -1.2552796691322834
Ni 8.274845112333496 9.118983302033142 12.434289479829516 -0.4740625719810545 0.5811716443564313 0.38028518371757736
Ni 0.4283633173353973 6.028056079467469 6.7058458893767545 -0.015906901038243573 -1.3654529822552806 -0.8204367047734838
Ni 1.3076235497058482 5.5230935273560355 3.217284090465194 -0.5879110199627939 0.7070099177101954 -0.4165523935797278
Ni 0.08269474167457497 4.058559650906324 4.820623616472044 0.9405658435576124 0.06267243932855658 0.6915473032982219
Ni 3.9652195652602438 1.7302691072256091 10.22151549384048 0.3489804600670248 0.6650153184459643 -0.895902953432599
Ni 1.9342619053693784 0.41692123634040124 9.536463191627663 0.19205446416952085 -0.5891217524414435 0.02124399698044083
Ni 7.60078684370717 8.488220660600957 4.397958374861115 -0.8199335398848203 -0.4007776472439743 -0.08752240849270088
Ni 3.6071753202804295 5.644075701028858 9.491492542008842 0.691431603655964 0.5904780093590218 -0.45561722079167344
Ni 6.240288075771803 0.7567567596515996 3.752307061804081 -1.7579380504731594 -1.9581434258845891 2.881151463064096
Ni 1.4662023375106679 1.824396556518433 0.5431225061859225 -1.9334004146119543 -2.7270557375265354 -0.8790560570785892
Ni 5.274511576027048 9.20834907593852 11.63973270377051 0.3198696587439975 0.5628612760830176 0.013034978807087228
P 3.1775372237074477 3.906785934619787 10.596068129947016 2.8616190494581235 -0.7743869616032728 0.018987596846096334
P 7.981083485084231 2.5480399881360993 4.599228207059896 -0.5828089228495381 0.46837323490576116 -0.20742169065421054
P 1.7765267214717837 0.8319396772011727 2.8382453562475716 0.3811565305789371 -0.5799010051741239 -1.2069555281055988
P 0.1988196315171301 2.0041123088876143 12.016205944772494 -2.517578192784561 -2.8954408831035745 2.6208414090512866
P 6.747294024014072 6.950058909803991 5.877293750531927 0.6604048162571464 1.0504205969989264 -0.6486458759490055
P 3.480606614066428 7.841804480001373 9.621369112876842 0.4997532918789393 1.4574966756571026 -4.128386921735665
P 5.521781254611463 1.193315220276851 6.10775696460907 -0.467773139427917 -0.9584671493180654 0.05986119513200659
P 6.244543588814917 5.541071663956676 2.680038691499606 0.12764910131025758 0.7863384775381941 -0.21106571516470102
