# total energy = -340858.6526116525 ev
CRYSTAL
PRIMVEC
9.37780347725370 0.00000000000000 0.00000000000000

0.00000000000000 9.37780347725370 0.00000000000000

0.00000000000000 0.00000000000000 13.72536331186466

PRIMCOORD
 96 1
Ni 2.525686255425308 9.32979833912725 10.193429317530777 2.4424521010736835 -2.059031714161234 -1.265932520860439
Ni 5.761394133185691 7.812029006118852 12.212608224806804 0.48227416125756944 0.904086774794972 0.7066489348263507
Ni 1.379746823828632 8.183577573431146 3.274418512061453 -0.04580703103178563 -0.9013763178423444 1.6337275425308058
Ni 7.633972654590368 7.1280776769975125 10.920420074963067 -2.2265411420015395 -1.0668201214028723 0.16627992630857813
Ni 4.652675202943444 3.7089587220161846 0.8249062773974855 0.5673167407512101 0.09194290615789973 0.38105805732785986
Ni 1.0045034020105073 3.365196585924142 11.975365743220822 0.4115906786990783 0.42538284738716414 -0.012155404415611323
Ni 4.749332221703863 8.13323752524002 9.791961806524561 1.1073422498866348 -0.2934394895769269 -0.09976831573958948
Ni 0.22391474751570814 8.606525880709079 8.520664589124074 1.1294501375292678 -0.34273525048826137 -1.3817987706031556
Ni -0.1380328247634118 5.720338110275715 11.170880570320541 1.0658541579451772 -2.0079752618050515 -1.5927670409580441
Ni 4.303933453291512 1.8682084650602175 12.0692197365706 -0.7043547394755353 -0.8237894232958006 -0.12034536855999274
Ni 6.809841921526974 8.22118256472146 0.7319572420675378 0.2601673577873584 -0.893839643145667 -0.317759297269214
Ni 3.6289097929253784 1.042830484156023 0.43411914658591977 -0.8060727227423279 -0.9194110638568681 1.8284613533047027
Ni 0.6652632426766165 0.9035260292631931 10.244514901085388 0.47167581691643284 4.066304550582623 -0.09974620425240241
Ni 4.706953928526572 8.627419626493325 1.5865967826533207 -0.7251788753097381 -0.682121896219264 0.21664809434848495
Ni 7.929936127189459 2.495789818459341 4.626215730892166 -1.487489108254135 -1.8591852647511204 -2.191699608842322
Ni 2.85055211783905 4.263796455106337 2.339268654461801 -0.26376150289651995 -0.9918123004374145 -1.5560812555012362
Ni 4.445866506453338 1.1860482963719077 9.464282603116533 -1.6548314143889562 0.42673859008411025 -0.9763440295984863
Ni 4.695269185596963 8.033138852663255 4.130716986053534 -1.9206785961699115 -0.8423882693439104 0.7181307102137051
Ni 2.4265628743932295 0.798577156812276 5.209900524757415 -0.5157936331712536 1.2543630708552849 -2.0536161995726183
Ni 6.404514506676598 2.704389675382478 13.220694885463702 -0.9321701632947494 -0.7758748590027089 1.140307906179378
Ni 8.52828686765793 7.959813808548797 5.353550653706088 -0.859774840251474 1.7900040777697688 1.3109713062676325
Ni 7.497263037874603 0.9747663877008836 0.929622580326208 -0.5925428623078505 1.3444426985522007 0.798833010460779
Ni 1.2622804595137964 0.8071400290185571 2.272700317635291 0.9517557987361608 0.9383837483046291 -1.7637808824071814
Ni 3.12781625062944 6.489589938343864 3.0651894045359276 0.5726489515974009 0.36158477909459663 -0.04046376444200128
P 6.93925560726422 4.911268129335076 10.698563755274844 -0.8978801317636278 2.2889934948994903 0.8920838367968249
P 5.566532758117993 0.6895198687293671 13.449867767297736 1.010364095297673 -1.9794144194482235 -0.2399209488334965
P 9.157528092243686 4.539503872546555 7.566298674753103 -1.1742773211462874 0.2615254144771496 -0.2564482570645583
P 8.318017761744851 8.552734800898294 3.2885283549281388 0.6836074796258549 -1.7513416282025647 -1.5517049808104113
P 6.1299418034374105 8.670482499312557 5.530538873437075 1.2378488752503454 0.32433515071451885 1.84536352837668
P 1.9659157977918373 5.172364929211625 10.632476499758358 -0.803279733378223 -1.2069390730453664 0.550902818169561
P 7.980913866005956 1.697476177920197 9.996703635164199 -0.9754870809148296 2.4989202113637417 0.008264811111953508
P 2.6718205644719375 2.911160860659326 0.20018140288789513 -0.8578745379049677 0.5084256228419567 0.3465019166195452
Ni 2.111796906148981 7.932364978247861 0.7595298593722224 0.9737713837753035 1.4165816826102957 0.7766145653822109
Ni 9.389525568435982 7.236813306426741 1.539327027267295 -1.7085381598837932 0.9933256517581471 -0.09958345342229301
Ni 5.0475276114917556 5.7032517526370725 5.119423478381115 0.41304335198520475 -0.3291719099815299 -0.09020766863434787
Ni 5.587614059968525 5.521800636308815 8.827810154395127 0.1946854740344647 0.419917967617851 0.6930215738509032
Ni 6.296135233773312 2.0499315376845897 8.395296487736616 0.6456644247231783 -0.04859564952051631 0.15713554080514874
Ni 0.42166917490586425 3.090661393898211 3.2293994294708575 0.39968184307663424 -0.9916590626890018 -0.1832216963692393
Ni 9.227524016181569 4.029191949592666 5.335844423268371 0.4524038560606983 1.2666853398660636 1.8885814585250509
Ni 4.787987526965379 7.3924567080340635 6.780713526652449 0.7742828319252406 -0.6528763690905853 0.6223702300819282
Ni 7.938113571679523 3.521918434912608 11.982694496510943 0.7928860488487248 0.9242506513373566 -1.4501883149211476
Ni 6.945426201845025 3.6191474996751998 6.181272147658524 0.9024003882314845 2.226226181864282 0.839500149162838
Ni 5.5202720543685855 3.2679675211615504 10.830066815590513 0.7312513067560631 0.45073752410186885 -0.9461001431122803
Ni 2.8587201845257995 6.731537263852627 9.491610459754714 -0.15939116960854485 0.5198341217892144 0.05142694832172434
Ni 1.6089590924365842 3.5910422231422627 7.237466001537416 0.34605583022106207 0.6262299701476506 -0.8462379821073038
Ni 1.2321214440550297 6.932494211074615 12.573146313247788 1.7741144031227059 -0.9957574011280916 -0.015267210571715643
Ni 3.3510829919361305 8.465183629156053 12.189659802316399 0.12307382323474933 0.03841793765656609 0.7022315224849455
Ni 9.061799476011382 6.051430834090148 4.1659775265152765 -1.41339094358714 0.2631835189058629 -2.7346065532906003
Ni 8.825872700230395 1.4359948881077622 12.208669547414802 -1.5491585602394742 0.24327366735581327 -0.7571487433481153
Ni 6.235779691642522 0.5189535687080096 10.604503450252151 -0.25245353408286847 0.49265241916809993 1.4075211150699243
Ni 1.7374631312523428 1.191309244031226 12.69258482959962 0.8780972927097457 -0.6012578735833451 -0.3262292824134382
Ni 0.5480200700806611 6.262375141841857 6.206087690788807 -0.6582697721920148 -0.671118860240541 2.619473582169482
Ni 5.609004829328427 1.9123966742771665 5.609939796318862 0.5948743386545045 0.34266145982753243 -1.1505010446622959
Ni 5.241704406917509 3.824361969601876 3.5853808432814245 0.14007755688159745 -0.1334399969604218 -0.35303868929679844
Ni 6.343164917394492 7.06601537466352 2.888489083366691 1.2152923301060683 -1.0390231537952621 -0.32418705517242874
Ni 9.290027075271333 4.860281012715265 13.323168955619979 0.2081259158100867 1.2357819654189879 1.1721978129094393
P 7.127439986372139 4.915985164402166 4.261409804162849 -0.4770275681466495 0.051294022288285855 0.6309762265833843
P 5.446721942974585 3.7692111083105178 7.523626856332075 -3.1370798430694427 0.58864712679787 0.8168906392934383
P 6.813977532788578 7.515699799190504 8.924917307714633 -0.0329204048771046 -0.2991393681751816 -0.4230513710405101
P 9.105762617948788 0.9500277425577783 6.486359285102091 -0.7126763719673532 -1.496325218488526 -2.010199266039564
P 2.8752344961622693 3.043284731554402 5.002949285656931 0.253858384850195 -0.4759659596513546 0.3162333475429909
P 7.797465277571755 6.639409724093011 13.284504272555147 -0.06392276679588992 -0.7072320610233304 0.15199770535795112
P 0.06750986827926471 0.6759501873335849 0.30029976885161985 1.7781433217764409 -1.6294962780582776 1.5624704468570316
P 6.907568009865224 2.9468152688602687 1.8172382284863715 -0.32543069777154277 0.12932263235793856 -0.025307111306220934
Ni 7.4766224927798435 6.073337382632337 7.065226701404788 -0.024300781528893634 0.3586915167072016 0.26535558685651717
Ni 6.411388436505974 0.19955402784616894 3.602550663369563 2.061635213222353 -0.8234772913720205 0.9248841711562975
Ni 4.332291930513934 0.28463133507409893 6.343080517164664 -0.4909650041633481 -1.7581879617004366 1.0799006087359144
Ni 5.905596614749576 5.173274576133112 12.862188967000929 -0.1684224265728777 0.43374150376450465 -1.0556553630353045
Ni 0.4079185019061162 6.265994973921174 8.675486495161064 0.22643962651761004 -0.29603707510077404 0.9508296873774658
Ni 1.5137556331898805 1.1419632429914157 7.5242167201605445 0.7017152449701592 -0.389082213183917 1.1974802416253119
Ni -0.04613597896532784 0.8130536717885503 4.134793517154257 0.5349185269261627 -0.39689708124264544 1.5347557545505828
Ni 1.7739896751615145 4.813860886309514 4.234205734528416 -0.21754103847639952 -0.974543743164954 0.4440639687364352
Ni 3.9171928446100632 6.493266037243068 13.535101683841015 -0.6437656650385688 -0.10510052658578029 0.3152185331252313
Ni 7.360740977225125 4.933146544467322 1.1258540524581229 -1.8080305962541765 0.30119367960104904 -0.4804589624257016
Ni 8.820921220080448 8.411458193968468 12.583673835248412 -0.3503063779672999 0.6017098735190992 1.2915404512365305
Ni 3.5093428006681413 5.466265285081572 7.595464580840886 -0.39600696532820834 -0.314562130488155 -1.8382161186986214
Ni 0.5131402684334793 2.7441328058284515 0.8097114226873362 0.19149936299699924 0.30140116762616476 -0.3282432275196734
Ni 8.86863548334357 2.3036667619594184 8.08754699193212 0.2709132834499528 -1.0209177024438032 -1.6275198710581968
Ni 3.467883532215651 2.2638392312836153 7.04152336574758 1.9552529917106714 1.6738359805159173 -0.20583634844496163
Ni 5.269021947972045 1.5900253075450266 2.4769610649649034 -0.8837295512948585 2.0758223033560124 -1.91052556689631
Ni 8.314885575437877 9.10703799919953 10.314624296443377 -1.9381489850405331 -2.9382304674652753 -0.2215966966030119
Ni 1.264156020176655 3.2031106334398998 9.623332022887608 -0.651988052948361 1.3670915462999682 -1.1749890025013314
Ni 8.152968423413292 3.8459871840446356 9.433044202496292 -0.11972521847749057 1.3797141201599852 0.6059691630160855
Ni 1.9005712642978432 8.34960220330739 6.641497223110774 -0.7256704702341761 -1.3539395822990423 -1.034611654991128
Ni 3.645564771611563 3.76108993064034 9.200563769433307 0.3453667745738374 -0.5777207096933533 -0.08360558993679794
Ni 7.38639864709303 -0.10811575663015391 7.750534060885374 -0.08939340026316864 0.04948576543495348 -0.8759979869785559
Ni 3.2987923606556326 4.1471553374831585 12.267523703234973 0.8297839503163387 0.9678118237577589 -0.592245899892722
Ni 9.379960209055403 4.99819098825526 1.9205075363636988 2.3377740067373027 -0.9568172724194682 1.4669822465500348
P 0.824036017249919 8.072619404616429 10.78762756669168 0.11544304616236892 -0.5952844296087296 -0.5375137984571646
P 3.36794428229523 8.454061554425301 8.069278093295546 0.6404101183027745 1.0129326273557973 1.3428663552040163
P 3.745944778287757 0.36893403574826833 3.287252035897063 -2.0043356081699355 0.11641903692239305 0.0762262667535913
P 2.7706532336012724 2.117423588137557 10.515220198237762 0.44823584072593775 -0.44372355467788094 0.6105673239097292
P 4.4067141776161645 6.4363521489286235 11.268207164237602 -0.7302634889214972 0.050697012134235275 0.3907359467372561
P 1.8770798669955389 5.766289346515751 0.8459444413527706 -0.4934697728630727 0.4265439575748009 0.33500471461322306
P 2.30218506903576 6.500036811235987 5.282631016141747 3.176308706663078 1.8039916502981126 -0.7124022923703601
P 5.17318079809997 5.828361026653058 1.4876093797692997 -0.15171179868641615 -0.22246547236121042 0.1496186636028133
