# total energy = -381165.8961662525 ev
CRYSTAL
PRIMVEC
9.23784049999740 0.00000000000000 0.00000000000000
0.00000000000000 9.23784049999740 0.00000000000000
0.00000000000000 0.00000000000000 13.52051334697263
PRIMCOORD
 96 1
Ni 3.7386927010367796 4.739779022586398 6.597537425724087 2.132961214460849 0.27645452498315615 -1.3082806468093469
Ni 6.117769244911378 3.9462485060029766 7.704056147027119 0.23072257016368006 -0.5866028426743317 -1.0100969576792151
Ni 5.611452433695771 0.8633187079755181 0.7434900572669985 -1.6449617206837284 0.7749783153303684 0.20886562218958868
Ni 0.7010338651696091 5.829594804110216 9.599294317474262 -1.2774538912364775 1.1794305832124525 -0.014600009301361952
Ni 6.2187018924572515 1.1604205980342615 8.65745488728795 -0.9125220500465188 0.7204544732508753 -1.78508015810559
Ni 5.297282709149954 4.072261891063681 5.197420727341823 -0.30157934507524187 -1.3461414264108624 -0.5954777765664584
Ni 8.372301220397413 5.482335134158093 2.876570293432595 -2.2851134431187936 -1.4737046528755329 1.1029366646197714
Ni 8.746738617704464 4.295466598184619 0.7741633835448051 0.21117113039431373 -0.19277283039278412 0.041840333074553746
Ni 7.594613600623543 6.6032824388587 7.692334250956191 0.860112168986235 -1.6370872030316581 -0.16546874326119246
Ni 5.238197479998993 4.559206950320319 0.5677179670313827 -1.576537209362743 -0.8331032444975587 -0.8381516055547437
Ni 7.175769903046217 5.6912673773893765 10.809312882255165 0.5221463148621588 -0.507594385189913 -2.970092092060562
Ni 0.828778421578482 8.612651359867348 9.358182979930213 -0.6474662538186075 -0.003526010875387476 -0.45892803033246127
Ni 0.4171079073088044 3.6429609578079787 3.890703217410278 -0.3520575563304517 1.135379358529509 1.0773174213897703
Ni 6.2445124193877986 1.7892496526832729 6.202684400458368 0.8117286354765245 -0.028435886743189736 -0.2413545959562295
Ni 6.482987277194563 6.209076062442351 5.813387936376876 2.3006159096297667 -1.705671122748643 -0.6053551835811704
Ni 7.4850897612217615 3.521160028108882 5.194270623661324 1.3132575311986479 0.21799920905974068 -0.7864904297350261
Ni 7.054199919364752 3.1200160333228695 12.598441519225197 -0.15866791828927512 0.6564057224000824 0.2340446925583776
Ni 5.15880747697783 8.38232427756264 9.32361128487478 1.1903171482179693 -0.029801656742464804 -0.21388390133978646
Ni 5.18269653304168 6.8294432550053275 7.5610636107501135 0.5009136307356277 -0.28551740651637275 -0.4324664937068229
Ni 2.075631952387611 0.7861975186315714 0.8482758081710426 1.7520000877221698 -0.6844628856476147 -0.4207610323444367
Ni 4.73672129731295 1.1258525981151093 10.295276007562155 -1.0636188408567553 1.1371709032122932 1.3714351679806447
Ni 8.341751681185055 -0.008186574433017789 2.248028535629518 2.5918553062315812 -0.1363358304509781 -1.104267210505737
Ni 4.623954975823617 6.753886955876854 10.839220391538502 -0.21003136036291567 0.79565975493912 1.622395405347438
Ni 7.575657551496312 8.436873726927308 8.685794735003602 0.06547571310530659 1.077128445307416 1.561647179624788
P 4.688970898707367 1.613841533371445 4.805122888815186 -0.5089434430186396 0.12142394633615218 -1.8944518012628984
Ni 6.582423394546181 8.78239668282684 5.005497196417099 -1.1496438388683232 0.17296633718981824 1.8532398458009633
P 3.2313874408657073 4.163762703249463 2.164904597395281 -0.30158423017124836 0.9991849387524018 0.052234788935000366
Ni 1.8589306851231884 9.097702661779405 5.938601324432502 -0.4605254567265682 0.676401448795719 0.14282863726417339
P 0.4538431046574148 9.125369994691713 13.41766339459407 0.2775205043538253 -1.249248118226223 -0.7542909621843461
P 5.683960245391501 1.598645285411262 12.287848686600467 -1.4824587449190791 -0.3781840782141745 -1.2460959457504863
P 1.7183215117481447 5.42835843091715 6.113421917075475 0.47145238805171713 -0.044509909486916896 -0.08116664147800215
Ni 4.779797348521664 8.665113057232624 12.138879267387145 0.04425614160489798 1.177311994207553 1.2590967288855284
Ni 0.3475312624688585 1.6145805606278674 5.267889747593899 -0.7336745714855751 0.9184476715023343 -0.3438955893449497
Ni 2.3223931533070097 6.641360818245857 11.972536241159409 0.1151424842028146 0.2648663059249245 -1.0878607441232555
Ni 0.18338868989711785 6.010601054889443 4.838707982483296 -0.693334991326264 0.905018542580622 0.06633394734054382
Ni 5.207112146025731 5.258409875462142 9.317675048437568 -0.9301585321813594 0.7228417425361293 -1.4946997670699613
Ni 1.5426085436930428 1.3450850337327784 10.740114988884134 0.4037411007476724 0.6705599024132775 -1.0665961783175242
Ni 1.6436058561238522 4.265508280777401 11.085360809562507 -0.41591398866478047 -1.4745955401209185 0.29428152586224804
Ni 0.2686096179714529 6.116263476876418 12.828858208584748 -0.21248085034467276 -0.5508760786966835 -0.5105814928426949
Ni 7.642077626167265 8.935818741260105 13.449382444439713 -1.026629922337232 0.2843164442297361 -1.0931968116241884
Ni 8.976751613425193 1.77604877831543 0.719889221833153 1.1962036889057335 -0.20631663051548987 0.545314525448506
Ni 2.7489781613953594 4.411512353124327 4.279242178553939 0.408914931639128 -0.231534267431698 0.09630966776702768
Ni 4.070201852586403 6.798708958978866 13.502085249447399 0.649788731304197 -1.7743499161722798 -0.9954853784136275
Ni 8.957647758846678 4.560814334603038 6.8139329204611645 0.44898814551092997 0.7331089287900923 -0.05473235854587348
Ni 1.5507840327172142 2.6932277927390036 13.017496763354675 -1.761155528969193 0.18170500261439673 -0.8208164567104057
Ni 2.80239135635328 8.505400029279064 10.716697062696253 0.24889949818302295 0.8301580458263057 0.13457102524107148
Ni 6.122979387069155 7.931314418649533 1.3394342465733593 -2.195522582132838 -0.8278947037134259 -1.2215287979340834
Ni 3.7175934728659237 8.981389009459244 4.357783224014287 -0.4840721336982566 0.3830082390756952 -0.4452253360343881
Ni 2.09500370434658 4.846531509776596 13.428370975755557 1.3318327230976739 0.29038913278637735 1.7701353638702997
Ni 8.862590377989362 1.3372975340182285 11.93713960692899 -0.3215041090236269 0.34555883597998555 -0.5761531080959175
Ni 8.161853971290464 2.401524496788425 7.407362569527549 0.699227702661615 -0.18686057867340722 -0.4269633045004066
Ni 5.77844488012509 3.487857612366353 10.347397752389478 0.07244777354776555 -2.3328187196145564 0.7245492121455392
Ni 3.2949622605994335 1.4678374610245188 12.263890346731326 1.403827211158105 -0.777284594866042 -0.7260764474233431
Ni 3.215054938498774 7.270125208009931 6.326491789158652 -0.5490223133173964 -0.5369671819250752 0.9404285466487998
Ni 8.080099081048749 3.4282827776580125 10.278524107227204 0.715219192993865 -0.861268394077865 1.524299592214265
Ni 4.140196971610298 4.078589811946796 12.009894068971553 -0.5275474312730721 -0.06561583822759667 -0.5457675538255246
P 4.522588149764596 2.0132118627420446 7.419219338072773 -1.3691800533978808 0.6125758696993258 1.8642631934946603
Ni 0.8686286188129122 7.126947914918821 7.3243864367445966 -0.21619609441273088 -0.04641972491512005 -0.1874575888274578
P 6.477047345621068 7.475316125755577 11.674139205833784 0.32450612907474435 -0.47596364565850935 1.0541060162703135
Ni 3.484735222207969 6.569601271647254 2.3383321236598973 1.7525808999263044 -0.74096236339624 -1.2109980736060886
P 3.7916347661187304 8.464799719379366 1.1166914314876848 0.6484193617604962 1.8288115375552696 0.6767043247481184
P 7.932958754295073 4.769090691144247 8.7785990065129 0.28340215994558293 0.9568057024552427 -1.1699910350661076
P 0.8114094334844173 0.9736037454514148 7.61606479052527 0.9042140444014556 1.0065964007251242 0.9124593151293835
Ni 8.560402132838293 7.740081878209564 11.41384179692894 1.6652613514730288 0.13399586946389183 -0.4974665527272916
Ni 8.768244310866352 8.691413189720553 4.48218552965599 1.356951886762805 -0.6910374535413389 -0.9569049470372681
Ni 2.454521988914608 2.753052049146387 6.776251768224333 -0.44404699945557075 -0.6487685175697989 1.011420047366013
Ni 1.1010028066179103 5.611535574262117 2.010216031001322 2.565227419231408 -1.0420012625869797 0.7200636655703598
Ni 3.245632191233246 7.490965027910319 8.581375726375557 -1.8013004766191947 -0.9203348612227182 0.8577840350736905
Ni 6.968518946823295 0.19871057249089272 11.061929950397639 -1.2210994237061488 1.1263866681125958 -0.7514434654332219
Ni 4.804434669682642 9.130395380035386 6.577121797765421 -0.7528866256376519 -0.014768416558426178 0.8993117220038318
Ni 6.473435349905305 0.5685983332505957 2.9709163605556044 -2.721727383335087 2.3627139645120923 1.0778154440721115
Ni 1.7688709760874286 7.5533851175558855 0.9576093480542957 -0.8413487723358025 0.833435688136313 -0.9569257729728745
Ni 2.6139301681248934 6.687032702692754 4.264329532303408 -2.3538462297088167 1.0092122410814168 0.9091734452892599
Ni 4.859362870516229 7.03139169066342 4.799430531372592 -0.7135747154119065 0.4881491319811077 -1.193011921441313
Ni 8.422749068488939 7.018190816295577 1.2213201390997395 0.5896773678345973 0.6013684310192804 -0.7252228411737962
Ni 6.972195607423996 7.463685684307632 3.2265625166653398 1.0932510619008915 -0.5777942432437662 1.7461197176819927
Ni 5.4084970734008015 3.3701028568961684 2.5174381506060484 -1.218406707365334 0.016471515292461957 1.7158241520222453
Ni 0.8026316372462617 3.4203289968107677 8.828286580314382 0.13186648182571484 -0.9885487991947943 -0.0040710847455800855
Ni 8.540439159074186 -0.02635740710030056 6.581894066273768 -1.4605316058286846 -0.8902339280722796 1.757637488513605
Ni 7.152287311973399 2.6782624907964525 1.4147457429231423 -0.9294918451316379 -0.20341205527418518 0.8651222206063166
Ni 2.4928590278415137 2.138726404404663 4.458903399726476 0.962081349031885 -0.9731064964977949 0.5538238484710979
Ni 3.9233571367352966 1.6036706707549335 2.605889551575019 -0.11044944960251946 -1.4867064644518395 0.35081005707659585
Ni 3.439118764805304 3.0224182462716027 9.500932560996668 -0.24625511858164037 0.5438091445475731 -0.47111943019233055
Ni 1.5028581151382294 0.2757005844968246 3.059056446292807 0.431316953483412 -0.7330891312957504 1.234534723275448
Ni 2.8209778918522996 0.5891987180233668 8.70049121578163 0.26804290388069324 1.1181028308372487 -1.102441727261224
Ni 5.989252405019544 5.44144845119653 3.546863396087249 -0.13546808313404413 -0.6456500265454751 -0.5307875354769246
Ni 2.4105591049981876 5.097403549809844 8.155749606152416 -1.100682578478272 0.35801994456147374 2.640527574626304
Ni 8.198454296164776 1.3289742395427726 9.461939635379688 3.3807566594009453 -0.588458922046464 0.5276466758550977
P 8.240634276825078 2.1509573054984514 3.304454141924107 -0.15427801675169558 -0.467525285083169 -0.04865375645196137
Ni 7.095945721511906 5.5829075059164595 12.94655476565849 -0.0010073582185918136 0.7831762777601285 1.048862508483187
P 6.625139169967388 5.682399050312308 1.4845791997346949 0.9795267982018421 1.0487871751605615 1.7497390596021352
Ni 3.5004395514069424 2.7983821334871886 0.6278295202847003 1.3164444135670619 0.18214157593118308 -0.09129010306524923
P 0.7957383605119829 7.485015858496119 3.176901732601904 -0.24480990149468157 -0.6562607121817858 -0.3958336729751376
P 9.017952382970735 3.854877023587067 12.1887432839461 0.8745401714861067 0.3945342374374237 0.11991727988363864
P 3.1937524778324025 5.404968218251385 10.281634488192669 -0.6480342105069355 -0.7760692344017022 -1.0813921056797764
Ni 1.4577866903371757 2.4619584506823573 2.315631053910746 0.36999717152800793 1.4627710366821647 -1.2064202244274191
