# total energy = -340864.7913183526 ev
CRYSTAL
PRIMVEC
9.28959696759132 0.00000000000000 0.00000000000000
0.00000000000000 9.28959696759132 0.00000000000000
0.00000000000000 0.00000000000000 13.59626416891951
PRIMCOORD
 96 1
Ni 4.346881069060471 2.742214682833113 10.18456686432358 0.8920005330543994 -0.7563653282148715 -0.08555808567747845
Ni 6.395488000688489 6.702026118605393 8.368187778273152 -1.1842151490852895 0.10867667397281283 -0.6645586905245201
Ni 3.714408154936749 0.5931695586750692 2.448591891461449 -1.901270366846629 -0.034660784606979016 2.068618586518721
Ni 5.7899456279260955 0.347604638853788 1.4972749304310493 -0.374494030957097 -0.635330646897338 -1.8184939576793455
Ni 6.343587022907964 4.809958184038342 0.9983752719562637 0.8173210419626376 -0.727843566626095 0.8563105358519574
Ni 5.326496929072938 0.30385714025671906 7.618884248961177 -0.644334135947529 0.920872478893743 -0.24697502746680045
Ni 4.543439649489702 6.469312427110867 2.951789846413601 -0.5969664452968428 -1.327991494974713 -0.6288537809237429
Ni 9.09679129885265 3.596560328889902 8.573803715662471 0.9090834566786151 0.19590777647734 -0.23698757723678537
Ni 0.40577237869100524 1.0544156941074705 11.792393571410242 0.34868221210031564 1.1608574481959557 -0.818443585602855
Ni 1.3355281853579546 5.225992780405049 2.329868985388304 -0.42124414262844223 0.6398046235082917 0.43974220143262976
Ni 8.527933544177833 2.95766830332062 5.932933890015081 -0.31556228961789523 0.018239662936478267 -0.6157529818757267
Ni 6.819855365458476 5.391551976038574 6.230474104391944 -1.34882797210409 -0.36936493726064773 0.13524234027648321
Ni 2.47377320172987 6.816678323324784 1.061193383992681 -0.6831045718475074 0.7946225719238573 -0.6222547875499863
Ni 0.9190068141146234 3.4260126197306664 3.8295777902024746 0.2760035534886666 0.12947972676109312 2.2635210616599983
Ni 3.2181114415083396 5.94743216386904 5.701865386128382 -3.177000076303148 2.587646410356556 0.042088187419301704
Ni 6.69164034929116 5.949921775833454 3.950408505808177 0.0637481888912386 -0.08206318515034255 -0.9195031093500423
Ni 3.2058305944301484 3.256496055825348 5.895272006335503 0.778858367111065 -0.5272124165311566 -1.6879541650848542
Ni 5.587302361539061 6.083162463914009 12.778367231528847 -2.597112697975779 1.7264070697444138 0.7091164225302368
Ni 7.625439917480905 5.1869950526938196 9.926971916539925 0.4576897870499859 -0.10721294494309278 1.5642108265869061
Ni 9.583798415398919 1.4981983163611343 2.9366431586972697 0.9469030986295499 -1.806591806925121 0.6160453163051648
Ni 6.45991135506614 4.127330736347939 8.33135545559515 1.2588846128747222 -0.5864519189187641 0.10120376263453539
Ni 1.168092491154236 4.469670960648617 6.256252735739888 -1.068460999440405 -1.4865097750600011 2.81861117843803
Ni 1.5233359655242091 0.9223594296293882 5.3270979659912125 -1.4040904921218207 0.5047409749015178 -2.0590471407802022
Ni 3.5604237970183714 7.176408672988831 11.537830748048918 -0.08677164636960538 -0.5673352526939713 -0.20989714877789656
P 8.476153331156777 5.440684653948221 1.8760396641066046 -0.9523700352813921 -0.07504793017477397 -0.7225527505408007
P 7.45936050442198 0.5699065501628104 12.375116049431655 -0.580091009697743 1.602496352430666 -0.16276779939026162
P 2.9282760187855246 8.355165621363765 5.501320639677023 1.1404675716856938 -0.004838816149540053 0.6415185208756048
P 1.6530930547739615 7.818840034970209 8.958510075503845 -0.21592330036731847 -0.09484105364130117 0.3131493093010284
P 5.032369712590574 2.681507167208318 8.02995355579438 -0.17312008915886315 -1.4619603678554114 0.2931353280729468
P 8.5183281010017 5.636908808889696 7.670563205376219 -0.46832412683538055 -1.1108507772605256 1.2606473612020999
P 3.469283562007681 5.250350103430024 12.69969920929212 -0.36760141760232173 0.35904067251650423 -1.2107173091408763
P 1.2155623312219792 8.45742550384238 1.8015454577490237 -0.014675856844619887 -0.4051636921268119 0.6783847977743349
Ni 1.877186000361861 2.2762763720155417 10.210019430820958 -0.9378116778512429 0.4963159840626163 -0.07091411051205852
Ni 3.7282682334849038 4.856796331518099 1.1293093531309837 2.6007518373902627 -0.6843039914722473 0.9710483284171857
Ni 4.518329869117274 7.753478431307461 0.5895893480366919 0.8624930105135855 -0.21557157345485456 0.7573315487828828
Ni 2.4355743793505042 7.578657507582441 3.4580877398453245 -0.268062444264719 -0.07277687475241015 0.27847052697192043
Ni 0.22285278440413345 0.02011383516921277 9.533197052222206 0.516737999362394 2.0784440572495755 -0.6369787240237224
Ni 0.6561632440925589 5.733687829207846 9.753756235156139 1.7123901866400315 -0.36490638726866187 -0.9930400021969286
Ni 7.195136500303229 8.016188231134423 -0.04278881219883195 -0.7233220246066576 -0.46367094433408534 1.1199260000889164
Ni 3.1554716897320594 4.827887106020875 10.581482541347151 -0.3323796182855501 0.08941628308130407 -0.821597043630172
Ni 8.428460540763863 7.348851459912024 9.15538450222707 -0.008533234281991755 0.9257277501035155 -0.8907738597361496
Ni 9.045141140187944 3.353200759368441 1.7654888164106797 -0.19479680280134837 1.0620579241275387 -0.9532825197933325
Ni 8.836803350912156 6.328621482330834 5.727304018230439 0.8941072949847569 -0.07864824593152263 -1.7828098740141747
Ni 1.398455914637581 6.81995755102418 7.004998889238933 0.11061837108021594 -0.9631946367007217 1.0661480350365122
Ni 8.178960547703307 9.191275788740912 2.330128165141316 -0.43965864057988796 -2.2982679782228805 -0.8468779296841479
Ni 6.568246633905674 0.7111344336426313 10.143832910955078 -0.3715025524289408 -2.02644735246731 -0.34526290200612153
Ni 2.7399944691782814 0.8796124206165259 7.058418716109688 3.758143181414489 -2.517754313351109 -0.9242557935436793
Ni 3.4451956372922883 7.639495077563585 7.756383288252507 1.0186397050429037 0.456064335631421 0.39144402854787425
Ni 7.642597802922221 2.4523142329321233 10.676465882587982 1.7044979283761483 2.1445486621881327 0.021618606711040187
Ni 3.693989620989802 1.376727547530252 0.4173676535192943 0.7091673303728303 0.8449961392804027 -1.1695536904183728
Ni 2.4253558227801486 2.8810662874304818 1.8240885225029166 0.06318665996081377 -0.8695257489906509 0.9288732377110326
Ni 5.6331836805399575 3.2462217616737 3.310635826454469 -0.4051973735782247 0.9981870936155066 -0.14668426356483769
Ni 7.294693110089139 2.012507558144016 1.0490398043917752 -0.25872342625198025 0.06493321033827526 -0.5040313504290029
Ni 4.542009051569853 5.080601299602653 7.4128465638734085 0.4172334788071524 0.1313275786031093 0.7245019038473717
Ni 6.557368515956687 1.110125406609673 3.4521730535104647 0.6684770517423198 0.7726311552544306 1.4892711398552223
Ni 6.981224952898157 0.8200949023523335 5.782668157728625 0.4628433062264674 0.3146708881518774 0.7064864411065575
P 7.771240140546116 2.8985307295689076 3.7477559498242607 0.9240264511416925 -0.11923028111894306 0.555303775450734
P 0.45046091345223516 3.831141229357739 10.954483080157337 -0.21337225181069058 -0.3054835652256545 -0.6427001998885319
P 0.9940333143735509 1.529039778009844 7.746485222774585 -3.2906749748215005 1.2653856472180338 1.4403998680758159
P 6.274695372430003 7.499612327712298 2.1580123720283746 0.750709672590991 0.022812884129457485 -0.8930551995711588
P 7.549293091837991 5.685595586149 12.366590986372913 2.483712907495684 1.3306163341920696 0.1559518049096927
P 3.9351382664533134 0.7611524101351457 11.420073031091828 -2.959242808050884 2.3340019412893804 -1.9145786539197607
P 5.212327783391419 2.850949414338579 0.7579372806542366 0.568628260473782 0.7656403257588943 0.6853087785876778
P 4.577318809318873 6.257760437313859 9.54193949184799 0.026995554752237378 -0.03723317331984556 -0.017999264790898032
Ni 6.300780560475056 4.13145531736361 11.807227199711646 -0.18218065669923464 -1.1869718858948204 -0.7569114305263287
Ni 5.806796956670301 2.8769045480272823 6.056074928365373 0.12710119922658755 1.0259642637287751 -0.44830166096686663
Ni 0.18857231398965488 8.716772469598006 6.649185033620397 -1.584261060369562 0.9745072335000636 2.497822093203556
Ni 6.623008807525899 7.28871060969704 10.909805692912366 -0.13238661599524296 -1.0364147696381376 -0.14382468262885553
Ni 3.130807810009974 0.40252752250007323 9.259382468282332 -0.23353227169833327 -0.15959068721386063 1.119781504091252
Ni 3.297769734772703 4.397007733836507 3.4148651034720965 0.3640412110548892 -0.06940153052227402 2.0155713289847546
Ni 9.555929624752494 0.021787820527374668 0.15420637928386063 -0.5822160264605457 0.4593484056993315 1.0885629123966027
Ni 8.704222224210232 3.12228924966905 12.803982365971665 -0.5171722586863351 0.7339257682644329 0.13188267977563095
Ni 2.8806018075863746 2.9342213607900955 12.312165096159823 0.5879015068810972 -0.2581798950436843 -0.23124887498079527
Ni 4.541563150919511 0.9490437966733397 5.154737856480271 -0.8988065002326391 0.2127073645331821 0.10023265697051771
Ni 0.03718346944014777 6.810138447119757 0.18681100642080087 -0.7958857549069971 -0.5850861489194892 1.6969273151177422
Ni 1.2197612290127071 6.089674471328391 12.015018760690763 0.8471903187182442 -0.23984690106245143 -0.772597730913334
Ni 8.60161862664698 8.197437555901885 11.630693274321558 -0.7030419342013827 -1.2615593314934082 -0.22089555677092926
Ni 5.104103979714471 7.6107995127946495 6.019500856480693 0.37298273651889313 0.07734109708432488 -0.6668480007793289
Ni 1.7082453914632356 4.475792804993948 13.7599627046369 -1.8852256546789403 0.39135815370228727 -0.9629850917930769
Ni -0.2694726263571605 6.92983490294615 3.300629072693026 1.0058289264314808 0.8148838932760546 0.45221462286802766
Ni 5.1986349175871425 8.589765101025367 3.618523722798349 -0.10809509043772995 -0.8620332972683475 1.4565520523556463
Ni 7.666602121265674 1.8671811045197946 7.954330663415619 -0.537060770080146 -0.19117977487405138 0.6057110242586923
Ni 7.4721615689255705 8.036114416446617 4.977877866239621 -1.968962113766648 -1.0059261141309772 -0.40227660038700397
Ni 5.233247955570001 8.831768389402036 12.182374564361295 2.1633755650866484 -1.5645291291582732 1.0303875896074512
Ni 2.8973881091524043 2.7737714434417473 8.111924958682396 -0.26121019722957595 2.2483212139911086 1.8064809923788696
Ni 5.49772277880457 2.013222857103941 12.311009470307685 1.0848448401150672 -0.4411210840580274 0.15554068551420308
Ni 2.697169427551609 8.928761070448475 13.051734056899 -0.9965755261540127 -0.4904099029908263 -0.5806147434116968
Ni 4.989758331692191 8.367028436582261 9.615590202808672 -0.9385776094829901 -0.369409417345338 0.3817008331181813
P 4.730197705208275 4.90013230097329 5.138191226513801 4.864616912653241 -2.226193271743818 -2.264666488118351
P 1.333465894850119 8.217726035492483 11.397721332033706 1.8333055687708815 0.29931240341793613 0.09626235946886003
P 2.7571802234102427 2.0290058822066994 3.9853773353516226 0.8729103491921676 0.7438201445600093 -1.2991447459463497
P 1.431480431553594 5.405282000230381 4.545557677578831 -0.5504924701050197 2.289087083054561 -2.7335200050946407
P 1.1941126520211143 2.340086612998972 0.16854580103113426 -0.14237817999031607 -1.5608596507264862 -0.4989274535435343
P 2.4809912185072935 4.9511228982593645 8.047655811612989 -1.056208407325297 0.37453234039420014 0.3313133818045649
P -0.05313184936740829 8.934752860437456 4.642104457974927 0.2177531544872056 0.6031414637593031 -3.2191805663259396
P 7.3725306423646035 9.063711044355344 7.858109947870086 0.5682521080812859 -1.4014574253743477 0.40608363283792004
