# total energy = -381172.68758520647 ev
CRYSTAL
PRIMVEC
9.21551562631792 0.00000000000000 0.00000000000000

0.00000000000000 9.21551562631792 0.00000000000000

0.00000000000000 0.00000000000000 13.48783863771299

PRIMCOORD
 96 1
Ni 6.336920406979267 1.4989773652898242 4.079329155321935 0.43427963565616173 1.5559215899949206 0.10231113676610122
Ni 3.723980710055778 3.752410576228478 7.7821593351174325 0.6915524455045444 -0.8111984740046674 0.7023929877634743
Ni -0.031547475160131414 6.145283756392134 10.683838650820965 0.1353580399187411 -0.2923773668609997 0.41332128823693975
Ni 9.303339642569295 5.6732097451886485 6.089058051532205 -1.8838220894631945 -0.062036091296138324 0.13784172557254326
Ni 4.829999267089486 6.149771712575636 1.3024555697891909 -1.1372264390405769 -0.274690748214514 0.07581951823347587
Ni 2.117227887751454 6.758133986608317 8.978881606188354 -0.6847385079065046 1.3308798722661015 0.607877692892708
Ni 2.106971018691416 3.532795619741728 2.820441779472671 -0.25079414410257456 -0.6143478739980839 -1.3361712025720278
Ni 2.75472962267168 8.995615139736616 5.051357799161284 1.059769385203678 -0.5711188881061197 0.299608080281484
Ni 7.963431295109935 8.859713928570065 11.874369938392753 0.6469810866520729 -0.5302249781052353 0.15136752797311998
Ni 3.8567025682791916 5.19529309698241 3.5969641776500363 -0.30674829087069105 -0.8309707715355882 -0.6427259109201446
Ni -0.23762207431542326 2.7661384312038693 4.735445310560553 0.9621872784821299 -0.15113561446797194 -0.4887618258644421
Ni 0.6134363370196138 8.743487843587861 5.824358948760176 -0.45201870480713763 -1.0594497970807304 1.3544270634584223
Ni 6.121636742907806 3.935375426469254 2.9072629967129453 0.4344945798804453 0.6783948250766639 0.19287258919544203
Ni 5.094208104422167 4.614955206428233 5.786606666827248 -1.694609722728159 0.8293643462804168 -0.29867502694425335
Ni 4.17044480291439 2.5525780685827475 3.6252880653912984 0.358020458782106 0.16516278198499945 -1.9143765652112836
Ni 4.097586935179748 6.2022817214741925 7.970206542309341 1.3457115379622953 -0.23690864436973394 -0.22862712108723204
Ni 8.338852976842015 1.503216502547342 6.445164012195249 -1.4801948885855667 -1.0033627242791752 0.0022466299423316146
Ni 9.021252704628822 1.6907706796451698 8.57014583492165 0.39660011882751695 -0.20386585498215212 1.3269843938664372
Ni 0.5681715666251016 5.0210184781195455 0.6820559890483154 1.0468359649714616 -1.0743408552599498 -1.2104365446756638
Ni 8.307308266336618 7.528283855625739 3.335582660557804 0.35630604719416054 -1.1281465882264958 -0.2070085143761919
Ni 4.719735620815139 8.34376484675127 6.878636070911147 -0.5128062684081556 0.5543218711534389 -1.4896814879197635
Ni 3.249344785466227 -0.18843794506086267 11.722186753951023 0.03505390628033963 0.5943570326984539 -0.1850831750580103
Ni 2.3046806941757323 5.180585133801979 6.798275851782277 0.23226754605329675 0.7375394537576201 0.19718510052786686
Ni 3.0823965016462465 7.335716437945107 2.650185125488671 -0.4601940415290784 0.36344960021747724 0.005938219861305902
P 1.0447445926310222 8.78524334557441 3.404222586721215 1.2918258436874333 -1.0277185274157206 -0.35359816134469424
Ni 4.732296368819479 6.644737064969717 10.361802451986275 -0.022054665807194274 -0.3992699523501963 -1.225834881508605
P 2.6314720991514635 7.632280951171582 6.9020646766715545 -0.6219809650633095 -0.5724095818930851 -0.155068630973791
Ni 2.24947975467023 2.756240967259143 0.6289985785125924 -1.3212035255186019 -0.7993359182391266 -2.0812265050907186
P 4.108958881648828 1.3129253172636821 -0.15431841944731126 -1.202719121426748 0.8492160908990214 0.34159316646401816
P 0.42371006285309676 2.7856384625884507 12.519844016011847 0.7419159855587609 1.8450015170515708 0.9591572334065546
P 2.6195011441568643 5.124370487560983 1.4612186324958516 1.025512263793021 1.0961708066508475 -0.44353534992647486
Ni 2.520646306414706 0.6613201569980096 2.081052380568006 -0.5538780987478009 0.037073250703213566 -0.8415686016560926
Ni 7.2137767331810325 3.929376125698289 5.333293602643011 0.1192433937450656 1.0396029375581322 0.35496444556460155
Ni 8.222663753922921 4.552427931879846 12.292708277099313 1.1753237601329307 1.612285827717262 -0.6869591697069073
Ni 1.5622418811003878 1.5002030288881933 6.921715842514882 -0.7345322915001802 0.8953799910495934 -0.12725777940910987
Ni 3.3215391360649096 2.4765316323891904 5.58592130129847 -0.09988838625722153 0.5320574033282837 2.089873639242756
Ni 4.136024851486502 8.556265425058012 9.253480016008263 -1.5816807012368952 0.7078334420527551 -0.40015749716147214
Ni 4.833160189001069 7.222568335232493 12.487647768541 0.5092702302304389 0.1217543330923774 1.6077041218838506
Ni 6.6817834383941115 0.9378814716784665 8.198946702518686 -0.35630990384890254 -0.5475930370700376 0.18290390801850437
Ni 6.749572772451287 5.37589877518422 9.785602328016067 0.8280980779734837 -1.1059913922856952 -0.6023176823064272
Ni 1.6161342173655262 1.606623805083443 4.170615289956268 0.04874297373165799 -0.05606650397626473 -0.1778717449112356
Ni 6.713530890246608 6.451100647458929 6.259759814928245 -0.5853244901825404 0.5679057804854607 1.3942241408507021
Ni 0.8059844021171131 8.371328454440912 10.957452843555869 1.682215205718548 -2.566646668176438 1.1516097043454425
Ni 1.9091876190808825 6.457883267070957 4.893401094085129 1.076446845859359 2.338280771170392 -0.6289885067293941
Ni 5.520388847055134 2.951573039672938 9.52535431936443 -0.8953023437341227 0.2688018935339048 0.5582618296377934
Ni 8.98072286624064 6.95764068766919 13.131450151598106 -0.48602385810798876 -0.03593836576782197 -1.5100366545373478
Ni 7.326030930863257 1.7011473504103114 10.591137012963252 0.21352857488289678 0.39768383880999897 -0.4872610729491995
Ni 4.191824799517523 3.558737296654581 1.322255105436532 0.5067351225134112 1.5457508201095056 0.5714587879440416
Ni 4.397699421980449 9.342782050095765 3.1397796752877927 1.4162214710573997 0.2836564420482341 0.7955036889772299
Ni 8.206112687587048 1.3913862185908688 13.201465032715477 1.6386740879028039 0.801394086319736 1.310032853613763
Ni 4.106314028620768 8.531604704838191 0.752011890864713 1.5503425532452462 2.2737687075299355 0.8741383080619978
Ni 8.852267791822076 4.335365673263384 3.1129929355781694 -0.9815078331876129 0.38075543848577653 -0.33080558893021095
Ni 8.146414576382265 8.71086491773653 9.600427597091914 -0.37958558654739144 1.0253163457321308 -0.6100502750639946
Ni 1.748939015230935 0.2975643966883017 9.257445452447199 0.9667733551909158 0.280877079530884 -0.9136283957368202
Ni 0.4080971360233434 1.3405810801110964 10.997902506956788 -0.3260665315833288 1.1716123727196144 -1.8102589713640629
Ni 8.502815433550179 0.41361907307704915 4.191993443456246 -0.7783276914185757 1.964659372626236 -0.3742765156296522
P 5.98638061784566 5.012991763877594 7.808878801561882 -1.3590319092202852 -0.10428908642807846 -0.7167094043861463
Ni 7.710658912856774 5.917126016779907 1.4071051238520602 -0.30130860791235853 0.9851747405162388 0.8646815335244722
P 2.7288985319481536 6.743674842353871 11.303442932550265 -0.9594935337000509 0.5054634548898391 0.15710725867037456
Ni 3.3980094859842187 2.9655161150438607 11.75133358725119 0.8384267135930011 -2.5847500626453677 -0.3629119825464524
P 0.13525336040741412 3.578071448755173 6.839292269403494 0.145855082795323 -0.5212741966698505 -0.17265060572161234
P 7.989179446191466 8.064341192870412 7.07616512228623 -0.4218007864628607 1.6260710544268124 -0.48065385204532707
P 6.905195187381073 7.944862030818852 0.1211259747209474 -0.28256243765310696 -0.9277735768889507 0.3315959460419902
Ni 8.761117125269667 6.803815298315959 8.541834848902475 0.012699449844539417 -0.5934617745776941 -0.7293623172634663
Ni 6.432125900473649 8.560062217558224 4.869272109125654 0.5813194827882053 -1.0665267585321696 1.1667259911615908
Ni 1.5039353127779647 4.353851997912472 11.466591659215304 -1.9180442438708583 0.1978538444601173 0.3772996187266921
Ni 2.513301540340268 7.176288014999332 13.682737971767779 -1.6689480562959969 -1.5008943259164471 -0.9258434497457733
Ni 5.821505825075551 9.169723879315491 10.72840212046483 -0.4873076099164188 -0.8176928234797596 -0.6118868140521011
Ni 6.223468192246004 0.8516528121026672 12.82067623459475 -3.0422629577978575 -1.8659752910897605 -0.3353757247993966
Ni 6.155660427157275 7.631027641025881 8.479062441634415 1.850048335446859 -0.892609627393308 0.7592159102897893
Ni 8.054001384168378 3.4157124917922435 0.8697917118069545 0.6807239874304728 -0.022547032062580522 0.9822567955384954
Ni 0.7812582517352744 4.851167306829742 8.567920287861453 0.4809371876137008 -0.6266477744113594 -0.5877593248762781
Ni 7.399423298512977 3.4786913266137134 8.15957617601528 0.4103717186903126 -0.6145453347208707 -1.2998823954433225
Ni 0.4281998621397547 8.296378664624843 1.294434384856705 0.7297402694281755 0.5744592653332623 0.923959602459499
Ni 3.2432441140217123 4.758883131836737 10.048358800062259 0.8793260229105244 0.31416283816720736 -0.7667402436912925
Ni 5.63637532862713 2.526765408890775 6.646631775013512 -0.1271942731610261 -1.055784175303685 -0.1387387834655159
Ni 1.8826377181267333 2.8564320547889968 9.421808784091672 0.6385185577070165 -1.0027279189086538 -0.12773523326616068
Ni 6.884653802713666 6.910816652005173 11.419168615025768 0.7250135533764674 -0.13284067281352605 0.5726944601233556
Ni 7.512377875394271 9.319743260652732 1.8433962088442073 -0.831682195780316 -0.5731775704073613 -0.3706564023785617
Ni 6.164719279166276 4.580083694727261 0.37715143404346396 -1.4035600735396474 1.5457569907570927 0.264733379891486
Ni 6.602308830331431 3.103417093134068 12.46148215459476 -1.7095367763516365 -1.9914410115954542 -2.31275922986052
Ni 8.752012195681782 3.656974694839666 9.959514777108886 0.03776102079885755 -0.07807411859560746 2.263502292606921
Ni 5.9534535799736785 7.585272605192021 2.714427407523197 0.27629100282209834 -0.6027280303709684 -0.33317280361080687
Ni 3.7112909448305564 1.1664446939848898 7.7059129222315095 0.6906355901172299 0.8361260904842825 0.8266549177690538
Ni 1.191225215909814 0.7497457955350963 13.069068482199 1.4988173887827607 -1.1857788940279836 0.8261964900753964
Ni 1.7282778288584248 4.218531364239884 4.803276114438725 -0.6861461868873087 -0.6481409112881289 1.1530268964079433
Ni 4.396694930760733 7.270912930999749 4.568829706860129 0.586625725492467 -0.6141491277237165 0.9737628991348714
Ni 0.3055118574945697 1.5020184854963043 1.8877716819662185 0.46005083108299477 0.699231302206041 0.1955946161122954
P 5.341174711735683 4.66280216434352 11.33570553173471 0.007210401705510163 -0.6539024963622544 0.4104807334643511
Ni 3.4839994637013882 5.038417371906922 12.664730355061181 0.5930383138870302 1.1436336281185013 1.0224439092803426
P 4.036432772482166 1.443711917173881 10.19953104242323 -0.3869404842505659 -0.8058307819348509 -1.2096328178274458
Ni 5.649194111073233 1.8412047591923861 1.3400815991559718 0.4478391195081513 -0.2213658115391284 1.31518868678309
P 7.590718975016354 2.1890812642663793 2.544453669873557 0.3352749375554742 0.8470715337521927 0.5207664037954967
P 7.231111118357969 5.982261282293246 4.345026298452636 -0.0454650743113346 -1.3324171348462344 -1.989717344036128
P 4.758984502510287 0.7817660266545988 5.3037016599308044 -0.5359744789945028 0.16367282770303426 0.9763478862532283
Ni 1.0211620877571355 6.131635577526081 2.613174692575808 0.12398553641574131 0.707583273715162 0.5885815636672573
