# total energy = -340876.7337626108 ev
CRYSTAL
PRIMVEC
9.23159065015072 0.00000000000000 0.00000000000000
0.00000000000000 9.23159065015072 0.00000000000000
0.00000000000000 0.00000000000000 13.51136605997812
PRIMCOORD
 96 1
Ni 4.283901151626042 1.9723200986616733 8.60310575199887 1.774404166448983 1.0363821166279894 -0.88694317313615
Ni 2.2234008996174475 4.203660166189334 0.5676883551016425 0.6778325248152907 0.5637146252222486 -0.45636309781876244
Ni 0.07555687636968267 6.501264590995491 4.474950765271895 -0.7932578303658467 -0.6701454405836781 -0.4653056517240309
Ni 6.931890597399785 2.449417932112492 8.696510062462522 -0.8522083407581259 -0.15493416227845577 -1.39142498083901
Ni 4.579441292879007 6.017381538458618 0.5472874630495738 -0.15940736755846097 -0.6348339097665776 -1.7894312359854343
Ni 7.87467601832814 3.5721916748378435 2.3971865156948264 -0.27292182923954933 0.9305300565881651 0.9393656526019242
Ni 1.3294967508804607 7.84021449064346 2.596965521405677 -1.0674515843392842 -1.4143072847538223 0.2592412464286632
Ni 8.32445757521347 8.550862334513432 5.183338715764635 -0.4044013600394906 1.9100504270321041 -0.17265754770014782
Ni 3.5177345219281406 8.675414954797839 7.106276266865726 2.8186186346371973 -1.1061736834998304 -2.262398518019781
Ni 4.0896500223624415 0.9346708527968699 5.064276122406047 -0.5162314920396206 0.1341298239385948 -0.8386995076384136
Ni 7.126547916649489 4.53575740619165 9.510596032611973 0.28098686563587094 0.8320825165425283 -0.3692973172475059
Ni 6.340154871961731 5.678342142330161 2.1351339693189497 0.4039059084603109 -0.9575814042790023 1.098686888204482
Ni 3.619115849823438 3.760940776107855 3.021316815683725 -0.5240039368961878 -0.15883349733286192 -0.7656107580725395
Ni 6.363455406619146 3.4100295544764525 6.321535676894164 0.31813750654423917 -0.5080710677160153 -1.6442400120263552
Ni 2.331585909779986 0.607494050580766 8.333905185026623 -2.4227011436990016 0.14077201184546076 1.6731664652527185
Ni 1.2519236951252077 7.654244098142024 6.2348464254280564 -0.5314231121783944 0.7604418122770903 1.2418343422606548
Ni 8.986981137320722 3.9799048733896405 0.3355969359962259 -0.03315360393383323 0.412929709225476 -0.9323218583812652
Ni 4.239026389752153 -0.017013821463397742 9.88305101721089 0.5153676013774285 -0.3709978448783804 0.3099863381920145
Ni 8.799829101223347 1.2098645683822669 7.8033952147212595 0.14074218704878985 -0.7730530732831977 -0.912606639340525
Ni 5.358513686226301 8.075647745543641 5.326288972942371 0.1264360548387629 0.8986751168610975 -0.2063863074111607
Ni 1.153007201918313 2.787478779638062 2.2576279449010577 0.3446193548848517 -0.14450191120153824 -0.5026506680313925
Ni 0.5843633771902672 6.431935345640028 11.493794637628755 -0.7250572621302094 0.936842114849122 0.33765243664871525
Ni 5.711095825755085 1.0622422032052765 6.72155342152741 0.3190327646649989 -1.0860018365376458 0.9053286176218731
Ni 6.99775799628277 0.18517370623323726 9.135750989208455 -0.24371795398208349 -0.21242557162670514 0.061177342840268836
P 3.9226320853489898 6.50529879608475 9.882713140995177 0.698431689122881 -0.5776667165269664 1.1203615449644382
P 9.247007349561375 3.8608912074611954 8.212519000315709 0.05356507771064968 0.2970794003223593 0.2426062089751435
P 2.9233400983992253 6.166914842888415 6.0350951144889855 1.4793384541225425 -0.17644658242893485 0.1449395129595891
P 3.7652057709619458 2.091767649348002 10.830048812926954 -0.6546558295885112 -0.5619490486813935 0.0811653559264215
P 2.6507773861329107 6.127366708786844 1.7525048487271881 -1.5064432807591346 -0.9317317902057503 -0.4699020128454617
P 3.0882716959385985 2.126173787489121 6.675006818597081 0.7363217793004352 0.29575142553955514 0.6400185392913106
P 7.067151862772386 6.730715775191231 5.142398457801598 0.3755124449192823 0.1602638020214853 0.661865202852757
P 8.642541260695202 1.9400741527193792 1.2536416941346153 -0.026958016646082605 -1.008149347034541 -0.2345799962365573
Ni 9.15150654487399 6.222950597789568 8.893072782010677 0.3678572423668697 0.17076547288375754 1.1572807865882906
Ni 6.678935783553577 7.887914119238889 3.187290659801078 -0.4044592098606195 -0.06634063220876317 0.2706615724504629
Ni 8.216263333460338 8.540282931693543 13.023430426253203 -0.4892899304537702 0.16537772620928293 -0.8149954791532545
Ni 4.307764813309647 7.122919901546333 2.469310163522872 1.5087343907861566 1.062792488300718 1.9614912593108993
Ni 5.413866303423552 3.43000671652029 1.4761710317035222 0.07315919779249336 -0.7762011319938762 0.0362021609521699
Ni 2.354203306733499 0.6812350730807523 2.5561886625961416 1.0108294649698655 0.932095344192756 1.0794365246153022
Ni 8.056907616639302 7.698075690278872 7.4740960698277625 -0.39145431296051936 1.0640338169069867 -0.655115028613117
Ni 0.6223873756848896 6.870075866787245 0.5811830942308854 1.2579510453168594 0.08287899618341855 -2.165570001634806
Ni 2.221157623103283 5.427233646602607 4.088525614628181 0.15961691246610576 -0.2443123930329728 0.016491569897119984
Ni 7.268086663625513 6.23094515524334 13.451131864757551 0.032877724564627245 0.5948627686902788 -1.2643374084591774
Ni 5.375749065863936 5.682228641969928 11.708409732582052 1.1614284902080771 -0.41596566783832234 -0.7442875711147311
Ni 9.046469507103758 3.049997521338898 6.025893988144673 0.16917036048249576 0.8210727956955859 0.07657850788668746
Ni 7.131819154878246 2.019696621586338 13.21288666736266 -0.3333764349811807 0.8404355164929139 -0.19093320608088407
Ni 5.502784984017934 6.183540937546895 6.796393003307996 -0.14329606381889515 -0.6939908797427081 0.6481668794300579
Ni 5.202758289736639 0.6950538410398192 12.280156294908496 1.423031809111014 1.3426665804883844 -1.0857241573962269
Ni 9.08339586947684 2.457901763867708 9.832450822851055 -0.4637514198630336 0.24858685203861058 0.3162752565245198
Ni 5.6431697821697995 0.7339022205744206 1.2300060527386645 -0.3540288211242097 -0.583344483638034 0.3338019525543735
Ni 8.742657860679222 8.603593179982195 10.607056972669323 0.4205589436359596 -0.21842498374324962 -0.13210148065465638
Ni 0.6295954016201152 5.10885455022189 2.2758141783698007 -0.33402126765403123 1.818039129530114 -0.19386194969190484
Ni 3.95492418924425 3.606717823656676 5.375808148043735 0.428871577266713 -0.2314118829212208 -0.7681751763656061
Ni 3.0370086733741664 7.748710964682962 4.524834588201693 0.4134709264409266 0.9147018313066569 -0.20169070170770428
Ni 7.510859033047344 4.669513922297549 4.665731739631485 0.22710631356733146 0.2358385512340067 -0.958172500895782
Ni 1.1234014908856942 5.153009248029504 6.682937678075759 -0.17035229660573886 -0.3081431143356887 -0.19719769893335715
Ni 0.2206165519979811 2.177953779126776 12.216193373164902 0.49949695289375917 -0.28735240284258257 0.0954977133886936
P 5.663710071239827 3.81613645626502 3.866142136190648 -0.5161708140050143 0.703252507550292 -0.4726091273639796
P 7.240142638899683 1.023820323156084 11.172953476036813 0.8658637267580312 -0.3163881279533003 0.23451417599562835
P 4.714804105748134 -0.05829472511932595 3.147053849041249 0.12084313413201768 0.3430016167757706 0.6465044041259704
P 7.6163484187566475 6.167247180149772 11.052175653145994 0.24612399232041482 0.6195340461847136 -0.6798886360133709
P 0.5391488927825463 8.52158896074217 8.653934889805416 0.10860288331208393 -0.19407869368840122 -0.6363850563037814
P 5.441367211800904 4.12662254268849 7.978177842582712 -0.011635270246083186 0.7081293760266192 2.2226600617795786
P 1.065224006966903 4.415940591881592 11.876815177661673 -0.12368368890460635 -1.708832036975128 0.6389525599206415
P 8.232197058824324 6.820363751442482 1.8348570989325774 -0.6533108855248426 -0.008029812283011977 1.4050006626409157
Ni 2.2294383598654464 7.806233005669631 10.15535893757683 -1.343435597443925 0.9941304070476298 1.6997257037984856
Ni 8.02704342107007 5.3018040252118395 6.980795871726695 -1.2290107081334254 -0.020855246182454407 -0.12364846479129672
Ni 4.013683263370418 7.746883109745494 12.137314047340702 -1.5047689783805054 -0.44980087122021245 -0.34308954850388657
Ni 5.91111669913948 2.7692833145787255 10.829468145878637 0.7951180235030371 -0.4967952376918799 0.035436486430738975
Ni 2.2570685105111052 2.751475576324306 9.2246955182565 -1.3261210174248774 1.821439670571231 -0.03760778305044491
Ni 1.9721908563933674 2.2490277951043667 4.429755667204421 0.240137949940309 1.629094671744485 -0.836260559179618
Ni 6.4495215257202085 6.7779076663040305 9.143168572250149 -0.1249602416241848 -0.32132258914044015 0.06300668273952374
Ni 3.145424473301537 1.1463327619193784 12.933092850184636 -0.7700250850901512 0.24535754646803548 -0.5151709119855902
Ni 1.118065631522784 0.7942611293504017 0.4076051889418554 -1.0554417043626017 -1.1663827488895588 1.052463081350252
Ni 4.600443161478697 5.8599090661186075 4.413785015478062 1.3641766866460183 -0.8963796359587014 0.6198477207703906
Ni 1.6220458567812064 1.0742432709765282 10.625946653341275 0.6992462146043764 -1.4673311452490212 1.216021752072925
Ni 6.442837854130681 1.9457977388872068 3.2726016347916103 -1.0055522757313264 -1.59558651268471 0.5553703670226112
Ni 3.339860234377002 4.416919140484478 7.460206218621128 0.04749136071274402 -0.030668375618134285 1.283583915393615
Ni 8.197966320904476 9.046894160271048 1.7296714325537925 0.5576200822887364 0.9330075715943803 0.9933835015792761
Ni 8.057276880263032 3.866467088179531 11.585226157182626 -0.9426278682929637 1.7005407435006132 0.49025923634557494
Ni 1.3588624405576544 1.118102557885157 6.1905698706246115 -1.275623522895958 -2.30135484467832 0.2719124141384285
Ni 1.9404341847525166 5.1719063139739285 9.702268778622871 -0.36779759277352786 -1.032494865758441 0.5060468381971349
Ni 8.734026323474515 1.5829039126657392 3.6923860612031683 0.9071764694638892 -0.5937433103738549 0.9808506592195881
Ni 6.125640401345903 8.025335576810317 11.19155882371849 2.0699838422973635 -0.12211737285875096 -0.43161751544296634
Ni 4.4275170064855525 3.2217974222796646 12.613549650230109 -0.3722574283170944 0.7874669347156825 0.9156153442598618
Ni 2.9645406872169926 8.316426091397323 1.0278545282453433 0.42042781737473406 -0.10290814692015181 -2.281204852093007
Ni 3.0194501880657656 5.3309573883053885 11.984405673390004 -0.5110067533055715 0.405297903711831 -0.08608670448743884
Ni 2.5681915766855115 6.784637495846525 8.1580415379067 0.013547142556815377 -0.5766745278170262 -1.069590742169474
Ni 4.179778041324543 4.236395386433071 9.996195237840134 0.3262922744408897 0.08913834682956906 -0.5768766165255033
P 5.720235100442423 8.164612584090989 13.358525163721156 0.7403252440328734 -1.0944306840312894 1.3626792761648854
P 5.4930456559420335 8.363682603644277 8.10163098042746 -1.0537272927746564 0.3465924194508225 -1.5172743099363677
P 1.9724216461581991 8.480988425312967 12.456642151234405 -1.1929291319195197 -0.19906894781414103 -0.44153246056383316
P 3.2227482761107713 2.3338938074283035 1.2367497296670489 0.48208004296889234 0.39864774538516506 0.1806120266605341
P 6.305730270639425 4.311042027970258 -0.25249785011184117 0.11298532865049574 -0.7226404251586007 -0.25579725374412077
P 0.45643476422590096 4.115793886922584 4.144746924500258 -0.1738842210183973 -0.7104737078890796 0.6705678728330774
P 7.558050924160144 1.5680779781729466 5.706565884250967 0.24707530049009063 -1.5459747631948535 -0.28377676967618226
P 1.2049995201396133 8.865982679414724 4.404016146312264 -1.21053707480927 1.6192000383385918 0.5071025331551589
