# total energy = -340892.594147497 ev
CRYSTAL
PRIMVEC
9.06847766831764 0.00000000000000 0.00000000000000

0.00000000000000 9.06847766831764 0.00000000000000

0.00000000000000 0.00000000000000 13.27263372335704

PRIMCOORD
 96 1
Ni 6.4530470009846335 2.1375943202360554 11.544297959933099 0.0026621202131954153 -0.6573961113378097 -0.31653930881918385
Ni 4.450427900450142 0.16999495941679652 6.062766026258878 0.4270198687699549 -0.25308756812244154 -0.5367177849184305
Ni 2.694616484637348 1.4400833017890344 4.79193860296715 -0.30713241368298716 -0.10907853739692182 0.7998737930204677
Ni 3.2235535740980508 4.250186847895034 4.7880228343654885 0.9150656424039788 -0.019216939248083032 0.0034748459224778865
Ni 5.109706217589599 4.427203529470855 2.7225356064389605 -0.49286453517890605 0.7914341468935466 0.22091715403748405
Ni 7.488748752321363 6.417906650518122 2.6539162505912186 -0.678233102687819 -0.518087828522069 -0.5423459297384853
Ni 5.040613487214282 4.580442662937465 11.46922728916358 1.3416355681207088 0.03127207064040421 0.21839567316721098
Ni 5.70659340925561 8.131803563142215 12.354910123408063 -0.5621143706146642 -0.3194382276335337 1.2950494928310534
Ni 2.1490840812789123 6.436252180581026 0.39950270953592315 -0.8972334993185643 0.11160773157667876 -0.6608583588547973
Ni 2.6195566960408794 1.2639190571019494 0.44472902072213905 1.2363018424782 1.3691736256399776 -0.6486386768601538
Ni 0.19281306260230271 9.31169410736089 4.743559182140365 1.7209221353704425 0.5873453772673111 -0.33537881012319015
Ni 8.516524654288355 2.4918453268486513 1.251563256454047 1.1432687885799149 0.08465974223292516 0.8843317036552318
Ni 6.861119421795616 0.7284182035979796 4.8848732676422095 -1.0868672698617345 0.21803649005557932 -1.4537693474041866
Ni 0.6006234044123862 7.465379285701441 2.202287932156842 0.5691810476534586 0.9388218642833123 -0.5092491471845165
Ni 7.782313507237986 4.215119045248841 3.6987644683745344 -0.2826917641421196 -0.6786197966032764 -0.12217445134893153
Ni 7.655626876007749 3.864450087264444 12.693548839088233 0.8453326966842151 1.337030979469162 -0.4298177432300662
Ni 7.757420536391386 9.031541630725549 6.825956400135255 1.28335380166068 -0.6635657304836314 1.2509974968171618
Ni 6.863313993360234 0.796131618539501 0.5130826701779665 -0.5523138395844746 0.09590086236438322 -1.1754996235891628
Ni 1.9549642510631322 6.3397273056479815 9.26709896221144 0.3499258546994296 0.42170154188083503 -0.3548081224923954
Ni 9.396847111459094 4.967222298485126 1.3106316917569296 -0.4979298655169554 -0.8910888198734074 0.9928037178164063
Ni 6.188483237240116 1.8655218570886283 6.925407672770376 0.20955904871218745 0.7156758209153093 0.38559682573847787
Ni 3.39173755855016 4.180150995855584 0.5307027220376909 1.0937817375933807 0.5397532293106446 -0.1068398778743902
Ni 6.084349909651225 5.782650730381451 4.936437537780954 0.24430185151001146 -0.23574933395431014 -1.1850201614850882
Ni 5.4232941709139775 2.7066594228101293 9.354658740248693 -0.4295264372418925 0.3717511781046372 -0.10997610951052672
P 0.2477888939914984 5.56760992248148 12.566542997448598 0.17676822743441167 0.7203431444839916 -1.020443591020862
P 4.235178517566756 6.236781948616797 12.603400917561137 -0.22838183784564542 1.0210179754670934 0.2916813692352396
P 2.369919646326781 8.434853945565411 1.2384720022776712 -0.33516849388459696 -0.5799542270095626 0.7390875149710303
P 6.246702863045278 7.673455502850888 6.133509219546427 0.17362299693721067 -0.7498414110534247 -0.8173225846245342
P 4.735413875614166 1.1194400729387333 12.74760784739816 0.21031083927654745 -0.31031672494823975 0.3217457927207878
P 3.999905936275614 6.124831593388646 8.266939294896233 -0.46612583363248106 1.1046186803078848 0.4017302409652307
P 4.820448989504354 0.84573256329089 3.843011299512733 -0.3462430065312037 -0.02029294592108118 0.12746089655885143
P 0.35242914947486115 5.850691517362156 3.5086873654459723 0.11033143596741643 -1.3710631293532063 1.242734742587737
Ni 1.4057681827786397 1.061320200386508 2.5132659776452826 -0.9903213177141847 0.3532448917703335 0.3168121028645963
Ni 1.9238412361467279 6.331212005238161 4.988917724151212 0.0749402009523161 0.31864864185270286 -0.897644361603738
Ni 5.807471153407732 5.353666400363816 9.244044171762146 0.5189820582015642 0.931783469379292 -0.04107517277375507
Ni 8.83594363867079 2.3937153313910713 10.225024915928543 0.2557481456737402 0.7276985564077983 0.10826838279080063
Ni 2.4695278036233392 4.889777500295704 7.024541548691605 -0.7316675683578754 1.7482087390005376 0.21018434100101224
Ni 0.5110195915376744 9.123976622288167 9.148189457319289 -0.20206942520336166 -0.28866006591041254 -0.02483865631023464
Ni 1.57961089721555 1.021219392705756 11.594946313840326 -0.2937760469807392 0.428585670595178 -1.690327036192405
Ni 4.068944255785692 6.812095232215754 1.6792136134255846 0.7209818065092551 0.8516725228593139 -0.5227710929303513
Ni 5.597109679918269 7.949218836356992 8.2906841964863 0.10217641096044984 0.1177981766581068 0.33173478561269965
Ni 5.122347675280003 2.7439217970209415 4.734414529389286 0.5015978012868457 0.5965900357940306 0.9233726196077774
Ni 0.7393448121856182 7.553960174309669 7.163943999128073 -0.14483589750218928 -0.7282467156017846 -0.4528206318831427
Ni 4.902437094941188 4.55218528692362 7.0981376850131594 0.9270058454849907 -0.19916536418268926 -0.5519968225646881
Ni 8.267613082777435 7.010540726217993 9.149051869533318 -1.2997918926120453 1.2895128792835404 0.4891066107983706
Ni 4.658658281717765 0.6048475012503993 10.516491225142472 0.19091032326274862 -0.8775172518365597 -0.5209597507532254
Ni 8.399205760356674 7.304486357191285 4.959054320765078 -1.2924264533859098 -1.118165308644068 -0.0025078540235182615
Ni 7.214245937193283 5.534029350151804 7.094554729537206 -0.12578890817306723 2.6059094703318024 0.6437710643552074
Ni 2.495626881982725 5.116335274671153 2.644306384942351 -0.8730738713532255 0.0041081086311026025 0.0769610880370868
Ni 2.7035580034915365 5.125494436986294 11.685438837513935 -1.8426900953095748 0.16507150782277377 -1.6441595364974073
Ni 1.0739163156892138 3.289517679722155 3.88962508776253 0.25447082162321333 0.2514577458285024 -0.8471314404558508
Ni 3.6328230339442786 2.446158337003417 2.8830014096569934 -0.40715192620143426 0.5676586974716611 -1.5787905241732938
Ni 1.0726467288336494 3.4716489826303922 8.307885284683689 -0.611906868656759 -0.44598098325349 -0.13319599927041575
Ni 3.6060891621571107 2.737093233433513 7.260754531103619 -0.6661646015590592 -1.1559199016850221 -1.2413504606457009
Ni 4.136839947125762 6.5828622569660835 5.989846398361788 -0.39048166463460493 1.2265295935827845 0.08894885652658228
Ni 0.7538144749480353 7.320601041779413 11.3155837015987 0.24400694597741202 -0.02179447016727214 0.3184182710094516
P 0.19411348228150213 5.588249777361939 7.997478553280252 0.6527344441960823 -1.321809277423401 -0.6861135338771602
P 8.596218434907632 1.6063629059577975 7.972141227034204 0.2900273785715844 0.9325643134093746 -0.26041264102894507
P 1.8801221059276176 3.4381953689862734 10.443996001994241 0.06813166267091492 -0.7898436624779752 -0.5123103026083435
P 4.177593685189376 6.208143696546283 3.6747139590913767 -0.23880071918612422 -0.66033153981705 1.856988771320434
P 7.031878853869013 3.99933462219061 10.449265694292587 0.18420951420380532 0.15871085571206858 0.14610987911860643
P 6.559746707717273 8.014965298520142 10.462724221809323 -0.07439281308927832 0.0921056569880091 -2.269708935638265
P 2.209144608024643 8.328489772501744 5.622459702032872 0.3458915367290559 0.9047190090623322 0.4208793030898558
P 6.9187223911280755 4.206449580720844 1.5363869058701098 1.496186893138449 0.4764457275012504 0.8167836814019287
Ni 5.486238473517348 3.066025050755141 0.437657421936646 -1.1071231918972932 -0.38284625957653423 -1.2609931745772927
Ni 1.5031092206902619 0.8057242540810432 6.994412438913558 -0.38796224064686086 1.8097118406113413 -0.41258183896775397
Ni 7.032404825566318 0.8756957199299612 9.272487451565555 -0.8036528004469256 -0.639519231057389 -0.3147215388841547
Ni 2.6500177120968824 1.557719592434606 9.128877227550646 -0.5205717712861874 -0.3389251327135518 1.2726991501603113
Ni 6.340616016446876 2.309614270687477 2.4645419546719873 0.45927641481081544 -1.3996118875251766 1.7757393403206385
Ni 4.131226559528661 7.1131052071925085 10.47920890028107 0.6507492954452535 -0.603785010880573 -1.106756552586494
Ni 7.971418469374286 7.2861771010385405 0.08271449048776748 0.33811703498995965 0.05183729638626556 0.12499495151686217
Ni 7.485366210199038 3.5726446169905315 8.287220038066117 0.8439892952824433 -0.7202690967129467 0.16295137615597743
Ni 3.143995820641868 8.374113283004199 12.213570646169106 -0.10408056996169816 -0.17694871887633395 1.1726937787092515
Ni 0.11892854869498487 5.057417376095429 10.307978814223361 0.14351897846297865 -1.3014818787199587 0.5553631679337596
Ni 8.657349042003053 2.381790283426307 5.626203169561279 -0.2776202631564832 1.059417401180898 2.1073692249243576
Ni 3.7393957819913615 2.675998900248252 11.616872078835922 -0.8094701784596511 -0.23680554313296634 -0.1767736267510504
Ni 1.4428310504835773 3.246215699469873 12.632322106130891 -1.698869012225145 0.40177266416739194 0.3971138252391419
Ni 3.126176262276269 8.18599678491973 7.823514321244308 -0.14371232542070733 -0.1526628497457758 0.9192241446570426
Ni 5.772494035536936 7.915774291190412 3.681111769995667 -0.7578755942118108 -0.026316012186709516 0.17717420462357872
Ni 2.9062294080272957 8.409625441049842 3.465922239064043 0.6570014470025524 -0.8050972462029361 0.15568878105629316
Ni 3.595986878177835 4.193137055692499 9.2593209290256 -1.0600825455687226 0.12669470781678824 0.8192511691058147
Ni 7.134660978304482 6.133111113382433 11.3271178981815 0.27905930959585484 -0.6353121349545768 0.29086144443710554
Ni 0.3174892123619779 0.04528616313797822 0.1820088784614506 0.6328253639769811 0.21038462993727639 0.8209542678398507
Ni 4.61510238409437 0.2542311404357332 1.7202530085317 -0.08667214467726364 0.33434214132855966 -0.634144854119353
Ni 6.026774145751384 5.864267028239155 0.49265501767193703 -0.17701608177915967 -0.16071065975091678 -0.4674574079597111
Ni 8.294301612176906 9.173037085778189 11.19295793461076 -0.6417159815983916 -0.8313458954868199 0.4837641155395346
Ni 0.038757766157115854 5.069396834925432 5.732290754059985 0.3142947357593813 -1.1567362269387305 0.23975074180421935
Ni 7.883807907862811 9.094685439834793 2.515190308579217 0.5898437182091325 -0.1548264330559979 0.7804545079535914
P 8.349419818663474 1.9152352509615098 3.5570395808401383 -0.04926027968770871 -0.2789729205296357 -0.7791373318040646
P 1.9120068729573607 3.117125921691604 1.5871948649820387 -0.9855053843827801 -0.33812783362323706 0.8992888391856962
P 4.544386396239439 1.0489780024549151 8.171548886503409 0.7055328189440365 -1.0737682705859313 0.3613451522799648
P 8.54436488033537 1.8219206170775346 12.390693428932142 0.42191777165669914 -0.09112863778672048 0.9833798533993452
P 6.3016759738912125 7.910278793801327 1.4717622143786255 0.3982708216617205 -0.4299619821174143 -0.2895756357461465
P 1.7692327625716164 3.097755653666709 6.062699826372837 -0.4784460457607309 -0.7199867895858374 -0.49399067836354926
P 6.612724753504463 3.8939135707910753 5.942144392807222 1.3384962511607787 -1.2702283200223154 -0.7984892539681152
P 2.3224098924960574 8.531777833510205 10.094169505573287 0.7835611719033732 -0.2937217967040361 0.5138521931741666
