# total energy = -340895.17954135087 ev
CRYSTAL
PRIMVEC
9.04651417521951 0.00000000000000 0.00000000000000

0.00000000000000 9.04651417521951 0.00000000000000

0.00000000000000 0.00000000000000 13.24048793110695

PRIMCOORD
 96 1
Ni 6.482994309764924 1.888830712865553 11.384979116636563 0.1754096565239882 0.8917156548241288 0.17357337464619785
Ni 4.5828554543497315 0.3366298339317312 6.082878754256704 -0.09103684940386257 -0.0781553654555041 -0.45259206081210435
Ni 2.7297946579972003 1.7207374354936602 4.843953228609694 -1.0331679805660658 -0.6781104610670257 0.022886417679870263
Ni 3.179578289537652 4.333388783190627 4.7640598445193785 -0.02823662624819008 0.03736249980885824 0.41637215924812154
Ni 4.9937843080896185 4.454313536359461 2.6849718948846384 1.816563316315536 1.3409159163458646 -0.46548665738658546
Ni 7.438514262181448 6.329284989716174 2.6819802126917054 -0.0635818385167034 -1.0357498823606293 -0.1960605000051204
Ni 5.1691147966932816 4.499518967015902 11.814566405583356 0.4529913531330521 0.42225484328114377 -1.1328424510402684
Ni 5.500361954771384 7.907865503589797 12.432380893548826 0.19622453638681045 -0.28053280881758785 0.8288884350852628
Ni 1.8910018762350838 6.616538950019156 0.5540049011863601 0.6821357801763349 0.2026427812083284 -0.7928328270132862
Ni 2.837131547078386 1.480986720413207 0.3510798308073635 -0.073572374070512 0.9809614737658395 0.4088393412061862
Ni 0.6715706836922481 0.03745075882160062 4.458615153785344 -0.5723777002138852 -0.20341076972260452 0.9075749904538886
Ni 8.545807580642222 2.2631664173148045 1.4323825144320455 0.1597665506700926 0.895445039959574 -0.03886865204073951
Ni 6.835374124639794 0.744569719432898 4.750302810619189 -1.2937955658192943 -0.4479023686459189 0.8260473660920418
Ni 0.7875596588010143 7.386578225079459 2.616041981159051 0.1254181550972098 -0.2297604633607269 -0.012582207540384784
Ni 7.450573265396384 3.7008565215339493 3.8637335789105434 0.841965065763563 0.8328525619393334 -0.08230049797212922
Ni 7.697362168399733 3.909025856101767 12.721777973027818 0.23312038097189533 -0.15737439628883218 -0.4654084958504824
Ni 7.903903130440403 8.754827287529773 6.973831022017589 -0.8009479999212529 0.7250670323222222 -0.5510342015411026
Ni 6.883673463097819 0.7676084767378331 0.4145447454015606 -0.349066849133244 -1.5093830801137489 -0.26231217204450313
Ni 1.7422138598239372 6.642882398902798 9.143497193474948 0.15417362996334738 -0.45333562384634835 0.3901271095086636
Ni 9.362961100821348 4.7529751508665194 1.329411473026425 -0.6087444117683773 0.2272217560992732 1.1598511184186284
Ni 6.3359884566196 2.0477870110573364 6.976770234429092 0.3054606824075191 0.032273772432041194 0.09271218022375645
Ni 3.7546199544719587 4.190417675307016 0.5473864715149066 -0.7758635461487993 0.35645234296403777 -0.3094932006056799
Ni 6.050218124619132 5.599647446357225 4.645517943148605 -0.45329242931323865 0.9745568557910763 0.7501995657237918
Ni 5.248262748026724 2.865736624471956 9.413655956197088 0.15265102267123387 -0.14998170336918687 -0.8367071597987332
P 0.4329245479760439 5.572236508816897 12.476697051875165 -0.8817945390556751 0.41679073484277895 -0.2506995275062392
P 4.038309588243294 6.1949985353106864 12.686823147429774 -0.7943050406834384 -0.31937266450292096 0.19160940621230227
P 2.3799659600815293 8.654293377006452 1.4363014643140488 -0.05134672990309221 -0.9431911969956015 -0.3669668693421164
P 6.267063066151034 7.78072579527568 5.6750456176212065 -0.17431179547411915 -0.42167325974606085 1.1715681497452406
P 4.707670208555641 1.0385669513010813 12.559873415910491 0.6026611816887749 -0.28629696499487467 1.1363085552119978
P 3.7954830583893386 6.2239926128079635 8.332860782010032 0.6530285783977335 -0.1648928161530644 -0.6557182094147546
P 4.533289603926148 1.0833833818538157 3.956999520054361 2.086180249551569 -1.2187358085699784 -0.07912235735446374
P 0.20384510085683533 5.483101205983613 3.6276023740973793 0.2526129424788682 0.019987498865520415 0.10872835314635469
Ni 1.3930184178910456 1.1909464337859936 2.6111695286972623 0.5227662078343448 0.25042827612272356 -1.0506301419065711
Ni 1.7748989150494174 6.429936504922011 4.824144981468339 0.5225582055885969 0.1060052977882368 -0.17211710181564552
Ni 6.037480632851217 5.515089679628035 9.174890406495557 -1.0362761871777442 0.6499296277574356 1.494199173284459
Ni 8.544866743182093 2.1547891791190525 10.018481459304338 -0.5789296423997901 0.7603937326479744 -0.5909217817646597
Ni 2.4378274638795285 5.206657829958087 6.946410133311819 -1.1220499884104547 -0.03508141708416539 0.37138736700731523
Ni 0.5371213920340452 9.018478892703147 8.910133317306533 -0.48313959458165834 0.42698747287012273 0.6578851351590863
Ni 1.3209448405366584 1.3253776324161173 11.202246770245608 0.4170522160342817 -1.04337397456479 1.2592612794878506
Ni 4.155172456608296 6.688847736738576 1.693524616610802 0.4962882161484743 1.114910549152196 -0.8287634794716244
Ni 5.551257642758805 7.716260336228692 8.08572720682177 -0.445733128908742 0.056678169418334645 -0.32446833385827345
Ni 5.087062914353091 3.0403343454384015 4.834909428524193 0.6252102706338846 -0.7944904172213673 0.1233183351453876
Ni 0.7375315315100018 7.499288743500234 7.022979828143943 0.4765843099616437 -1.0422830554934566 -0.2718350239332738
Ni 5.073547422377762 4.66367701078052 7.197528697934573 -0.5813166545747278 -0.04260755025788145 -0.3385037289054171
Ni 7.990975828072633 7.060053347330087 9.096970067117304 0.9072366332778633 0.41545813207428445 0.17024636715549388
Ni 4.823013262561972 0.29801931201023946 10.556680291160514 -0.8999400996164502 -0.28567784335363705 -1.443206998507308
Ni 8.202356675124548 7.232570370067399 4.964984730644195 0.5112651491732808 -0.48881376214830013 -0.6942549320373721
Ni 7.160189211235662 6.0586404291901035 7.0073827332880745 0.08228687112537442 0.4644759567338839 -0.9038479193112885
Ni 2.479531893602602 5.061976930920969 2.588515248239015 -0.8778147284723204 0.685015158606659 -0.22876107556193503
Ni 2.3250626663745155 5.174750774940022 11.426474571885318 0.5178196624623469 0.5007490801333053 0.3227945457002763
Ni 1.01314624684949 3.343166402917768 3.6805109114586365 -0.6737706960410913 0.5022596032405608 0.5043609658542797
Ni 3.8321395332782524 2.6188753493562893 2.752657912929765 -1.7460433559181026 -0.2967955505333534 -1.2247015392351102
Ni 1.1263362305143692 3.2688854761376906 8.196947764380203 -0.770454459318086 1.2376231323927847 1.0139135032118278
Ni 3.7419910208725202 2.711855420656451 6.9445302676943665 0.040484847487923824 -0.25544449839039235 0.8656084162141157
Ni 4.123672494722019 6.934171104467492 6.069241134341838 0.13412262484974322 -0.6310286770878746 -1.1326051382184816
Ni 0.7347813912419293 7.532968915270083 11.272263170307365 -0.255931722439456 -0.7399493487506935 0.3919988726100797
P 0.23193271764733378 5.5073639566381205 7.898506884815714 0.02638234664827069 0.38093130194200847 0.7247600426047648
P 8.557929909455437 1.7722754259779008 7.7570058354635565 -0.6841281280160153 -1.4219694292847702 1.6623038115066013
P 1.7587418409744913 3.2516699599201186 10.490637120064997 0.3036981911904576 0.5181503063288883 -0.6562046621328699
P 4.048143149004462 6.1262450286088725 3.77551197399527 -0.3799419414455456 0.42400036521734075 1.0239004392212108
P 6.854326571552992 3.930954606134029 10.48173987350694 0.6349380394446097 -0.039567734990293146 0.05970384361853589
P 6.230469916860398 7.663220624413859 10.25777623007719 0.43108195465447047 -0.05075460484504807 -0.0720345972697469
P 2.2352398284742128 8.389691887858909 5.719917231909584 0.9865230270140173 0.9125043094347058 0.6099322614288915
P 7.030308409167513 4.1784400907184365 1.6974571362638646 -0.025237434410550083 -0.9296232285031797 0.00354349437688422
Ni 5.688710377078191 2.78668818479295 0.3083576682548226 -0.8581167358227607 0.6132662108981309 0.5245448970013225
Ni 1.7434894183035365 1.2463020531949929 7.145334835182454 -0.7397899403546937 -1.0203068083326816 -1.1215751056565653
Ni 6.8024629065633215 0.5914674204762124 8.909431307817052 0.41322795719218514 0.3167264851293255 1.3397254955821896
Ni 2.924005221401742 1.634524156695203 9.327553044869914 0.03266458011255665 -0.42426313196042414 -0.5679006382791381
Ni 6.274508347205717 2.0756593208136898 2.562696497169676 0.17085443305313802 -0.31511337500593467 0.3573612279315523
Ni 4.182302952213393 6.663291334576388 10.435159372716464 -0.18279695012699487 0.7286277530902872 0.49689885314927973
Ni 8.225986169796276 7.039680597712655 0.3658410277659619 0.728207891944049 0.8799580000675683 0.09122993925127514
Ni 7.615699286163251 4.0749479701041285 8.326201643025401 0.6299277307142119 -1.5899997626255518 -0.5610831011366724
Ni 2.9230101048573736 8.512480222919923 12.267642968234265 0.762372710751216 -0.8429515980465483 -0.07200040159770181
Ni -0.0738276964266874 4.725229492306721 10.429903348059389 0.653873442896532 -0.037922486077386304 -0.4839320085759666
Ni 8.655324679606979 2.2663507902567837 5.6693381719135525 0.4072910228824599 0.13696549361517701 0.36873990208213914
Ni 3.839385791024062 2.657295894482947 11.435359153323722 -1.0986462647745336 0.0058418034927576815 0.045756123189192165
Ni 1.095695687461864 3.4034342794503307 12.730795538222603 0.4203805090765663 -0.7290594413110669 -0.37563174410596595
Ni 3.095617592735083 8.333549221728456 7.821817775998266 -0.21390806970950255 0.32042758812999655 0.9782918973534765
Ni 5.5748419048603335 7.9824087792770255 3.5428238724256205 -0.24962300661260878 -0.5650387433503108 0.6570289578063782
Ni 3.071327702538455 8.357992902663756 3.4703585810133135 -0.3248462860229825 -0.39326154137258723 1.364310641120721
Ni 3.2535606813544184 4.278539768567852 9.218874557756639 0.4613032154328571 0.028701995920382826 -0.05823188705869971
Ni 7.269091147245717 6.170880528880812 11.474246498574827 0.07843330170723911 -0.14771784703567462 -0.2250807984968704
Ni 0.7320981951777507 0.06232414917378936 0.04301165100181172 -0.8940070219614668 -0.5311983977620981 0.6583669598915113
Ni 4.591341084518981 0.37023582428645413 1.8735556739094987 0.13420515726122048 -0.263489737292372 -1.868075368151899
Ni 6.204045049350398 5.654623112176556 0.4380005470037264 -1.0943370958762186 1.2218229321357346 0.26774902678935825
Ni 7.814333594933212 -0.09874631934907471 11.218559444362018 0.5400972429136247 -0.5002160904479708 -0.07130414686162559
Ni 8.921210773748161 4.698080903673546 5.8455959282062855 0.41786854128799 0.3921158578039182 -0.4364061950808613
Ni 7.923968298580484 8.842768450509816 2.5147924913751876 0.35167137663562664 0.40573807657304317 0.1465374535743283
P 8.330799081460382 1.6637263040153938 3.6180827273733907 1.1614791409403546 -0.10292743019386144 -1.4531597388446458
P 2.0342624725679666 3.1487568162043527 1.5967097280092057 -1.0369536728607431 -0.029793686322664818 -0.3018408262667447
P 4.729797981896777 0.8854954104921308 8.25615900807293 0.15277392140234333 1.101394002723 -0.5040488339304997
P 8.543482626534017 1.698672987750802 12.478405033725863 -0.46161663290821786 0.07425474484951729 -0.312536615417694
P 6.329683036333922 7.829540785033968 1.4307803767956122 -0.3561612940861802 -0.22517207265909606 -0.7073475035552721
P 1.7197242259212124 3.2320571174820225 6.103520185341116 0.4093165379529209 0.21861678803908155 -1.14301939157327
P 6.683817874932496 3.927842605304368 5.966640095360442 1.3742011607615559 0.6947683813386809 0.5243150403787035
P 2.3045632655605273 8.664588309983644 10.175711682617344 0.2901407642209971 -0.5084757593536017 -0.5182022426127463
