# total energy = -381167.2468071003 ev
CRYSTAL
PRIMVEC
9.24600947337159 0.00000000000000 0.00000000000000

0.00000000000000 9.24600947337159 0.00000000000000

0.00000000000000 0.00000000000000 13.53246946523823

PRIMCOORD
 96 1
Ni 4.95084981580959 6.778212663870457 1.1625294513783877 3.6689035331203645 -2.96005064866416 -0.8778314406428688
Ni 2.2579495157775744 9.062430092960962 3.1183683768264996 -1.7351094826144184 -0.44639621641403765 0.5227811202326802
Ni 3.909000206512054 7.386359700211422 3.221607470972757 0.5588495838204635 -1.5759324858992083 3.7933279568457383
Ni 2.966480478496041 1.007251041322533 13.362272070263653 1.7720019847653934 0.1959327161780045 0.9463852784528668
Ni 8.7991777072356 3.441891800820663 1.8626631881655615 -0.66834155460572 -0.9510947681133942 0.5002970801975513
Ni 8.897046718998137 0.34985051176862286 5.723977100094216 0.554410059991871 0.2707952698148498 0.4272414978624578
Ni 6.983908639749641 6.8395414456390835 13.124926078875323 0.17359137236832684 -1.086310111806684 -0.012116580757875906
Ni 4.7540022711308545 4.532726769052345 5.586217104453711 -0.298854232834595 0.1376100691777114 0.5067245809904499
Ni 1.5403019875798576 1.2188459713353492 7.072853403032897 -0.1688075778264383 -0.14948470912811032 -0.9759213402387708
Ni 1.1264783352930494 9.276428985473379 9.810296354379606 1.489978193224576 -1.2881509659390074 1.700370793581652
Ni 0.9316279286909045 5.610247483440091 6.4731350290559115 -0.11953289996102638 1.7425101459538637 -0.910163062896039
Ni 8.448125214217178 5.830330250278416 11.402066254474924 0.6501111476406223 0.7390070394420821 -0.03935716164138383
Ni 6.864385473471482 3.810761354364963 5.2708837957754895 1.7990152801294437 0.6192643374630948 0.35950321397521956
Ni 6.703061097729134 6.374014107591661 9.954444418062314 -0.2549184506835932 -0.20610862826974183 0.3973732495481156
Ni 0.8860820853331098 7.310339009166398 12.25656119716426 -0.3330535044241232 0.6862487739034439 -1.25644874973972
Ni 9.335233606617424 6.625450093030531 0.5972450664052809 -0.8132422439075736 -1.3729786012083647 0.39414008732279865
Ni 1.100395342172396 4.377930076097371 8.357897104799521 0.4421004172521612 -1.403179550271777 1.0602900335938383
Ni 7.071653270985019 8.556506938910657 9.369313473453092 0.6117065797204948 2.212807594465531 -0.17812551279325453
Ni 7.43552073332823 5.8651507224841515 1.936104242528323 -0.14021151135630044 -0.04746590679144729 0.19394576765496277
Ni 6.338379986539906 1.5812895481980276 5.72723909228598 0.3519809374562454 -1.070836184540801 1.7813741700089125
Ni 0.12485071701765603 3.6182039581470513 11.348409811483865 0.5653899560421424 0.3390693716008999 1.3897763894919937
Ni 1.125858852648922 4.106864812248311 3.6006790715249717 1.1670548352559191 -0.24622786488813078 0.46538766991487596
Ni 3.1371895539964396 4.0421704829802465 9.662765175779189 1.4072074404842476 1.3580484622610933 0.6397269761928208
Ni 0.37312734097147476 3.3699948300634137 6.0183090225355516 2.385451001098292 0.27934933003244794 -2.2119552737675647
P 2.4563503900714356 3.4857918544671938 6.871206254763615 0.15657015521998197 -1.1435112436080241 -0.6977688587279014
Ni 7.560323371095893 2.028657723363861 0.2571944002263711 0.8035191030825387 -0.300141841297767 -0.471144369892995
P 7.2781813877294494 0.2508081813860892 7.22345610602703 -0.9460237813483902 -0.4921160870486557 0.5554652407292627
Ni 2.0938975671991433 1.571960324497659 4.6633571666796145 -0.5610987848659562 0.8292825851998878 -0.07392950029961462
P 1.7285230052888767 6.864533409625303 2.2847814356769494 -0.2503089769360399 -0.9544019781097562 1.120440992052122
P 9.286507135952467 0.9057760858105971 1.1440457535593527 -0.16006556996775012 0.19556299154341159 -0.3502315588653065
P 3.5112923489821752 3.340000774876104 3.201376277336705 -0.8657701386029606 -1.1601390819726922 0.18244753720737614
Ni 6.1022461470119485 3.4335703921682037 1.7805077697417522 0.18991093546395682 0.03287181102735629 -1.0116252213982835
Ni 8.890546774239606 0.8938126739712445 8.491070155070599 -1.0522013430484332 0.5889803417675729 -0.49602647784665543
Ni 8.53635988396209 1.314190822473307 10.958782966356488 -0.9878718277324278 1.1243791507642635 0.07540197108008304
Ni 0.8983127068503024 2.7150260010379443 0.054968451755262965 -0.5810862837314766 -1.0047539481997472 -0.8543045611655222
Ni 7.869019894073298 6.998702255131792 7.749220272107684 -0.3393712191120349 -0.551972911305288 -0.08291216341419914
Ni 2.9855642423390147 5.766893378317833 4.896168914953318 -0.888670954460534 0.9614082342242604 0.2360943759985547
Ni 8.170217903253874 4.760751858148961 9.020946946227491 -0.19540743980215378 0.6298457125233669 1.1877121064949543
Ni 6.870256689576273 2.2993254087995254 9.285642634053573 -0.2818705537924049 0.21681881559839433 0.18786999377452807
Ni 3.359371165017107 5.3284568484389725 7.521184087799531 0.8114134182289509 0.22228780913276555 -0.15765696052625752
Ni 5.349676440502744 7.361672854542459 8.339465184634324 1.0625083814013958 0.2567123093592224 -2.450298593701296
Ni 7.368570377714387 8.694642322541482 0.9313181873688406 -0.1740300025676422 0.8691295419934968 -0.4332013149903184
Ni 3.978132620394764 6.630498414279688 9.785139811422258 -1.411961153119149 -2.558431736465813 1.2257459213392246
Ni 6.869054708326474 4.039248743942271 11.315837968816219 0.5105879206005981 -0.6071636975448188 1.453981720525309
Ni 5.1440636787100855 8.4739863031071 12.955593734206424 -0.3435577463895567 0.5994976963591289 0.6453312097534757
Ni 5.504537855525014 4.31372578533884 9.692036193014697 -0.9939139201614496 2.1301412285135504 -2.4685511121535813
Ni 4.163847969498431 0.3839534936283245 4.077793508820464 1.0351356458153977 0.1236104124645097 1.5130980670714909
Ni 2.87536105375161 6.409287634268475 0.36527100660259165 -0.5631189006197785 0.21431096157487606 -0.7036775109028526
Ni 5.266554814074288 2.115893824070478 13.196566935166269 0.468550898134206 -0.5742350651375981 -0.5734254247521092
Ni 5.1369165132785835 6.413660996815823 11.742624526581634 2.187298137340517 1.6817125550505163 0.49745626831464645
Ni 0.618533078940195 8.16417101296642 7.6446275621539606 -0.0858938717503424 0.9285593060150396 -1.0663802056519764
Ni 6.152590669359329 0.8246599188673839 2.829612722783272 1.7578565465029468 0.4770679344662816 -1.0437269870288348
Ni 8.13181922532758 8.46814282503115 11.602577068162665 -0.04183853330234085 -1.431398178797838 0.19484899619552248
Ni 1.469061483505191 4.639730838313359 1.061899581145157 -0.001579428671977925 0.36976962889823417 1.785841461751647
Ni 5.334207866418783 2.5688280970238457 4.036721809514808 -1.6734022354126081 1.4264444343369884 -0.5564582007701514
Ni 5.48513972735517 8.659017447499341 6.088799675230535 -0.2827437004259776 -0.20439833044685443 0.5881691587201869
P 8.948639452643386 2.8444331515933023 9.48804795511119 0.8827504752110411 -0.348711008455722 -1.5489688128261712
Ni 1.872788493293682 6.720582285947369 8.662499494719915 1.0189878324109418 0.22985456573642998 -0.8501787119226069
P 5.78199211201724 4.496722807616036 13.242712844548 -0.22228600936055265 -0.13660425362101636 0.13691947086859
Ni -0.06085908448024287 6.237302609441366 4.1936848425223054 1.5524570284850876 0.5455603229107249 0.23317051748354037
P 8.18281096834793 4.403106960275868 3.638028327360094 -0.9484082224201664 0.21090579254806904 0.3574129071050941
P 5.970028209533982 8.060893085579785 2.5982609194275947 0.4856721311955248 -1.6292461097206845 0.1960080495006302
P 6.419097650468763 0.5565136202534147 11.843306174468703 0.33699834800448414 1.195763258934205 0.06441616149254069
Ni 0.013508420045825838 0.6052595075385607 3.331058034377594 0.5710150155384037 0.3399836558850532 -0.38893694585530436
Ni 7.732428594047983 2.1110396690232096 3.9759071058807116 1.0547292516766094 0.7168284464625138 -0.5022925133610252
Ni 5.810608511772087 5.076595546557867 3.4603875184521966 -0.7188835292193297 0.30550259138904806 0.318488976346387
Ni 5.09272058732441 0.9372772405649631 8.610304845848805 0.4542298535258435 0.20364551144122994 -1.1125065676963937
Ni 8.091784003699637 2.7936633128036865 7.282498349618153 -1.9448598214018054 -0.5834298442629887 0.8112282988013383
Ni 3.584197134787334 3.4559179974048644 0.45116736051616224 -0.4702686521562611 0.5018875646131228 0.932249610382433
Ni 2.4421300272853435 2.817887857991957 11.810097281738658 0.7963290130920028 -0.36526505615966126 -1.038913367690275
Ni 2.985906344694727 7.6484378427158255 11.823900649491167 1.4748986731836342 1.210516763094296 -0.3777603604131946
Ni 2.9646035385444307 8.388580912304024 6.625713604304525 0.10605723407209477 -0.4065909114916417 -1.5253185203970827
Ni 5.026288008248942 2.442333439496848 10.752020925568827 -1.3449373788004322 -2.06584462331801 0.5797210279528339
Ni 1.904456076221097 2.11919464950262 2.192273260288519 -0.43544691649138556 0.05387618119316528 -0.06497331954759132
Ni 3.820821012824825 4.845583996355979 12.0168334336994 -1.6943981209379853 -2.079476612279148 -0.14947802425989096
Ni 6.765749042910996 4.795803480595043 7.308142157282148 -1.435718660550063 1.0548768329980671 -0.08255940806047073
Ni 3.5806281750763898 5.2527042916727495 2.487768330739277 -1.0362031678479637 -0.26811926564458344 -0.6868537544772946
Ni 3.861549685173807 1.7420776553827717 6.290812040879564 -0.3101634871998271 -0.7577154144848628 -0.4997574056439973
Ni 7.191537031638118 8.628930932215894 4.397782183339255 0.38327049159814636 -0.04300247170345497 -0.5466527846439554
Ni 4.9238052376890975 8.697147991146833 10.560333578855579 1.026567958751045 0.23426555031993201 1.0753039905041675
Ni 1.7552717111017269 5.597793108490243 10.571145862498007 -0.6053662393247639 -0.1444216927829061 0.7104104587513119
Ni 2.599765245191767 2.161652325649391 8.824104024553563 0.2925069504603285 -1.5676519910579712 0.05786190531379067
Ni 4.300624189716023 1.6278986826614141 1.9590546875918062 -1.1799388903074388 0.5593542913710239 -0.7268202675679031
Ni 3.444684095724044 8.639157018848806 8.819962736847522 -2.2786424906824694 0.1971118240877702 -0.38400119911658387
Ni 4.902215805240771 3.209659777349748 7.615857678639524 0.453233036830213 0.45167134877004794 1.131477966592574
Ni 1.096955826596046 0.6698770949268311 12.285777662943044 -1.007580876125581 -1.0045490312777925 -0.3301705264493733
Ni 1.604829888674874 8.488650474354657 0.908176349906351 -1.713049417490585 1.2403405313239477 -1.5951998187692527
Ni 7.992019559966262 4.5779212640448135 -0.09171116935971697 0.10613616693914625 -0.4230729683070649 0.2709824461249914
P 4.7504055733910695 6.678328022012102 6.366702363189033 -0.4517387116728736 -1.0793236531865218 -0.9277851468531764
Ni 7.077496749060968 6.34447310687543 5.083891572744151 -1.0252338133206536 -0.3456627085477015 1.0122754533877727
P 1.54076428806055 5.0977966466024105 12.57347742268837 -0.1462857425748384 -0.7499367989807084 0.031131431297481867
Ni 8.791031972765804 7.762459633273748 2.4835466027495956 0.4918317230390175 0.5349378101998723 0.7883763339038293
P 1.0825597896272912 7.7880618338944805 5.561601453058775 -0.26227180572487085 -0.436339603508984 -0.46847247948778675
P 3.189392524276202 0.7800432994757803 10.435509675265802 -0.4636814858570466 0.8629504097659783 1.3692443309769127
P 9.318128488831814 6.996788331141725 9.738898668141504 -1.3770597132562736 0.612510563679029 0.15315881554558783
Ni 3.761211988844374 8.481762197192342 1.4994383234905135 0.2175063285837222 4.500464629941784 -2.9975512167127794
