# total energy = -340868.4352432023 ev
CRYSTAL
PRIMVEC
9.23150346142729 0.00000000000000 0.00000000000000

0.00000000000000 9.23150346142729 0.00000000000000

0.00000000000000 0.00000000000000 13.51123845046919

PRIMCOORD
 96 1
Ni 1.525496685356633 0.7353510872468075 2.4895942692042277 0.8349930053211039 -0.2749182908442878 0.2821343489767528
Ni 6.388329510135523 1.4698030260742374 6.592930086759676 -0.9502095372949636 0.0857545179590007 -0.9878728561736922
Ni 1.8447866892684865 2.1571899917341826 8.75649812410934 0.019622916437250074 1.1223194400217575 -2.3824276408909357
Ni 1.8767646166270506 7.728642239714789 12.801290517320156 0.4115027469709623 -0.5598425438613519 -0.9467220929669954
Ni 3.027545352384527 2.8664371571588734 5.27050431793386 0.4998813328163714 0.24111445492096542 0.5298125731581649
Ni 6.828266030401036 8.231620695872806 10.254610478139055 -1.8663568427988957 -0.7354607168517204 0.043684585372144126
Ni 0.032636133542359134 5.844981690138303 7.714876222025097 -1.540027287362167 1.7832027385772191 3.468075693633589
Ni 6.876888358171692 6.634275220495472 7.883605023207591 1.5015283599560205 2.0011122161366313 1.7301467392925043
Ni 4.901291267439334 5.53168293185454 12.51043354350772 1.3190728523288444 0.9579992085427115 0.8609426353073302
Ni 6.131112134271875 7.475523651307031 5.80183364381211 -2.299484110018169 -0.8075822174083188 1.5817804600395533
Ni 2.470867241652385 4.288236366182148 3.459309222797113 0.8193565843354276 1.6907762079146818 0.9887501165723229
Ni 8.280436885212323 2.798179421913716 5.842421794279026 0.4415723126628331 0.3437858032399628 -0.300917800231843
Ni 2.308402015444714 0.7124144941997265 5.6414150418814 -0.24866295669218463 -3.6970404005658977 -1.0620800356147255
Ni 6.825201171312397 4.948390397168951 0.2092310986689151 0.738768955289347 1.2692955237954011 -0.11407393372898418
Ni 5.398924683198792 1.163197107667773 11.315851170991897 -0.24388918945262514 0.1933428439636412 0.9260977318484244
Ni 3.4178810055318043 8.522468438181964 2.27821130712097 0.8261221851940352 -0.6605901927950752 2.5247330586617873
Ni 0.8951179450460175 5.8845294501856715 10.496624491252467 0.9645110415193002 -2.599345958181672 0.6965753526404327
Ni 6.030608758073062 4.110262214465705 11.126518577640931 1.6402761422826009 -0.4842899061360175 -1.1240685615023802
Ni 8.613592607049283 0.3151302885343219 5.802590627080991 1.5788856549902615 -0.2673340507391267 -0.31815987514174243
Ni 5.75218661917748 8.416259992956709 2.112225185562677 -0.48962905896074393 1.3311256697283205 2.4372327616562734
Ni 8.999192499014416 8.208985049832622 9.146392511399881 -0.9515945905679482 -0.3025180548394274 -0.7263502699100199
Ni 2.9119761628343346 0.5288792849079949 11.60189760844563 -0.12663968620913674 1.4495108292381487 2.414749492952093
Ni 4.426459664779083 0.5108427738014237 5.066092987126927 1.2028260793182575 1.2907048427091126 0.07439178464801383
Ni 3.9853322805905753 5.636091233940383 1.6682600372661953 0.18099203570777217 0.4485536290766726 -0.3758870546498817
P 1.0067508215980305 1.851184121040855 6.491041985069009 -2.3368638362182077 2.710548998120764 2.0241629273085073
P 2.717579166784495 0.0907576781871398 0.5896576561964808 -1.5347650105219632 1.1890279970929005 -2.485080477267172
P 3.54723282947759 2.1004993300976516 3.2095942896483343 -0.3975737955946959 0.14663052750876682 0.057417875797836596
P 5.812080612451835 3.101249674564312 12.935848909115315 -1.0085213856619792 -0.9533246858851775 1.2123473885451315
P 5.281435340966561 3.4007473354459226 6.5810943764056296 -0.3600004653266123 0.7915575598452883 1.2581361647444718
P 8.453287552608904 5.57122146039863 12.142698456688166 0.251015001864129 -0.31231652898708795 1.3108363233516651
P 8.228454290248099 5.375227414281518 5.918179202788068 2.4798292561705617 -1.560030212846655 0.8623055770931278
P 5.845517117328487 6.236729763287271 10.12973962588491 -0.731892796994804 -0.7292468747315247 0.43748040198164656
Ni 7.419257638821336 6.739532820882987 3.0554715729539237 0.4817828234434477 -0.008704983973165653 -0.3769144674731315
Ni 0.30295947461124717 9.210289284496023 0.25830946270155675 0.7780327858859762 -2.310939403042962 -2.2572370284235
Ni 1.266082211712576 6.427304916979592 5.958428557084645 -0.5754769079644994 0.7220274741649501 -1.2053956398176466
Ni 3.943328940670983 7.826440785452846 11.144204291622902 0.7108388045379822 -1.8017738167111872 0.5038827406662806
Ni 8.243935521247034 7.278901862966945 5.239090435425645 2.096117049049306 1.078319894512356 -0.7528827689829097
Ni 4.632571438490014 5.7434443855722375 3.958779707709098 -1.3411090061932773 0.15740730640929665 1.4368738572004287
Ni 5.055198890107342 5.780222694635897 7.064904539155066 -2.1303679998123766 -2.21772482926149 -1.2378193075639907
Ni 6.781157669168139 7.244994551423063 0.7202695803398542 1.7138816835838935 -1.3431260366233062 -2.167505785204938
Ni 2.518584882101697 6.841614784142514 3.825017994646919 1.0364103987627633 -1.881412708690753 -1.486793624849007
Ni 6.430646721166602 5.002228524292262 5.143566532095541 -0.22691965147782212 0.5593113539482303 0.11935266562942026
Ni 7.280166578916173 4.311896709086305 7.555997434841331 -0.49281568421884164 -1.1878715148909542 0.46526348563218584
Ni 4.538779365175056 7.212268872298898 8.809935603990342 -0.0891558303310658 1.124763787797192 -0.7005183964485806
Ni 5.1622935596473845 3.9700264481539413 8.952640797429245 1.3939492899227606 -0.5541645196399683 -1.3348558261947139
Ni 3.3478692846636315 7.337558834801909 5.959550184733047 2.0553198125272862 0.9239480324952732 0.5541555207789037
Ni 6.174601746219391 1.5211948048286046 2.8325233835626964 -0.40556092756523054 -0.13262752836145544 -0.6489613503068953
Ni 1.9392618938260922 3.263087158549008 10.82417761374938 -0.4523935716480531 0.16703685907926072 -0.840801641583081
Ni 3.5814263176231216 0.24970754794615546 9.491955373643858 0.4470621321328107 0.8249541330278631 -0.9451817450630688
Ni 3.9474369596301524 1.7374243061333532 7.465310839229439 0.6336622580559796 0.22947018581381773 -0.021871089041478463
Ni 7.703467930272871 3.5878145178922116 3.5371344880406577 -0.34709609856011836 0.37120276180033496 -1.1568796944951303
Ni 6.773172418831776 0.6357717845262254 0.3454631620085628 1.2370297217831598 1.0203448606594685 0.9189315531172884
Ni 1.068288022456053 0.754900641740812 10.242194106228759 -1.4536546762031932 -1.0203335478055588 1.050181998625559
Ni 9.183970268647506 4.288208671672312 1.5153263381941242 -0.2762220972573759 -0.7373389077110398 1.1394614990186829
Ni 1.2469453054151445 4.5089616095837854 12.904746128267602 0.2736247688438449 -0.2879087895666848 -0.4837078083803024
Ni 2.332662406062008 6.321216481296966 8.475329612988247 -0.2729570533528589 -0.021546615822524182 0.13841302469498099
P 8.634040386812336 2.1067305948109976 12.81065310794575 -0.5911259273556658 0.5015309526046524 0.8019574150223736
P 1.8897810362504845 5.442248128087285 1.6130796495661137 -1.0300368911362519 -0.09691824788530407 0.37968817356352674
P 3.94888630564496 2.480578783101926 9.881524812018975 -0.7663581777615254 -0.7677995381937422 0.43212016611099774
P 6.072732107535282 5.124305923654171 2.5881858010739536 1.472185130907213 -1.0470012869047323 -0.9535231750492288
P 2.9486159993488097 5.809708116109124 12.33436846666938 -1.7542292341630046 0.1838387611279479 -0.03094502631828864
P 0.76806938116835 4.196696779667275 8.995336500094766 1.0583231396754547 -0.05599631285996162 0.07970908309586917
P 8.086242982234623 1.4890414789077386 3.973290707713407 0.1390293181227412 0.7189676042927038 -0.35005852362255196
P 1.6361177891492642 7.755995183930558 10.329328419378879 1.2627896043560833 2.8543217444657616 -0.4644253060016066
Ni 1.4852473310600567 1.9010250072443446 12.976246890614684 1.5517517748879468 0.5471284387287931 -0.13066012022243947
Ni 3.7811683540715206 3.3961223523031276 12.054808083419493 0.7588150753069448 -0.4590529859460997 0.851298684459663
Ni 8.402791229672603 1.2559367896089209 7.905885256371533 2.3163914272964687 1.1677109807826793 1.454182009461573
Ni 4.846363822929098 3.374899126264635 1.8634297101404897 -0.026209311405516154 -0.13563623328079222 0.07880791143783847
Ni 4.310059639933779 7.565189242656262 0.32343771833512214 0.10985038256593986 0.43866465209773486 -1.5297621579907332
Ni 8.758896468661233 7.699766097457979 11.417360781048124 1.4951000878321734 -1.2752391429733456 1.5362886462553413
Ni 1.377718780865901 8.308943767337972 7.501520487691112 0.45910157979584804 0.7030766440940601 -0.7202135608846628
Ni 3.762502254441319 5.398158468426632 10.296198400411091 -0.5858345970497395 -0.37254976274653256 0.28001138909647905
Ni 6.725916353546416 9.097424925406587 4.478758900305778 0.39615917463535644 0.7063879678554802 -1.7086078367794637
Ni 5.539160449510555 3.071487307992715 4.51202369922144 -1.4119562680231426 -1.5844618635264585 -0.5336867114015905
Ni 8.81105446218776 3.2222008305261793 11.041100400950384 -0.4962797315080421 1.045107412316129 -0.8887887109853211
Ni 7.877177127474401 5.742696633806635 10.048266993695822 -0.36607006855945984 -0.6359184010800081 -0.7027349444839252
Ni 7.180521732522309 2.9655281133559948 1.109242663603147 -1.2224366544603336 -0.5978714736096156 0.19383778132218873
Ni 0.12714549466209724 5.179150284634895 4.078110734845495 0.5648657081075562 0.21068030680082428 -0.45520224474144183
Ni 4.457495978803186 1.4537309788654442 0.29494468346439223 -0.3633148744118259 -0.12327308372974899 -0.13341351459786058
Ni 2.078953001444393 3.062588138831729 1.6469795759073724 0.40113425925244467 -0.9116956974904815 -1.5627036459137602
Ni 6.356157721208098 1.0590380561704635 9.200598975504025 -1.1722942292779877 -0.39437919991679826 -0.8216554076719333
Ni 1.0119296949375671 4.215695213415521 6.618453347025541 0.7296945037919045 -3.1257307366052105 -0.7471569222427261
Ni 9.027330121008903 1.8054604852998133 1.3345107297683954 0.711372308443949 1.985105042075097 2.5308047187771643
Ni 0.8578485200079126 7.620061298146823 2.3779235434887704 -0.7366380249892733 0.4877799215671471 0.29239510747281255
Ni 7.97886213609293 0.5130555651374075 11.654321469266593 -0.6960112526068464 1.1115058943460212 -0.5244086285337742
Ni 0.17359011080923129 6.354496050617873 0.5863915503363595 -1.276033870960499 1.0521059551211493 -1.4104128347954228
Ni 3.196149528272753 4.1262511781449875 7.700784332269657 -0.1330031665333193 0.09528174072314557 -0.2968577712298565
Ni 0.8401138790585657 2.585476354861558 3.7496926204913357 -1.026652290934735 0.1881939527728501 0.7787578369774588
P 7.163074191324941 8.859012121722326 7.467539324120997 -0.26414562570881606 -2.036555644545905 0.3311030655659717
P 7.5199364135824505 2.7801502960097686 9.249726266504045 -0.162958575244829 1.4372896045816086 0.47026222439835785
P 4.798230764832229 7.924285488707298 4.136398446549298 -0.198744988815819 -0.4351283568097022 -1.3025319172510277
P 6.068716403608903 8.43741859847225 12.591150115578257 -0.9558816479790764 -0.5472953033239606 -2.440982715617009
P 3.5931964843038866 8.81878123043231 7.459919641314485 -0.3825935201357798 0.27311877574170385 -0.31798041214108463
P 1.1594121913233704 8.147835572112317 4.581093806755152 -1.8620039651468383 1.8785065907875518 0.7578272574723788
P 8.35098403327068 9.059418826406816 1.9234326351535371 -1.5234868665049828 -1.6474675178247173 1.4906657062099038
P 2.965325020283856 5.112111107822571 5.649400292217762 0.1591086053711195 -0.1121674607348907 -0.32034762682168055
