# total energy = -340875.3888428204 ev
CRYSTAL
PRIMVEC
9.21118355338444 0.00000000000000 0.00000000000000

0.00000000000000 9.21118355338444 0.00000000000000

0.00000000000000 0.00000000000000 13.48149821107937

PRIMCOORD
 96 1
Ni 4.230042543163501 4.70045767957553 8.017029006859774 -1.782081994709215 -0.3418597898618435 1.3328148845052852
Ni 1.629375443412186 5.544635004947633 1.33058860288249 -0.43045460548311676 1.0593981179071883 -1.4167336348071278
Ni 6.583573592201388 2.232882968820053 2.479813610143585 0.6459063655306554 0.21767396450983803 0.7716027139899163
Ni 5.9144548074110475 0.686767412191269 0.6887201830727915 0.10113922794518711 0.38609407708987054 -0.2844295727688328
Ni 6.655595835232632 0.3237233562394012 10.050038507009283 0.36697998196823894 2.1710096845931384 0.7752364540877617
Ni 7.878104096532899 7.634477506696169 9.530852917831231 1.0597794125060072 -1.306105493534899 0.14420520589672586
Ni 6.3380494985835565 0.1279018871480172 6.119427587213718 -1.1754340604585498 -0.37371678647144024 -1.0301723882728515
Ni 4.562916288995847 2.950471000679124 6.342613639959945 -0.1071095865960091 -0.8299222756664159 0.7641683691990582
Ni 2.018722954690825 7.80234211303987 0.9728142649557119 0.3529754401590308 -0.629402197228045 0.4624303870587649
Ni 8.955840188281806 5.672928367390296 7.93465707815646 -0.5394529244614064 -1.4511578779232686 -0.18564470398843513
Ni 7.876805319673018 0.14375525490362215 7.874853469909836 0.47414484728221573 2.3478897550150664 0.43829904122819996
Ni 3.1686931466892556 8.183952230259647 3.1482940599240687 -0.7184215019812465 -1.9030238592026256 0.7621302557231068
Ni 8.805366296203738 1.7060953899791687 3.050297200813555 0.03791400143695406 -0.858630956455018 0.1262560776174729
Ni 6.700739845092734 9.139373017594703 3.2700051107066557 0.2044788059758027 1.3377776278271993 -0.7258249935341694
Ni 0.4082562285691541 1.4582500781436785 10.690383397084059 0.04882833435661268 -1.0485645176267941 0.2921462246868001
Ni 1.702760941587135 0.4281090921585186 13.196014112070715 -0.6855723166617097 0.8823342136092289 -1.5589652619172507
Ni 6.341365524608783 6.016542353071015 8.18798764970868 0.3820337909775679 2.6775365477504853 -0.07301084514008715
Ni 3.275874476771307 3.8291810526306027 0.4557417212504013 1.1512075838110174 0.3199442207356748 1.1940676163993371
Ni 5.573558120834334 5.234172068335778 2.3534785452924876 0.6116505296715788 -0.510405886496779 -0.5044044174977055
Ni 3.671890884834013 6.9341512325350845 8.93573954385889 0.9162174966202349 1.3259644372423551 -0.019057530852083306
Ni 5.612005600360157 4.537696068837317 10.235665959428117 0.23838728579778948 0.16487456132061928 -0.4092800282880306
Ni 7.641441161349145 8.523135636723326 12.88890496733604 -0.01817050026143967 1.2478334972668832 -2.2084200069207967
Ni 4.776698644605537 9.051314104258125 8.070146217073864 0.24680662020973623 0.8159516724189367 2.0026484502754993
Ni 6.262066446688847 3.326821532175555 -0.04631843574403547 -0.47580320882124505 -1.0831363420643927 1.4189321851203436
P 5.662980289314615 7.69581477697946 9.868281593856564 -1.1427129160764449 -0.8306820366505758 -0.8536489298593943
P 2.9488314100333177 2.110411074288345 5.042350095078153 -1.26007554785903 2.0334081000558593 0.021644060632336915
P 2.5646145279103774 1.4825307575950613 10.971283961681017 1.1568323861969625 1.3531371410024051 0.38236083529968345
P 5.623860393400342 5.027970516667094 12.308162881709695 -0.4078697782040653 -2.19841404474802 -0.2303587590663581
P 7.484804987574198 1.479343688137482 12.222339522585123 -0.8964811945335722 -0.8299798683772285 -0.6987962715511513
P 3.596782895362627 5.955859076809365 2.198886333114756 -0.9652679742899827 0.3319042213110284 -0.06684148310458166
P 6.014331669054197 1.6812344059733713 8.395522059615836 1.5745772574228947 -0.3956043305731509 -0.7038837133763878
P 2.903107095618802 5.396592865288065 10.114588638063683 -0.8172603639280313 -1.4783532073911378 -0.3828886827786954
Ni 8.248071277930768 3.84785212138931 2.0773641115919395 -0.09401855774000582 1.0497186858358953 0.08510222908698246
Ni 9.635542622802662 3.3761934752178204 4.345329714640552 0.07071202180358144 1.4765634624805668 0.7284683446942873
Ni 2.4203029175291895 9.058802796365097 9.561698407694223 -0.7986448057093729 0.11855819475258292 -0.5405744396603593
Ni 1.7669997346425002 0.646123986542073 3.732353092693981 0.12195796446275126 1.2500140498579697 -1.0550678659629507
Ni 7.637323762367822 4.954686341509582 6.012626679006226 -0.6757324477531523 1.8045773475982534 -0.7772691682470744
Ni 4.624511472414435 1.4990556206207744 3.9383906852980846 0.8627642618971012 -1.1213581045497527 -0.8671850166726163
Ni 1.7587188807628367 4.002194710496809 8.23537550384585 -0.4981103569588777 -0.8086574527503685 -0.013779827392911751
Ni 6.687908666611787 6.5487368965697 11.418491521508162 0.024316208147861347 0.8325347735885984 -0.09254505851827287
Ni 0.8798199995515887 4.28153305838855 10.51787359095002 0.6919900472625954 -0.22862506420470305 -0.5373870430713132
Ni 2.8260002793488765 1.8499832859237997 7.691868706009441 0.853282290548595 -0.23272700218821854 -1.134053440629234
Ni 4.779913347613325 6.2354553378364015 0.20333318915686296 -1.543178431396639 1.3436328010563956 1.0508831384576418
Ni 6.939595041926498 7.3080884339798216 4.500501310254357 -0.4175962614632098 -2.3821342780202333 1.1205775176299864
Ni 4.620559874734372 7.238138707214344 6.576477296507402 -0.20774590676284865 -0.28281723397639036 -0.7048867007196054
Ni 3.726660581350675 3.638297698961785 3.2078148848402086 -0.8393533391723286 0.908717588698764 0.18789056259981834
Ni 1.3737927375178336 3.6165132502127264 2.1417512047000993 0.13950291532505008 -2.954267209213164 0.7708360110272209
Ni 8.23399658969036 3.505278999433175 11.748788899342575 -1.1432294507015472 -0.29186777421443283 0.08853130937318947
Ni 7.227472156833198 5.379671921376006 0.4916625731686702 0.18905552944219697 1.0236638977303725 -0.5791520428232413
Ni 3.41865703070753 0.5223487095587824 1.5158190532966362 0.40356009508511786 1.5988034769601112 -0.04940040480999879
Ni 5.074072489601149 7.9559570186585 1.9466205743639708 0.7214127233990866 -0.7684009192231669 -0.3840999294779772
Ni 8.317551234342671 2.777715255948214 9.261142098832732 0.07836053948777473 0.013836648772776171 -0.17864718962467943
Ni 6.409813828479505 3.80290154638068 8.128588412413466 0.4278441644434632 -2.2601256628252044 -1.1409506819696995
Ni 3.6465969752082557 3.8588871191065923 11.530590702409294 0.8887300898332436 -1.1117138965917692 -0.7203050921572046
Ni 3.7700268328139184 0.4365640374045065 6.033994782265451 0.22648282105071962 -1.3015896079424165 -1.0948040082103079
Ni 8.587678398831004 6.345731625541998 2.6195491046099604 0.1667956896027321 0.557353201780595 0.6948925656213709
P 7.636006563141135 1.493823668447639 5.076714257001247 0.797065377037395 1.538537075969886 -0.5821242380776878
P 0.9623475972544198 4.647751288141232 6.0351001242738604 -1.579596565014357 0.5714824420931255 0.7549766753974612
P 0.9087375887282468 7.847366377515727 3.479399258542961 0.10138451118677377 -1.0939812551986967 -0.9492703133101458
P 4.870219789700334 8.265775172432118 4.435210600054322 1.1488239140701892 2.2405726803939414 0.6977644878525273
P 4.825444227176369 2.7403178513303788 1.620152285470354 -1.230595536122042 -0.848713697341306 -1.0962165722871184
P 1.3920493030233876 1.5017637085413762 1.4035992058929205 -0.7185811674875624 1.4970235301071313 1.6924834204137755
P 7.214060673797836 4.880232346059838 3.659161950488844 0.8099255208295149 0.14518993840749833 1.3818437649084783
P 3.9032666007442103 8.489966165287656 13.140280925770057 0.02291598536622505 -0.479589929557187 0.4540030822270181
Ni 1.6075265163793033 2.8403236695411755 12.596963878311756 -0.7993495450858814 -0.02893673763900823 -0.13049711228201397
Ni 2.980950806561 4.47699437020886 5.452268021133282 0.8175115607068889 -1.1310758460581487 0.9700276004621553
Ni 4.117398981323229 6.790502827358941 11.385920776993713 1.015375175359019 -0.15637115183529843 0.02776431459746186
Ni 6.418113104725976 3.262011645749179 5.070552896422707 -0.10541728649525071 -0.38648257077754083 -1.393624302483174
Ni 8.500752461053047 2.1366537358046536 0.46396454467462334 0.8099224355057213 -0.3177143029638915 0.5092419480956649
Ni 4.285936004055379 2.3653766308946693 9.362415375879838 -0.5754995336723185 0.4951733858177408 1.3753992948347151
Ni 2.1033368854345276 7.6115600823884915 5.390320970508685 0.9897947557867534 0.9712517026772434 -0.05381498893792667
Ni 4.2290385241725295 6.2888986239429725 4.3670478428691055 0.773133548812146 -1.5917499125474392 -0.13930494038163105
Ni 5.701022476770689 2.386092582368933 11.398957364864556 0.20195938198805863 -0.6483645972631609 -1.1675731696532343
Ni 0.41584163810186026 7.838247305946353 7.70776352409036 1.618194479892213 1.1254749549316037 -0.7408626045935821
Ni 4.457494294943847 -0.03556345800221667 11.107001537946825 -0.274968684466249 0.13659756875279702 -0.6039459619384695
Ni 8.95584939946521 6.333232049663574 11.618678170414421 -0.4338140088736529 -1.869427511304419 0.2244007417107103
Ni 8.778147249246668 8.95917463667384 4.781941650198755 -0.5315113010168265 -0.8098201055999021 -0.17181962517988472
Ni 0.008651143452480484 6.678282979955226 5.323061830415343 -0.234037493469526 -1.1731786887654698 0.22084439181801965
Ni 1.9162301169611078 7.7877792320790835 11.907910250399762 2.3900188229746324 -1.0434709051539706 0.22098605960220652
Ni 8.364657226267697 2.94043081076941 6.814020820824521 1.1490679117601954 -1.1750998170475826 -0.2570542660796734
Ni 0.8706198695682651 1.388152972443746 5.727156446322837 0.5503178922003684 0.8466174769339097 1.9208757997823822
Ni 1.9480363332530746 5.688467633791844 3.7916307423682705 -1.4848483281971785 0.16223660947713994 -0.9319873578599821
Ni 1.030316919588165 6.670858766132079 9.801547491217216 1.5407448822544823 0.100101273598976 -1.3008234192003532
Ni -0.20493685618739624 6.9392726505073785 0.3604686090722751 1.500027864151094 -0.729931302393059 -0.05689311364261815
Ni 2.2280747310834745 5.483804349751529 12.23230233855425 -1.0026723830803699 0.10720368897171215 1.366135610144602
Ni 8.941295729687825 9.067212606812408 1.4874946643311573 0.7084055125061411 0.02378527534505581 0.8253876210208559
Ni 2.228562923803855 6.029493276936207 7.267632916472055 -0.31064685459414887 1.03859095135385 -0.38584210898006455
Ni 3.88250459335293 1.5357161305663372 12.738735044310285 -0.046565249354048835 1.1047199817724394 0.6438062884685171
P 5.311638120758436 5.1533623563376825 6.284157627845239 0.5299321294551648 -0.5993082060561421 -0.9653317376483826
P 7.661438640517943 7.543830250823234 6.714406477908369 -0.300161895902425 -0.9223392932472568 0.0811355311297506
P 8.096252553075802 4.998844754745519 9.815542042162013 -0.9984087227080096 -0.01898631129451569 0.16351830440304096
P 9.364457495240373 8.336609172804321 11.197961052937137 -2.1924200319481146 2.183061216441034 -1.347446261265215
P 0.3051674272732365 4.670788457833154 -0.49984947297761895 0.4988672897295601 0.6125894965460805 1.5096165362807936
P 7.15052193068113 7.817605043939317 1.3356308046775154 -0.41711546517204934 -0.7495917569364638 0.7547995263896485
P 2.597857688813275 8.347450735670133 7.361585144950133 0.6344922101564427 -0.4405940079099638 1.2469989171807299
P 0.8773173210208829 1.6751550249271223 8.072761272042092 -3.168518778305014 0.4770571358330042 0.8387673847618715
