# total energy = -381173.83730780816 ev
CRYSTAL
PRIMVEC
9.23474295325637 0.00000000000000 0.00000000000000

0.00000000000000 9.23474295325637 0.00000000000000

0.00000000000000 0.00000000000000 13.51597977422180

PRIMCOORD
 96 1
Ni 4.716090852571708 3.074421372157905 10.349469641063509 1.5330027764152179 -0.21703067449888427 -0.154646712945024
Ni 8.820860194523387 6.351933210214412 0.8047561293404021 -2.398770343915017 1.8602124204640544 -2.1979962404843114
Ni 5.018427100437038 6.774154890432216 6.991261849107324 -0.5170395897632128 -0.12085650386845637 -0.7413210322872393
Ni 3.504391001670405 8.854530067143719 -0.012391178025770463 -0.580085353270788 1.050491559446178 0.4972742342108275
Ni 5.1308231562960716 9.27435994894993 1.7869883181924038 1.0596665410772268 -0.8432567879917929 -1.404881363454232
Ni 1.6204018675107257 3.3920041805542724 12.531557199570837 -0.06060398683530207 -0.8429896503733354 0.14212724032177457
Ni 1.154924651540417 3.1008050326286356 6.2936619825034175 -0.597092686462062 0.5385373546256725 -1.018814282947555
Ni 5.154205525323684 4.578336192704054 1.0037260529561758 0.15206969624646713 -0.4452965555919557 0.27472520099687525
Ni 3.2706319545945903 5.336656340836538 2.085366555249979 -0.8210753667987472 0.01717239801422849 2.285958050507276
Ni 4.114576638913499 8.584644705835668 6.1136565269109875 -0.016866436738035468 0.7820974428736531 -0.23454220102008638
Ni 2.091853962138564 3.7436354860299486 8.313314107263471 0.49295015291417676 1.0080912401030961 1.4679613226338524
Ni 5.770994003741637 3.8116401327595457 5.934271646041565 -0.058713454680808554 -0.10014575368366624 1.7049383583476765
Ni 0.5256831223192509 0.7513340651271962 5.87905896517968 -0.06166225289648735 -0.3812814861925756 -1.5401956946192314
Ni 8.146049826452792 1.507193154276324 1.911646265676582 -0.9312479085907962 0.6406808554656579 -1.5316745445220976
Ni 8.583222555428774 4.764046872461279 12.035128819290517 -0.029294892309375355 -0.24938955044556407 0.5872222214258854
Ni 4.72421742632538 4.254953965765293 8.111763996480905 -0.5898460322019777 -0.09870259347923646 0.392833195585917
Ni 3.320619617922579 4.455994318739672 6.035357912268641 -0.5822072847097973 -1.4055567922547019 0.36757724923260565
Ni 2.2557152401898914 8.790247021803587 4.539179959325704 0.9719631269219713 0.5512170069758701 0.19028220276044647
Ni 8.668274537555282 5.675940795052372 7.408081204727518 -1.5311107015988277 -0.2562417974807071 1.0258951010537365
Ni 5.845462970502566 6.665388088533629 9.076236851258262 2.1071900190340163 0.4370947365074537 0.6393963323262796
Ni 6.155380942290355 8.934770748218334 7.941773619565587 -0.2744493216276693 0.20926131496611058 0.5467281179665809
Ni 8.109591061476088 8.723369013708021 0.11398997248390243 -2.6068957455044712 -0.15749395258583196 -0.8350932783443942
Ni 0.9115116042349555 5.387936868170793 2.0414941386716285 0.8539168388088003 -2.212486720791002 2.9544366449114925
Ni 3.050632674442608 1.4968871811978026 9.479040637576242 0.016571531205435978 0.3359745347256601 -0.44689578175827555
P 5.315157859360913 5.873194903436974 3.138154026821083 -0.40160528535159223 -0.5890978411820434 1.0025628540856992
Ni 4.207127232276348 1.383946275507556 3.329121122238069 -0.4337528166184143 -0.12470030309457877 0.4538205339025668
P 0.7962490841791711 8.852627710105926 9.254958677587329 -0.7656619230254491 0.4443339345683702 -0.29691150728592736
Ni 6.859077586158096 2.739615768249492 8.581187218093197 -0.8604335568813956 0.754560670905965 0.6373309651568185
P 6.867527375913336 1.0271712182355215 12.301987955349615 0.20136134339274353 0.058687229428563435 0.15498558434168144
P 8.931917212661647 3.3536799975113842 8.035236605527144 0.7950902555888952 -0.13226320304350123 0.256915426508964
P 8.771555902170139 7.334740723549202 5.214613672542178 -0.8810275789826634 -0.27786323240522465 0.4422258870864319
Ni 3.4382702424927953 6.857886304323751 12.026234838401697 -0.05759553902628146 0.41104200528445983 -1.793758916826511
Ni 6.531558194399284 4.732150070478114 10.104938266392628 0.44923754251757475 -0.24957826941760244 0.9781378882741155
Ni 3.6498012634037345 6.488745926306071 4.80851215953393 0.024715757579125176 -0.15233349143081507 -0.3936839736219865
Ni 8.389376067174975 4.56379147263356 5.377413878634076 0.11738834281419783 -0.7050314538275857 -0.7712545866218783
Ni 7.57270157864538 1.5625000295158076 6.701452529988423 -0.08039402497803574 -0.18326103424760695 -0.42540727286719643
Ni 4.194872728445526 6.743680238855944 0.5460198731378166 1.545083875949468 -0.1995939670796756 0.7980562801957546
Ni 7.2743085659991635 4.0132622745367454 1.3326731359676225 2.2555488420877996 -0.045979552053907906 0.3578674781440095
Ni 4.063369989522458 7.865248999034695 9.008089989487974 -1.8349428472639884 1.5762027088414599 -0.5710911201919778
Ni 4.880580093140365 2.0212635873964344 13.433667835531658 -0.15299323650200103 -0.05072298027616426 -0.09842568566876597
Ni 8.177069327860277 8.449097149521569 2.642306511869293 -0.11730709595430118 -0.369251551611235 -0.7609750590727411
Ni 9.039271098896243 1.9077316581604662 12.797118854252217 -0.9067311543963545 1.4741628234588742 2.2316370684672084
Ni 0.8345354047761614 7.316880730776926 3.464294671464642 0.2657656778107423 -0.11122129477153749 0.5118269352140218
Ni 3.8393535962081495 4.329293646125594 12.323938015753141 2.0445507469362405 0.8588489860030951 0.5348447362654337
Ni 9.38711615978214 3.289960271488269 3.086671258617276 -1.261745222251969 0.6555094358380581 0.5376392682914354
Ni 4.681275871831542 1.9679329471379576 7.546147075430965 -0.002565703844647194 -0.10103175583304534 0.5287535357660312
Ni 2.005592228691909 8.404447167590877 7.220371203132031 -0.2638502059555843 0.49034176875705227 -0.06827513022731467
Ni 6.545511890924056 3.5291124084187935 12.469140495771178 -0.8643316063842211 -0.7560151439643045 0.4619123097717658
Ni 7.954816770440231 6.0422091680275605 3.2411315683944686 0.44969597021123203 -0.8183600247501132 0.5892847603818689
Ni 0.9181375322670692 2.4028246946171707 10.321018321657045 0.6032417367825933 0.2552704347063733 -0.020631817317738662
Ni 3.918680037735478 3.8670578249138523 3.9571547470876665 1.2641682298711647 0.24529481155090016 -1.0192272021152575
Ni 0.7004173866632761 0.9295784552482341 3.1518990181562723 -0.5085228105414532 -1.4690131609371346 1.1205608054594378
Ni 2.068120672880679 0.9251919523698312 12.278186328994256 -0.4850668935113581 1.5375312604131905 0.8827193648627893
Ni 6.42845228989956 3.5581741443310753 3.8927507266155206 1.1552141338672492 0.31690080592366066 -1.524213460258362
Ni 5.718448316629822 8.213371102207649 12.795658841399428 -0.1462626026463868 0.28112313410341905 0.8515815058074043
Ni 4.3992837625791 0.830184917395076 11.393078701664415 0.7303269951695809 -0.72761808087885 0.6268596333118495
P 3.218538769884968 3.6744580269518097 0.7600045652377908 -0.1401397775781006 -1.1700306300547914 -0.36549079901722215
Ni 8.07034340414301 0.8284413979351972 9.297764481360508 0.40785383736446534 -0.6820671317219286 -0.8742576072486814
P 8.497967408958427 2.379931766963359 4.885297199814655 -0.13367551000999559 -0.19722752373002808 -0.5279266689893617
Ni 2.49357451311415 8.77033691610709 10.63952275739502 -0.49087964353839325 -1.4334080101390154 -0.4168084754545919
P 5.4927234958786615 6.564489287587461 11.198691980950853 0.055682895384600875 -0.16345865480969912 0.43283827522394486
P 5.320218498471155 1.0768910740193554 9.445169447560648 0.38106242820323405 -0.39889379995770013 -0.28598714706393974
P 2.58919104112043 0.6038247463322647 2.11549398049314 0.738812921153405 -1.4732922479284625 0.04141018751567062
Ni 6.801508198907647 8.62580395494944 5.691984313895845 0.8007939908418917 -0.023802501736236426 0.3493262734422178
Ni 3.7631484977816645 5.524518715689905 9.881248782977048 -0.49614526281270677 0.18643788931369182 0.37762074951153674
Ni 6.86842314597482 0.7621239387337772 3.7356816019685413 0.2368122280011857 1.4157157350655747 0.20482590490257627
Ni 7.949940826188028 2.724646250005511 10.82374479659646 -0.9143223364800511 -0.34168032686118577 -0.31004804466788544
Ni 3.6595716213939458 7.679649136192293 2.737526869405082 -0.6242283663365895 0.5644283634598214 0.1889531995363778
Ni 5.175547016169977 1.3322778889714213 5.38291501498074 1.1363643481505978 0.5176823655535342 -0.08144586328131781
Ni 1.9620688853952504 5.490063889922913 13.53949706571315 0.16400064335609818 0.19068843705992966 -0.8218202153845718
Ni 5.812291773998938 2.285432642848208 2.0605518775982814 0.396290300896582 0.4428887174814114 -0.4510504273565974
Ni 8.51994609706495 8.278115884692875 7.321294937884034 1.0163714778340174 0.39402798722496657 -0.5169678559850129
Ni 1.5548906013646413 2.3929896934266464 1.4163666874132592 0.2535490811398924 0.5759790444118984 -0.9992962675192855
Ni 1.5070915721044031 4.812289169380808 4.358322136963428 0.6595586662067673 0.048643986259948487 -0.29094526240016344
Ni 8.21765602291413 7.168663107201419 9.307400935578642 0.6271517106309715 0.1649565795114643 0.7667880662100923
Ni 0.7670035768831415 0.06708209591369743 0.8399137190422286 1.8609986638107754 0.8872218807188333 0.5373232797129133
Ni 1.980630718628071 7.390001425074177 1.2852084044004328 -0.6459801561913843 0.3631382396246456 -0.20356683568449455
Ni 1.170725296645569 7.673757370220881 12.491414695650564 0.41772455951095805 0.3530096358310759 0.39625404834200784
Ni 1.6807232081459413 6.895998088279896 9.163361109691955 -0.06196538595920296 -1.0333397302572398 -0.5831506224596731
Ni 6.76406131644044 8.483044064428956 10.740540686524625 -0.7120243402056512 1.2318522913472785 -1.2129449129198142
Ni 1.1118722801317553 1.4385051365719859 8.021625517964033 -0.26769143407854545 -0.17974479356423237 0.5341304838072285
Ni 6.479538887632877 5.8014040121175965 13.031580665262865 0.2525756614830295 0.7682384255033736 -0.7424790571510825
Ni 9.016895316844938 4.915062623136063 9.68386169429466 -0.053219007225140606 -0.7276188522097985 -0.4471788602163331
Ni 1.2550015603683156 6.244782488323657 6.305556331361066 1.1971143736454608 0.267906635413145 -0.8579421579181095
Ni 8.256654342188858 7.111361527495124 11.8488243455647 0.012515615968507478 -0.5773970078053475 -0.1553907901999001
Ni 6.60334908571866 6.268931341012126 5.283788361197446 0.11671908466131511 -0.5845552161166836 -0.32475629741233747
Ni 6.476934690134541 6.920544034913148 1.690321799918177 -0.42208489336218274 0.6516977754014518 -0.7838355086106823
Ni 9.12462782753851 0.28974744634145844 11.382373787692531 -0.19314641168211896 -2.01599736077858 -1.4814626995543971
P 3.096289243349606 1.4277558958341734 6.189048044487815 -1.6827042295398245 -0.5161636149161627 -0.25416511745733644
Ni 2.2504976104503176 2.2018859238147117 4.2656431806742425 -0.27133597280966815 0.6840836479313251 0.9502139081703377
P 6.4369574881122125 5.2529064574592 7.541781812461237 2.3358284529751576 -0.49993609731370675 -0.9922912969563621
Ni 1.4820100103828406 5.584073572664264 11.163753254655804 0.30280730394507205 -0.05705329336956626 -0.10696740459118997
P 0.08490422624007575 4.0457131610940245 0.4718695050070044 -0.5668685974701979 -0.21559779870709966 0.5406574862924689
P 2.7458769239369807 3.713539458912654 10.694546126027417 -1.931307279528351 -0.7122449408568895 -2.24440079589078
P 3.1365988961164026 5.848519670403094 7.515722291466362 -1.0158590569739732 1.4748163978824729 1.9440275553084971
Ni 5.504848713308857 8.124671396634891 3.9388404049646173 -0.15397822612308967 -0.576879958959613 -0.11875334148252453
