# total energy = -340859.9584365755 ev
CRYSTAL
PRIMVEC
9.42520304541048 0.00000000000000 0.00000000000000

0.00000000000000 9.42520304541048 0.00000000000000

0.00000000000000 0.00000000000000 13.79473737108512

PRIMCOORD
 96 1
Ni 4.6042021304823075 2.220841679514769 8.085536498422302 0.4646183958490192 -0.15835964302023695 -0.6402103435871427
Ni 4.944753557155824 4.581845549499533 3.4988831529871383 0.1981983722837296 -0.6352368016319512 0.14141530185641452
Ni 2.1126026508443747 8.492560110188192 3.949529430757487 -0.8368516557963973 -0.3016981300412933 1.532767006255328
Ni 6.993509884400996 3.316596903753942 12.761441801537217 2.0394085406136684 1.7927369033198997 -0.5125347599143237
Ni 7.928452298889711 8.918993984549331 1.083107544635133 -1.160222642825434 -0.027059318110637266 1.4639887111393497
Ni 1.195898003725671 1.079157442152047 4.72417365156727 -0.26374196251249415 -0.2844005193031102 0.6220686396811093
Ni 0.9864322972496317 5.587778591291054 10.008123291237538 -0.3234887435538235 -2.7932930113882155 -2.605770630761093
Ni 0.21633008165721743 3.9658425717208026 1.2718707932154463 -1.1275243812614646 0.8663177835763144 -1.1117987429960916
Ni 3.6388728622463478 7.222221854943994 13.891990161821042 0.3125888088118681 -0.3815707352982203 -1.4731657496529273
Ni 1.27345799736279 5.949253968125514 0.4002487760110779 0.23069480224953817 -0.1406992496259964 0.6754773943195528
Ni 7.978010015081712 2.0460135932375882 1.0738840411993225 0.365954368917202 1.1796848653151037 -1.0864479229361288
Ni 4.731951328897364 4.9196825177737935 7.392751106235406 0.10020488905637581 -1.459778272602428 0.48296990177301335
Ni 2.0573709625817043 3.400556610075422 11.079118507786262 -1.1810820027729467 0.27587165589649265 -0.6912644819504804
Ni 7.808657971616922 8.08453365684702 10.980348980344111 -0.10531572792037991 -0.6369393861453546 -0.45542104562046726
Ni 6.609649650975435 4.115241460910494 8.792448384528667 0.832243724710741 0.27404308732818616 -1.5749932619143905
Ni 4.924536497203022 4.289023349679627 0.9775254806270678 0.3546240315060473 -0.8498709508742008 0.45536910933660935
Ni 1.3937424351798893 7.882730640227218 8.895039831696161 -0.285045866196593 -0.9778998041213802 -0.2295563177697208
Ni 2.13195259214186 8.240294557909971 6.5404158814699285 0.3195032765435143 0.631775582556228 -1.6207231598513379
Ni 4.147767835687708 6.916505977727614 6.392398727007082 0.00952053789592554 -0.5847189953880575 0.13050251159865264
Ni 6.850199676204084 6.166929026218753 6.589235604284631 -0.8627393221964367 0.996862204156496 0.8508754808793152
Ni 7.467437355546366 6.962934526598248 3.2550748351591037 0.48255878237752375 -0.31916980446349547 -1.3421850128662756
Ni 5.042983020478957 -0.17787148425329233 0.9392846054072499 -0.12466765008443047 1.2315327032243304 2.0045955466995413
Ni 3.936605592712133 1.1832870824124537 4.439422252883767 -1.8075508284042805 0.013195158534035339 0.784482912386694
Ni 2.8928020861698602 3.542019478528395 8.781108923069823 -1.3513628227108017 -0.4320864846595849 -0.824401860068819
P 2.987525374060618 4.721856936725126 4.871970256285176 0.8054338036067484 -0.8665571532806302 0.3805862598977639
P 6.013618677877354 6.94604456322509 4.798664799180783 -0.5402836478928179 -0.3388464569568164 -0.20389465133755852
P 9.307811874634647 4.238721042468386 12.53558095483372 0.3149969040327285 -0.09229771839415717 0.4600654863710141
P 6.4778947413809185 3.175727823075807 2.437282036044456 -0.6737074469033236 1.461503997044283 -0.09918801775608725
P 9.064038430056879 5.176340214545258 3.1696306594005303 -0.07579869229786945 0.4741073091760609 0.44791650971330604
P 1.0715890043235614 7.254465473637953 11.040686300950108 -1.304838196786701 2.6353840827521515 2.0446173385081177
P 3.475383294907733 6.402860702087553 8.350450672824842 -1.0367667536609175 1.8034262647129458 -1.0756390052460831
P 6.242622829706382 3.513847547433323 6.536098196078609 -0.39249432418925956 2.1208721445067993 -1.041552090864703
Ni 7.619088868199331 3.815350359009188 4.25898711347562 -1.7870228836542579 1.3855132433402655 -0.230460574751545
Ni 2.9158278565496736 8.300417926412969 10.854899531406202 0.2085069532985893 0.06836383328637903 -1.4161085996286193
Ni 5.1311746428465 8.341125377199058 10.155381716876983 0.30551518979453834 1.793749146634498 -0.23390379610513912
Ni 1.625263116149896 6.252943426745226 4.922624123559934 0.18642966178357567 0.21781203274959907 0.9474633420083941
Ni 0.11580746649887944 2.108078553512279 8.771079564796732 -1.1054123798537738 0.4770270539260172 0.5815596238234695
Ni 1.4514058257585611 3.5606342540094147 6.448970679104385 0.26318686133997254 0.7135186653629906 -0.13619956198342995
Ni 9.029796668374578 7.128243158072476 4.986204656440876 -0.7198770034808506 0.004229207589999167 0.30141993667924216
Ni 3.6370632233135094 6.585954691198584 3.677690559876008 -0.1546037755222305 -0.045810116355579175 0.2861293290687589
Ni 7.971751680438979 6.273660022445116 13.142218108614733 1.8940651073474413 0.28260434663463585 -0.17688649817983085
Ni 8.32873123554967 6.613193527218911 8.89492955682369 0.1807110141322436 0.04688895124205473 -1.070834127658272
Ni 4.1781641146377275 3.0843693325757955 5.674934383873603 -0.2983379553198087 1.1888523907469848 0.8784402778714613
Ni 5.339462198975641 2.1698136316898373 13.548900528040162 -2.8095143583430837 -1.2489724959673327 0.789797382621072
Ni 1.7728240907984236 8.73564551496337 12.76760871171303 0.04474105166111649 -1.1982937386655428 1.8552951856680953
Ni 1.8174901267500951 4.785401653835522 2.8624491631526072 0.5091607012357683 -0.008221102358211649 0.3065019791878399
Ni 6.05851091869563 8.120952640370392 13.165600151659449 1.603330418296187 -1.7651659356801666 -1.552895915794719
Ni 2.3755375326641226 3.1665948015866383 0.6480005986802564 1.0662202830353442 2.2701987307904905 0.25429830060109104
Ni 5.343006075219115 6.803290441991915 2.0526159477816157 0.06696181073252984 0.10512340940391572 -1.0193812111946186
Ni 0.5044519328531315 2.08123557600851 2.5015374134441033 -2.066099933861926 1.9222305140380636 -0.5428102709694135
Ni 8.375065532392552 4.52011989652475 6.703387062655907 0.6169215482625311 -1.1402469710344556 0.11757654756560396
Ni 1.1639277159121935 1.1602895876409665 11.571397791255224 0.8841733237004966 -0.5205195778920133 -1.8148658740084551
Ni 6.271445099792943 6.038925347328765 10.321745971062034 -0.21821852415939835 0.019417485294663334 -0.27862453605128146
Ni 0.2822819955564002 3.305013329543222 4.307820031574208 1.3547636208622347 0.9565102827020108 1.736351068331003
Ni 7.4402550707426895 4.967798177941188 1.5379065667482346 -0.38348697848432667 -0.2927476057162248 0.3642142462976437
Ni 7.142908773590688 1.93472079886803 7.467946316496227 1.4175841557328812 -1.0792912572866897 -0.6175494116545172
P 3.463017428866671 1.0330776257840952 6.519709653493092 3.4161777192127167 -0.7680764460042128 -1.5764099397562592
P 7.041116583618531 0.8665512581113108 13.289215456137304 0.10292357353911952 -0.6446508958569995 -1.3168737877949965
P 4.770076274123048 6.954225639233964 11.619762276775884 -1.167778343685505 -1.089499308167943 1.7390301578250629
P 0.39535615325047174 7.189129968000267 6.979295736095718 -1.181246553375269 -1.1439624722128299 0.5198114960813951
P 6.266968128474723 1.902939015110056 9.441517801203629 0.16276008608077774 0.755710211129376 0.4117829972155424
P 6.403445064659616 7.899413249139321 8.612965190600814 0.7423942107467602 -3.658893714292847 -1.1894802541389708
P 5.152155144224095 -0.04159436236723405 3.1574495273338616 -0.6896156334931478 -0.8015846050639872 -1.5795430860686024
P 9.705885313845208 7.825915517898314 0.6125495834818975 0.892420137090321 -0.7101566908692931 -0.7464305855996628
Ni 5.685536794475425 9.243541416910558 7.101226756837645 0.08041845045806796 0.12117274955729454 -0.3595528362662324
Ni 7.385419240996578 0.1470180829686759 9.013232817017442 1.9947240532221002 0.920870422011214 0.8357658789313864
Ni 8.210944476467999 1.1378670302387661 11.152451297978704 -0.3034151127324 0.17093413725113787 0.25580239595044335
Ni 3.074802751758968 8.337628626969458 2.013617286258672 0.7771203013740358 0.04468577294314884 -0.744905150094072
Ni 4.347638685738595 2.103931464291191 2.455187093756503 1.8968128452959074 1.1634262373643962 -2.0584742989958675
Ni 0.86616388227725 0.11933249233680415 1.9061567793375092 1.812614358970117 -2.8396556578131547 -2.0013536427234757
Ni 8.08638099659096 3.400603736089298 10.49786342507886 0.7307604831625737 0.6730279043377958 0.6190578778792436
Ni 4.074402057285553 4.330060682562847 12.363836794904584 1.0022751476419514 1.2721782446598349 0.783604880657115
Ni 5.548079637201912 3.5005580115202917 10.740885680995444 -0.4213426158795195 0.38405030718696437 0.26150253165901416
Ni 1.6688735293907453 1.3602641149223798 7.216136944032325 0.07376957768298262 -1.0732087985380356 2.4056593577253667
Ni 3.5755732004081064 1.6196739709042025 10.358095208084869 -0.5856510202840236 -0.6005690750464366 -0.16651261114467453
Ni 8.922858317687163 9.012190389590506 12.785500574141192 -0.4608278184583354 0.29032896897240323 -0.7304576072101742
Ni 2.711696814844397 0.9904285832263162 0.7489925889367992 0.9793339654647456 -1.2821009030901855 -0.8265883261971764
Ni 0.4933358487000608 2.1946773166108144 13.376466443267883 -0.8376895783166606 0.8727784515999937 0.8547205656570184
Ni 6.768454892534776 1.1774623070973802 2.7430007408216683 0.9760061866430932 -2.187992078083748 0.5475745251272763
Ni 8.858710387599153 9.16975150438352 6.877766509280988 -0.43662319618767387 -0.7052769941794886 0.38112490601005333
Ni 4.603457539463067 8.561137885580546 4.986121714656454 -0.14649605881343158 -0.34979215733504276 0.38231815498720606
Ni 4.1610667968035155 9.346879340137848 12.497286355958082 -0.9304750349805136 0.952919737137275 0.28482629398661913
Ni 3.72910975361611 5.229196751708579 9.94641931622914 0.8272858664848333 0.07210658815826292 2.692174866488951
Ni 5.747441526302937 1.1152276931727363 11.296689888648972 0.9580069218521953 -0.5361611410840121 0.9063578302173357
Ni 1.9727232164576352 5.503102569558659 12.019381449241578 0.4414918371338848 0.573593060678225 1.1924362514435012
Ni 6.263339425406271 2.0732807048662414 4.874604600460846 -0.5037618988177002 -0.7731440903351072 0.6712232470288891
Ni 7.533328948147787 8.93499797886162 4.779490166654917 -1.609826310433176 0.9172400243474783 0.4069770911864669
Ni 3.378143477875997 9.240091792694836 8.273641867848905 0.5199703902567626 -0.050605737972009616 1.519948257224105
P 8.811669200548131 9.042991952259857 3.129418974280418 -1.8591204729514563 -0.6968525175612191 1.9990360503338929
P 6.116240285693728 5.600879623148581 13.64513279089523 -0.7330086557668021 0.5121938316351372 -0.556157638810597
P 3.285097876079225 2.4063390953334753 12.481863896657023 -0.033186256943981564 -2.0386557216080434 0.8878669705019999
P 9.177810052756316 4.28988104313217 8.770665798394901 -0.5483517696129331 0.7093431938290622 -0.38878936453384655
P 1.4176447494177957 0.540759698983756 9.491082115037575 1.2566554664338874 0.22889965802232837 0.12624039388818903
P 9.25820703242877 1.7697797503020338 6.489982563940112 -1.6958428238043117 2.2331311365142312 -1.719387701003787
P 3.3158051867208256 5.573065849758966 1.4790574856604424 -0.6637066269368699 0.7568695215447998 0.333283103936426
P 2.3885348872911227 1.9043622207291113 3.0752749544180054 0.7272797237028249 -0.3042224391250438 -0.2746863773391398
