# total energy = -340893.7495673461 ev
CRYSTAL
PRIMVEC
9.05015996659253 0.00000000000000 0.00000000000000

0.00000000000000 9.05015996659253 0.00000000000000

0.00000000000000 0.00000000000000 13.24582391530192

PRIMCOORD
 96 1
Ni 6.22337877324185 2.100297798082402 11.380878564223655 0.12118971883815902 0.4695590276837461 0.5696896118587608
Ni 4.63878624646688 0.12450757717234942 6.038109326370978 -0.5232755433705956 0.5824505110688549 0.2463088546377113
Ni 2.8356866549454653 1.736553764521721 4.803651202442404 -0.052276440806213194 -0.002823328381408041 0.2507509495694649
Ni 3.0972724816283357 4.35997796516951 4.828023283512739 1.768649523353393 0.574788623648223 -0.4654303502273533
Ni 5.033825733551964 4.651700824887737 2.893073719953633 0.9721490176805323 -0.32960539797452265 -0.047807863511898314
Ni 7.221529977596973 6.041226201499319 2.559729174070359 0.14368532883751384 -0.053490772829288526 0.22714796543854426
Ni 4.866823129767749 4.650822959360881 11.4706588671728 1.4087025369725352 -0.06832038164295332 -0.31570241474018534
Ni 5.630321783810337 7.903450488762472 12.539000397988078 -0.3912889910272487 0.002531251062285963 0.2963880306822896
Ni 1.9734779050119944 6.4605110674137505 0.5856240929654665 0.26757881976008113 -0.45897919528537084 -0.8573127518642266
Ni 2.7413387362086494 1.4261966252179683 0.35877278063385765 0.6547311629111369 -0.5323649072663735 -0.16173935812574727
Ni 0.6875542358094962 0.1901927339493216 4.739117226026421 0.3912051730641907 0.09729568582938082 0.05102637044919599
Ni 8.583253262471432 2.2826766238267 1.349934546366395 0.7817212904811569 0.2317211866315235 0.16754876571867272
Ni 6.762813564254599 0.7836687457921081 5.0002188691455105 -0.36410780262676645 -0.8105688108404686 -1.870896639650778
Ni 1.0128486643099026 7.471884555632132 2.6300380576274405 -0.17207982081980688 0.19514055929401233 -0.17098761619689262
Ni 7.570676102963651 3.8421006554451163 3.901623558229964 -0.37028976306776223 -0.5274078203714142 -0.9249219663727682
Ni 7.735497618170834 3.8863921388310128 12.804049720929997 0.838370149323453 -0.33618562229520166 -0.9979502950143523
Ni 8.114717425452374 8.918869398532447 6.79937259087611 -0.296114979526561 -0.09833569705812098 0.1496618581359229
Ni 6.851206477664909 0.7185012581711788 0.431230172191718 0.3032508192403939 -0.3835142321778363 -0.8519455740150423
Ni 1.989949196340628 6.445886008739534 9.434390951590444 -0.5708622920106232 -0.4422166311150514 -0.33878860713568754
Ni 0.18140412350468643 4.739243023251404 1.3464909604595021 0.19617877075053955 0.13479522543673558 0.8073801286998418
Ni 6.2323927326722455 1.8520247568634987 7.108517008730391 0.8983688984745882 1.0590733875779181 -0.7445917326187113
Ni 3.476202683787614 3.8048230461139942 0.2406147957670957 0.03773788087040597 1.5183603439116948 0.32961491105621943
Ni 6.089662658197587 5.724832605428425 4.851560939824557 0.006931694122826772 -0.0040080927181285805 0.5729184032087036
Ni 5.3807907703416085 3.096141211619501 9.111113803769792 0.46195319031203025 -0.23207214221303904 0.3877246707147581
P 0.43967578156967446 5.407181037107706 12.479645828180544 -0.01504892391332247 0.36185294515431876 0.4941200048525619
P 3.960829705412338 6.0728112601459845 12.917936935259405 -0.09334132916732313 -0.040324667760975715 0.09054911113416662
P 2.5016271464166078 8.394213518915116 1.3881488472648318 0.7926934732219445 0.8189706617509187 -0.12064438785765028
P 6.444673287290064 7.739018130438327 5.918631828165911 -0.5127749009495879 0.052306779823516364 -0.9479521087193545
P 4.584955894366488 0.9713355800657036 12.507356513300952 1.0146336692073041 0.24577997871743473 0.22013733844866606
P 3.975490964726836 6.187123831998716 8.23789553411034 0.46692056161963463 -0.2375275089006554 0.38026127245817737
P 4.697485584685296 1.0378814070653972 3.5929696590515126 1.218784659530043 -0.2113945592590295 1.4009347201016582
P 0.15534418758116977 5.6831747186230945 3.400785889886642 0.24752010133699304 -0.737861098763097 0.5632525979841654
Ni 1.545088578066462 1.0143147902413523 2.4989700194198567 -0.6873052401924163 1.021367645497028 0.4744184126585765
Ni 1.6355087273326037 6.73812472758179 4.785014207808856 1.3518364199131105 -0.38363918779147477 0.39515541596119047
Ni 6.080576297486626 5.6212897240598 9.104742491080033 -0.7905211481609741 0.14666420896017968 0.7604212434518001
Ni 8.506507905072086 2.2213889398280706 10.232478412407156 0.6124272599366034 1.275715568389132 -0.23479211224736338
Ni 2.2282489611616443 5.395008571812643 7.030247604375141 -0.08752266560301701 -0.5321149960390964 -0.03943738006001595
Ni 0.47114228311941403 9.058395716342085 8.919022346237641 0.8413176619875512 0.1845059623983016 0.7502242483141403
Ni 1.3557139785875298 1.0925624742124322 11.20379498713671 0.1945396924852198 -0.6763536262769191 0.24596586947599575
Ni 4.423881145428566 6.868664236441247 1.840599834790275 -1.0393609967506552 -0.545548495836183 -1.069436475979797
Ni 5.965340609306686 7.858914651054667 8.096113011395081 -1.067536944964239 0.5219015458412044 -0.06083692878171458
Ni 5.2004844312534955 2.8149889388638254 4.821268244035984 -0.13316026093647387 0.4386386839558058 0.14749493239159114
Ni 0.7270382741658491 7.327317298663125 7.003650088943426 0.2121023839593315 0.13893598707798652 0.08351508710552069
Ni 4.868352606819693 4.587064581662957 6.894809243869427 1.1169337502298118 0.7306717801035093 0.19679300729577076
Ni 8.24380890870052 7.1751931580351025 9.210391344697104 -0.4098122466424168 -0.6208062280289179 0.3579883199925899
Ni 4.534302148450905 0.15944029002915852 10.390792862523522 -0.4317093038258243 0.5878948220128779 -0.42001618375861216
Ni 8.290860690907977 7.422769336928564 4.64427697858176 -1.097557145475413 -0.7694797541096425 0.03698094809972341
Ni 7.467676231199266 6.0688291897148865 6.9744425073473275 -0.5388191475321495 -0.5688979691954009 0.2813797301989154
Ni 2.767801404255312 4.866071966481882 2.355279722961699 -1.2179968735214248 0.7859376425553496 0.38120075355331123
Ni 2.512098181618382 5.051545946970352 11.491428079518998 -1.578936305722539 0.6815886494236133 -0.022885646348921873
Ni 1.1747288774941158 3.344839610361726 3.6582710890414885 -1.112409379996897 -0.012512016424081677 -0.2586532351356771
Ni 3.8759120534691682 2.6323024076771238 2.4755382499808647 -0.6828101805355401 -0.08538067955934973 -0.43516563780554085
Ni 1.1119117164435415 3.4241914138614287 8.217112746524036 -0.24507138268618442 0.4695613416765913 0.023448717941243487
Ni 3.5273903891473672 2.792191585645788 6.9765358093716765 -0.36399724519083115 -0.7933326494678401 0.3709975877680643
Ni 4.029511370188712 6.8379117925210835 5.988728032961332 0.10197046559723083 0.3124312001880813 0.6477621877924715
Ni 0.49401746771405913 7.390261161954689 11.618574683367958 1.340038398836918 0.21449171012711446 -1.376672505120184
P 0.21708075951930525 5.501999564168196 8.081157621878287 0.18453244476086283 -0.08880744585271158 0.7362366757857965
P 8.376439004536303 1.5940227935686169 7.985404213282495 0.10028587880595631 1.3433965166758735 0.582274647612623
P 1.7224898157718878 3.2321198666814346 10.343756465588188 0.07858216858027757 -0.15266850617273062 -0.1635869528574473
P 3.857494977725339 6.247823255592752 3.9594948068019127 -0.07439101331706542 -0.006585366527001561 -1.1887796285275205
P 6.851966691110846 4.209709107355977 10.730601032729275 -0.4018284571059918 -1.0710274746160007 -1.3903942255816506
P 6.377937406928886 7.804486988389611 10.339213285232708 -0.8866169001449826 -0.5421551538839179 -0.5584418068590834
P 2.402084435799223 8.637934329618469 5.9228573479029105 -0.0004293742279347444 0.23372536154574586 -0.2514880848458056
P 6.9266395618540075 3.9868851162558188 1.7061551818603216 0.6163607906630547 -0.7652096659793789 0.6183485105170448
Ni 5.6043568745675625 2.9953948297127164 0.30877336129138416 -0.4368864771513895 -1.4985291681183803 0.27126012526641025
Ni 1.4345589731232744 1.3506911397483037 7.0359039544193145 -0.3809647262831052 -0.4751550337142849 -1.139401849425341
Ni 6.652238708511058 1.0085317379561893 9.362519105389156 -0.18067450446735336 -1.2631238477670506 -1.2563662173282426
Ni 2.6059845421915933 1.6533013420315563 9.102596698127277 0.8933889287614937 -0.8271228585444077 0.48661649738666524
Ni 6.4947930737614765 1.9185615337031219 2.5316347621629536 -0.4062813506710229 0.009018144338210275 0.6810870271968463
Ni 4.1177413807177485 6.8766102769833015 10.849773540539958 0.4279243828620953 -0.6468283631242925 -1.393636129557716
Ni 8.234025685664118 7.167210916852764 0.22214432407884946 -0.04192106571381812 0.34660707473884184 2.0260997393199043
Ni 7.766186710970502 3.780514316164154 8.445855542310417 -0.9661771163678133 0.043195561550867546 -0.9598648009965406
Ni 2.8553798032592606 8.336708801826028 12.288535408000056 0.43283621834141583 0.3216378063880138 1.1017637273575929
Ni 8.92932233341408 4.831835210934508 10.421165199720715 1.0927260426353569 -0.08344258199637242 -0.44490754768365315
Ni 8.48520382826571 2.2520599323075974 5.705439922428976 0.6269421657233267 1.1933610772506158 0.4081096621290133
Ni 3.6801751914605494 2.6514163457463953 11.380931055152066 -0.2530294611909965 -1.0790241196682322 -0.5385676936429756
Ni 1.420703178055067 3.0838782447237327 12.495726152594123 -2.376959675797829 0.8298510561088481 0.44816179295489267
Ni 2.8896346591267754 8.29878863112989 8.041990339124407 1.1320163555945473 0.29941576176501983 -0.06585597926286077
Ni 5.5891345053286825 7.84428054222038 3.6349723569555352 0.4599274181312531 0.8983694126952205 0.7711139472789559
Ni 3.130432268127299 8.63663110656829 3.709413543600888 0.175857028474052 -1.5520399955523272 -0.01890609287588357
Ni 3.4396581374222173 4.229194101988146 9.293217504647941 -0.7488147695611233 0.9976211938097077 -0.40867659037607684
Ni 7.23965744821854 6.185883960069033 11.649795020563776 -0.5846428907344835 -0.31840695815554193 -1.258829848377387
Ni 0.6786045325156029 0.1664396838278207 13.584520140153128 -1.0448623861848587 -0.8044102474382404 -0.6171619464081113
Ni 4.652171433211413 0.2809124435138026 1.4653992035961232 -0.18768333168501872 -0.3358002139313249 0.16472235201347113
Ni 5.90930201814905 5.3715505569094475 0.4651827527128727 -0.41389233024906136 1.7136184026201777 -0.4776690583853903
Ni 7.876634864473053 9.07939208770606 11.154931362883106 0.6616464019737314 -0.8231093665096405 0.647419202630756
Ni -0.046961280606746945 4.957560034636363 5.437954296396032 0.5468268483279743 -0.2494476573770091 1.033553903150575
Ni 8.13683601666511 8.747151661351408 2.4096005937379203 -0.5138074559791603 0.3335260731851675 0.054458021838564276
P 8.478850615896093 1.511023775560431 3.5531389995644527 -0.18112084797615258 0.8473983209639923 0.15814726989911473
P 1.78888179005038 3.056763965151982 1.465650798046088 0.06500237301331385 0.021013883247505742 0.9375118872226371
P 4.560511412015588 1.138211481608931 8.190912533119423 -0.1921341683675207 -0.5030162789009273 0.5327791119856566
P 8.466632899800679 1.6815197411319296 12.382938532713304 0.06630283699229227 0.27556312351713835 0.9472658812856072
P 6.456429445221874 7.71727964594856 1.4280989688648247 -0.5033178693017462 0.8331119862483071 -0.3462913432706359
P 1.6003398052979498 3.4718043059932646 5.95071283558445 -0.6543457545472602 -1.6486936769223348 0.48812984870739806
P 6.810806563109403 3.861667101517922 6.065792861011174 0.33516515145048725 0.5514975143307663 0.022316661219329306
P 2.304768064559225 8.428522675743055 10.219590079450503 -0.3836767258976296 0.28280977777722266 -0.2631454665790758
