# total energy = -381163.78896825155 ev
CRYSTAL
PRIMVEC
9.25740144431154 0.00000000000000 0.00000000000000

0.00000000000000 9.25740144431154 0.00000000000000

0.00000000000000 0.00000000000000 13.54914276623262

PRIMCOORD
 96 1
Ni 8.65466107612147 -0.014265655267088022 11.95007280408474 0.4863159354271108 -0.6419394104631072 0.33678726043494256
Ni 0.8154363342442538 -0.19610138134573588 8.525445344269725 1.335643612203332 1.2319440797301364 -0.6180682602724645
Ni 9.150996642081838 4.1119154405672225 13.745333774588378 -1.4742556402829965 -1.0315936941004105 1.3366162605292464
Ni 3.1252338472303998 1.1691727434212515 9.76685821804576 -0.9019962108145304 -0.49489005024936705 -1.047710654266931
Ni 3.6184496689824543 8.17021201331681 1.4136634866401838 0.48168357886142205 1.9626927358181683 -0.4372060652743373
Ni 8.002699338392762 5.825932532297665 12.855561434355034 -0.004822618199623953 1.4936247888382277 0.9339863905678817
Ni 0.9417924548617345 2.726258369812516 7.972111959049488 1.5937733707353714 -0.029215702332007747 -0.3999937178900982
Ni 6.773085022460921 4.870790904888793 9.429376879656223 -0.8457844395096531 0.49350371142480165 1.7624426232117323
Ni 4.940628739629164 0.9047091570882749 5.503390787983424 -0.025023775737847226 1.354256342208513 -0.4486513309968016
Ni 6.036223658220555 9.045277120245274 12.166723764640004 1.8075541708383902 0.04973747643444337 -0.5194942219512924
Ni 3.5127949489543715 1.7524167919561942 3.4571996259780593 0.05322569209335995 -1.3074049290726129 1.6482429625381614
Ni 8.146411234801766 3.203458887468488 10.23691942788734 1.0494312365024636 0.2473763766702772 -0.9814893212448514
Ni 5.189699119227479 1.9130789899836522 7.75283282229025 0.8738932819307271 2.2549852562748454 -1.016417243470288
Ni 4.86933749289857 2.827738001894163 10.093325100473724 1.2825161362507331 0.5024413802340637 -2.4326705962068877
Ni 1.0118987542372424 2.0743429190898643 4.511471357041074 0.23497363213055014 -2.1968747252853587 -0.125890466747938
Ni 4.933880094145902 7.8979425862822055 5.390878185137781 -0.41550235504865857 -0.6827003944305533 1.2022763774623746
Ni -0.12580808246575353 8.382132441852942 1.0098787892928693 -0.07678368191895808 -0.2352790791861109 0.21097881187784953
Ni 0.6076919193946784 7.1688666964608005 12.292892885753012 -0.3265532414117602 0.791968679240778 0.3042612627827792
Ni 1.917568829571282 1.777078508783918 11.869048325720263 -1.0355400803426682 1.087373777184508 1.3888518207951952
Ni 2.1052348669330008 4.114877808954937 4.801003060114964 -2.5453833879222874 -0.6524056001017539 -1.1156862509759562
Ni 7.027598753971661 4.549105470186624 5.633706299099109 -0.45912549105524797 2.2336011341721145 -1.3283164824142994
Ni 6.42029471968775 2.0027554355204993 11.586535584245015 1.3940786164117733 -1.9745064406236448 -1.1800342782347226
Ni 1.7369754467352319 0.40404853328184537 2.3883613741085794 -0.06317123334184604 -0.055214954609246844 0.38208084216541943
Ni 8.890113818537511 3.2687050512079017 5.76269429888105 1.6656411034099505 0.8189344091963445 -0.12057085430723753
P 3.3823211362779677 3.373424773713612 8.063311247085645 0.404811965214348 -0.3416001084425536 0.42638326362722045
Ni 6.304688293357188 0.21565486418489443 3.595495016938151 1.9077598312257145 -1.6482373061112066 1.380753617168093
P 3.718929501733248 4.117608742312361 11.46139588614674 -0.6653652455862153 0.38729195405271366 1.3763971399716102
Ni 3.2957181479433744 1.776847073753628 0.9835711065297216 0.6726988031331511 -1.9305727153551717 -0.9582730310293883
P 6.880415332108305 6.975146318706691 6.645244940429221 -0.9535601989347512 -0.06763441131952223 -0.9325432303634521
P 2.0678442234393155 6.366990603511311 5.092905583639147 -0.04239003493043667 -0.22075106077326498 -0.42967427567366645
P 8.56726195128268 8.911146634090285 3.7565812039411 -0.018629699286045333 -0.5866691771358928 0.41865221353154997
Ni 8.77169314223862 8.328967186694676 6.807902108417779 0.10409008304339493 -2.4889227338313975 -0.18210712314882185
Ni 6.761902081797299 5.074000118884801 3.053936120318958 0.0979150645809346 -0.23278639467124426 -0.36410188908949553
Ni 5.518901563713474 2.8320334360563497 13.582879343686352 -1.2987390258674987 0.01875311223778706 -0.24445046127273387
Ni 1.4497830889475152 8.412107906976129 4.38110122725824 -0.6724774311509645 0.9657497990224078 1.7995827225971395
Ni 3.47749647813451 5.5815834273172715 0.8561948202987217 0.7580401448141332 -0.35853442230404703 1.03993846652068
Ni 4.27119828581415 4.991961029347531 9.549882322707969 0.9667407021807674 -1.300169073445806 -1.704769693980296
Ni 7.19275079158675 2.576214410974772 3.9704132858274295 -0.7323954476628355 0.26738830101582983 0.35804591270340275
Ni 2.842670190048487 7.78053096671538 6.470406883926427 -1.5259805794611139 2.2191232522709137 0.07414958673022069
Ni 2.0962644451589525 7.080708464722658 2.6779338097478007 -0.5224833864866034 0.7524945324055556 0.07030707305567892
Ni 9.362565289371929 5.737070738067439 5.714404916940939 -0.6140578535614909 -0.14456541744962198 0.7752094575045682
Ni 4.762710745743269 5.333161065803768 5.299503006478604 -0.7768428793429331 1.672253980740778 0.9932572604140572
Ni 1.3175503700409057 6.708588708219648 7.913850504524233 -0.9412101620098307 -0.03252368365931818 -0.4024552920567134
Ni 0.9347938595457588 1.4926911435633186 0.5459450533132526 -1.320683905569706 0.834723296599485 -0.30743734651791566
Ni 5.2604719514902225 0.3956965059087326 9.317650230173449 1.73660894997808 -0.09902269582281654 1.5288514732510057
Ni 6.959964180719654 4.061370029951842 11.94287795186308 -0.6643506882787719 1.7867297778938713 0.8831343409130209
Ni 7.621331438079356 9.115401934423204 9.922823210698448 -0.3693286847060736 -0.26678409177292767 -0.884150440882361
Ni 9.0346125940495 4.242111531207278 3.36632527272443 -0.22422384981321386 -0.8862821425133832 0.6874407373290161
Ni 6.511220914388164 8.792050167502946 1.255557257087251 0.2730079611954524 -0.8071464154224808 -0.4709569364725373
Ni 4.83047492261224 6.733648493299471 2.6210544852234383 1.2556257396177923 0.09466081930969504 0.2081475130766415
Ni 7.679662323113699 6.6073405111682915 10.757639914379203 -1.6180692671682586 0.24961015109680237 0.814522653281894
Ni 2.0630303748092795 3.5200434941030605 0.13231973847799866 1.6084255734309072 0.8106870815858879 -0.7321218822864746
Ni 6.52115410588822 6.983709414827428 4.246246812328503 2.473977682485791 0.07053975789177529 0.5954698061466585
Ni 7.8627459468756715 1.493200300629957 -0.06029067687083981 -1.072353649626592 0.06460025247888875 1.0319132822233583
Ni 2.9254406142814746 6.319537164900607 12.310737452328507 0.7239953965245983 -0.17910433176675605 -1.6115718323693726
Ni 4.336370390343871 8.068454659198814 10.885178205131407 -1.6382151459885144 0.7112607225667492 0.6930503702063096
P 8.978077644850211 2.721148284343708 12.142904471322538 0.7675336861268652 -0.6569402547473138 -0.3115122879182377
Ni 5.105169788764285 7.147472842260775 13.279704082706795 0.15071755309394688 0.03845496154208861 0.42166168978183505
P 0.8553764660316155 5.003764215892331 9.497081809157441 -0.688868213804162 0.9955715103695304 -0.5757761843724729
Ni 7.040984956123647 3.355965315028519 1.4839428994183488 2.0073286293599883 -1.2077548840784427 1.3112266168115483
P 4.174837996602522 8.910359754987297 3.7443864293250493 -0.749587900281722 0.09940296198037074 -1.5512105576724964
P 5.249168664610849 3.7564497488438957 4.170372226258042 -0.16230397237996563 -1.877883612491572 -1.7530172161327742
P 3.707616957452663 8.337419194000875 8.773828824698139 -0.9908231970512678 -0.6834241599704551 -0.5011889958842014
Ni 3.2394701781816435 5.347972907742342 3.4648406849381206 0.5902175566087835 0.16309844325680298 -0.3563721245454056
Ni 1.0058907008509086 4.935870435406398 11.84917175957882 -0.14278030052474122 -0.9884896638220848 -1.4522161439844539
Ni 8.157334968231464 4.148010047891281 7.775947627375513 0.8545220764929671 1.7696784788385391 0.6621097147633952
Ni 8.401896993439726 0.9766650852258619 5.961080406845811 -1.4647302172910646 1.1613549566576644 -1.958975434867581
Ni 5.532537715698171 1.5690369313554502 2.164922886984965 -0.35311865060511444 1.4575100453935415 -1.5317221099305813
Ni 2.129600346921953 4.8370661922749045 6.8867446173166815 0.818995601451583 -0.440494506217622 1.3123447895763916
Ni 1.3027848151083907 5.088886020033067 1.7853574026874592 -0.21349772164496136 0.7840347691056819 -0.1416983803144721
Ni 1.8032028950030763 8.950888657491719 11.038919570013066 -0.28768921735671105 -2.408085707778672 -3.1693153060643806
Ni 5.397083421169922 6.0981093853201545 11.1710921158118 0.37348975806229867 -1.3548448677221312 1.3447136928254002
Ni 4.401311059843302 6.560738753469057 7.346371810252659 0.788781539762048 -0.3674075564239608 1.4361889153182623
Ni 6.094174989805221 5.170277091485525 0.6238257182262689 -0.7631255297568406 0.8365919743771075 0.0169062888370354
Ni 0.3612682308027622 1.3028218447132371 10.22602531814152 -0.7275975120535598 0.8231409910785243 -0.32863352097955656
Ni 0.1819671811758527 7.310504934998404 9.846920852424352 2.994097453836224 0.8337650464512737 1.8483974301069974
Ni 9.196691174462336 6.598481178208782 3.5428565079088266 -1.398388813751353 0.9387113068473768 -1.1377663707044468
Ni 4.196268880407395 1.8258279835642461 11.879793391306578 -1.022465506546897 -0.9946538836512676 2.076447852755153
Ni 2.1127333619144033 9.00876592986669 13.082333511654948 0.6095337404388922 -0.4572107905310384 2.781602462424164
Ni 1.7550273790978677 3.003230556662617 2.63288266675151 -0.7311600325938375 -0.3803458617521837 -1.619603701534914
Ni 6.279665537882212 9.143331513878625 7.1131639876304344 1.0474535439508024 -0.8342466140733826 0.30475620014132676
Ni 2.717723045895413 6.335071084133686 9.752252816154206 -1.927175773858481 2.4393955736355473 0.7573166363845474
Ni 8.501562174883897 1.27290192399732 2.3910987876468517 0.04667246435587445 0.13765017838702745 -0.20489146803318908
Ni 8.114982357688357 6.580308899630396 8.319241360981762 -0.9458774855785129 -0.9910260570906931 -1.1681002458012981
Ni 1.9684289918278566 3.239572009594971 10.122456290606413 0.8783001527491713 1.2539928320000597 -0.48576829045375697
Ni 3.9493925048962306 3.5789205658088874 2.23326472568954 2.241539158072268 1.3770229464810673 -0.9221906834845344
Ni 5.567502920074416 4.541431084582201 7.5935490513032 -0.3938025014777218 -1.1031883756192613 -0.8784225372596485
Ni 5.828950445092651 7.2919993899764 9.171468459121188 0.7335727558003883 -0.2658237847421873 -0.5578645941993747
P 1.8357704324655133 7.040809065500627 0.5449980211693052 -0.6879217907304926 -0.34350246767158904 -0.09277748624405312
Ni 3.101118317074161 1.2018421122970164 7.025027047915077 0.4656283251707723 -1.1609775187135876 1.8073839638091131
P 4.274318030022462 -0.009365712805783874 13.229274389606562 -0.0027639358983823368 0.8199721064322394 0.16350904843166034
Ni 8.09992982331828 1.9589216407835353 8.28990743376254 -1.401707850822257 -2.6923237333619894 0.00540085930059715
P 1.2233563127127935 0.9538918782453061 6.447237460174014 -2.0249725676939963 -0.7380194787178322 -0.4082572434504711
P 7.669479181780931 6.603915272719996 1.3366132106158488 -0.5689571045681105 0.4601009675946399 0.5418170538182088
P 6.956177903624106 2.664678136952899 6.53308504456974 -0.9909898045361191 -1.4963139056346166 0.7471121850477197
Ni 3.6821220745158945 3.0160335425382714 5.832418267586519 1.8747926322710744 0.5185323722586553 -0.09653232530079504
