# total energy = -340888.9980759066 ev
CRYSTAL
PRIMVEC
9.09361980752948 0.00000000000000 0.00000000000000

0.00000000000000 9.09361980752948 0.00000000000000

0.00000000000000 0.00000000000000 13.30943178549670

PRIMCOORD
 96 1
Ni 6.510422509476959 2.169155694346532 11.464265563770336 0.5629258107723659 -0.5098543848686833 -1.0668244922782466
Ni 4.74131333769177 0.4442624301502239 6.045077431165565 -0.675533958589101 -0.17157768437240772 -0.7393356264260945
Ni 2.598738294041883 1.6002679328236395 4.807380304315535 1.176368399347361 -1.6349279905968104 0.4617338752123725
Ni 3.407115626808991 4.340630261743918 4.9753449183276635 0.4751383215437366 0.3799234295027844 -0.20012284299995212
Ni 5.0367559516101075 4.5902410318336235 2.9814723832141494 1.3645392121917599 0.01220528381694027 -0.5354412321988521
Ni 7.371470088167765 6.107584245634784 2.7244275789320023 -0.8464482983458971 0.11399320108971982 -0.20316574359133396
Ni 4.74064950344584 4.596024574031046 11.412358272548468 2.1784792534973065 1.3396743306292798 -0.15838483983121757
Ni 5.484362105763464 7.854323112694093 12.784547308262052 -0.3418273939620113 0.29323380132402405 -1.4412079657994081
Ni 1.64204402221823 6.292430255457125 0.31444827931552777 1.239644790808504 1.365299230286236 0.31125800581558655
Ni 3.1846402182241746 1.8390027336238521 0.6935021805517927 -0.499168880130379 -0.4499705640288573 -1.046783000246339
Ni 0.5940861820088329 9.06985817871183 4.492239091170694 0.04810559725797522 -0.1347456031457228 1.0152013687853163
Ni 8.32695490855705 2.307405996276431 1.2611604846767428 1.3034891389579744 -0.06539009537003578 1.4982509747563293
Ni 7.048764802067237 0.6777502123216426 4.902742367148416 -0.3407058787630584 1.6439687606428397 -1.2144844894927924
Ni 0.7096960987045758 7.359384667443905 2.689010657868635 0.3798630085784942 0.21094950130181087 -1.327861911375384
Ni 7.607640488182327 3.8477287873305586 3.7809570651717306 1.1034699114154223 -0.2682041120489058 0.016391553984145962
Ni 7.673469201967142 3.722173178651606 12.839316361637268 0.5203267451549168 1.5872476538017117 -0.6956412708619374
Ni 8.100341902959928 9.16209476441695 7.025117753120417 0.20577978417541334 -1.5106737739007143 0.2175235549749028
Ni 7.080510628814411 0.47838896656294 0.40423959065447496 -0.12126993725679115 0.1823817169664472 -0.5392078983301358
Ni 1.9252739047354057 6.537466934783774 9.157447924695438 0.6525740073588181 0.5870579279338793 0.37735926832003397
Ni -0.04950839431671037 4.961206158251323 1.403253750337193 -0.0011505686646754378 -1.5978418843777902 0.26614594396829644
Ni 6.402281182728926 1.7056629863898785 7.109020036272178 0.7387507004569019 1.1215792194216232 -0.22087318817342605
Ni 3.298437776492329 4.36722000606037 0.4732019658248742 0.5937700498467323 -0.24909001692727423 -0.055957489202226214
Ni 6.017184571130731 5.944662953167767 5.005890387260277 0.5994048795350064 -1.191607842004935 -1.42292845076393
Ni 5.384959747650214 2.9148507057821407 8.962305209165326 -1.3901921368731736 -0.5584078682973544 0.4342230713866134
P 0.08950486231501818 5.442549641889644 12.424727322280143 -0.9938159611310046 0.05382501624025569 -0.34248225393719084
P 3.8487836472282018 6.1662471870114715 12.69725128619822 0.8305028307602342 0.7127244515964692 -0.2552655496103668
P 2.4773566568544667 8.412562245422674 1.1733661322474715 -1.6527858447138375 1.089931510609355 0.6766202496747444
P 6.8755586255982 7.932400932359298 5.673691270150789 -1.849472665449047 -1.7607130421151356 0.9065313796807225
P 5.08275148059527 1.1842166394015041 12.758914212749325 -1.075456971142264 -0.5551703351966633 -0.08875448112758909
P 3.944866834111798 6.186371367644956 8.142950058566884 1.2210456876500777 0.22270767027900354 0.502252147041393
P 4.632853734250482 1.0905614490064486 3.764985031342244 -1.4577478724359603 -0.775013282333362 -0.1977977944112013
P 0.4406195260554322 5.369218691763834 3.5621891253823366 -0.8037047367307835 -0.6836622441231903 -0.08870460172626013
Ni 1.49833754840397 0.9317413790725091 2.3796602618170613 0.021035737624376674 1.5356954927560327 0.8899418507531577
Ni 1.8330009445510551 6.4465852984299366 4.8310446311399895 1.499572007560598 0.2324884038148512 0.6092118383230992
Ni 6.264640153326114 5.840777440489535 9.136113383265606 -0.6991536548905701 0.3169637979511122 0.4084482764153546
Ni 8.716871138653099 2.3905580557940915 10.120358595019338 -0.325423241572375 0.4340006709631622 0.7266629160544325
Ni 2.330367386289783 4.996862241515621 7.207243861258404 0.4254548382756802 0.9776604344170646 -0.9464490418112668
Ni 0.5807140140822449 0.10011075109623511 9.08821274093082 0.2525712906076553 0.21219700055566681 0.849163383284215
Ni 1.4715659316913725 1.2516367366525907 11.677029895762972 -0.036790686465788244 0.011697748052902435 -0.2594806161329789
Ni 4.064793492130051 6.9852367740936625 1.6126907268423487 0.26786061266655803 -1.0155230137907931 -0.9562400597597596
Ni 5.890228545001459 8.067632152513184 8.019784253173281 -0.5509609251010059 -0.3947712931488943 -0.6348416230760615
Ni 5.385769079813062 2.597456093649058 5.0867581294823525 0.32466630880169245 1.5023827375365157 -0.9280268305503372
Ni 0.7769406890933822 7.574030469374665 7.153793382755243 0.741191962908543 0.17034766862004855 -1.2005259704301712
Ni 5.185236575823183 4.621168432798142 7.087325387497978 -0.7766791000715592 1.0644611342523926 -0.15799891724670853
Ni 8.37389617400217 7.3314217865365565 9.236053174309463 -1.3230308085353277 -0.41792613399880285 -0.21651054032935615
Ni 4.845689905839595 0.4738694375187277 10.694022325665008 -1.361874777985719 -0.29074214525042186 -0.08555654301558169
Ni 8.49719656496892 6.876977230288134 4.744652514884999 -0.06285858719743367 0.6636323220555088 0.3626582146644335
Ni 7.437935355339088 6.170084694570138 6.868291914010212 0.03350327396376811 0.38534331496677504 1.1908912755538845
Ni 2.386856952532533 5.123399961133758 2.533796208188277 -0.34851329062261915 0.4932329742619183 0.8819259224272166
Ni 2.394877525202544 5.093309173191508 11.423139668191967 -0.991091620221306 1.4994948744657597 0.34113345321878025
Ni 1.057751668741825 3.1018791843582263 3.933176985849554 -0.6012540169286033 0.9443394516674317 -1.0362270791073638
Ni 3.505526780363248 2.9652293595144066 2.9237624531932638 -0.5936859747733583 -1.768684747466702 -0.4573989952824445
Ni 0.9622777543853158 3.5832044807569337 8.47281111409375 -0.08686652007625685 -1.7430354223297144 -1.6047962042084363
Ni 3.982468952014852 2.639004842548467 6.8738153786811464 -2.1398785104059725 0.1275783959733222 0.8414251340996929
Ni 4.420563179849806 7.294919996630181 5.908735880033211 -1.2493679316335387 -1.4426285002960186 0.4884103560622944
Ni 0.7213022856645924 7.183068473000782 11.28485390114482 0.4480792605434154 0.473601573184236 0.15405793032108953
P 0.22984942488653082 5.636816641832316 7.813261781816355 -0.06044612110119912 -0.00018820475140612748 1.4925230711336168
P 8.695955813096381 1.8084936391704673 8.022140410065344 -0.7661892562838288 0.6640403561272047 0.6458112347136878
P 1.7944712774276599 3.2862796068100115 10.506718310408763 -0.6384182846837262 -1.0710832675546007 -0.5717552361385378
P 4.170861473562027 6.331787441982982 3.7741823184153156 -1.5183821982885657 -0.4220740947289054 1.034545577639883
P 6.572731992396361 3.994172440706806 10.284078307305434 1.4305587136156783 1.2951219979402016 1.013267642097713
P 6.359841259088405 7.940630658284876 10.44610751566936 -0.09118134540152684 -0.9849286859437038 -1.151287288009017
P 2.525552841832988 8.432277213164832 5.666623708836579 -1.0106034650019886 1.1429561424355026 0.9134247643664463
P 6.764625557569334 3.848838208947045 1.7479810555249817 -0.016172753105120535 2.016623167288037 -1.7783328120794277
Ni 5.3909342558635895 3.2407933205340558 0.008337940001284232 -0.27723716878545157 -0.14970376711745187 1.5230610918214738
Ni 1.5231722240976198 1.0094281730860015 7.126375209674349 0.6162309499534097 0.8448644987985449 -1.3678075985303861
Ni 6.765516732310447 0.7681280621381585 9.27188294571208 1.3742322711098074 0.03162122644970683 0.7813878184011381
Ni 2.752675090139319 1.6350419349666332 9.19844105342462 0.13149264342606387 -0.3799000324640167 0.6507667789467503
Ni 6.212133592558947 2.070080706546345 2.7626789812892953 0.8836837856585877 -0.48343192901109655 -0.42889446008484844
Ni 4.3424671729449855 6.9702413950314766 10.399390862633478 -0.6334503991554897 0.08854776443342169 0.10144493211106399
Ni 8.118829232028103 7.043417753620564 0.470190158944707 0.4104354820487125 0.7314199711234436 -0.26656914754864414
Ni 7.2492427443382725 3.9257429516571127 7.984155450768404 2.6059660346013507 -0.47190233110494206 0.36456365921726247
Ni 3.0266476676926968 8.33198368031047 12.400890216679349 0.206053092441458 -0.059412280520046074 0.010898134969742521
Ni 0.25827789912801274 5.1260007363986375 9.995689614271594 -1.25336188328428 -0.17526104676126592 1.5459508519354537
Ni 8.608638875706992 2.2516530132380694 5.826323131805882 0.5262050583125648 0.887491332330136 -0.19468238871067117
Ni 3.5812493524983706 2.716391547108319 11.617137496988343 -0.36754305356056055 -1.6102726539419752 0.05063016345204183
Ni 1.1816340513762398 3.474081043069715 12.812816644156909 -1.0063907124722218 0.014155979785407878 -0.7832986622706058
Ni 3.2467951096068526 8.252341758038416 7.961502334466517 -0.2082894379711445 0.888490977239244 0.23319648562546935
Ni 5.513925463756893 8.073524818148293 3.7209710021130857 0.11022293541401017 0.6048661597598938 -0.4005783867489746
Ni 2.9696852332199684 8.24383922351862 3.3546818150002826 0.20197326594512957 0.4007385664759227 0.9197648476518611
Ni 3.4350512268569195 4.285513832092065 9.381352850313956 0.2383273790941315 0.34566965052623694 -0.9513282242804391
Ni 7.13480863268361 6.058969754145128 11.574148318711462 0.3264177442751604 -0.3648071426866363 -0.7884804635818614
Ni 0.3991271575988287 9.144180333396632 0.5692896995183738 0.0317693219917969 -0.6499923626745708 -1.384290683787074
Ni 4.973737166345739 0.4312821972373292 1.4574489963025692 -1.2131218048173107 -0.8211890095584762 1.361862693800861
Ni 6.112576642908974 5.658986886922436 0.3973584485463151 -0.9405840983900575 -0.7721277332554509 0.9421735543643645
Ni 7.931637068295488 8.582467437901673 11.684163840501773 0.5640313851317189 0.8863646749248606 -0.09102630788090131
Ni 0.09538479688239783 4.745405466605042 5.804429332757902 0.10328789885707372 -0.7237336582227794 -0.2463178534987758
Ni 7.721765416763544 8.71096937939818 2.7160159806102793 0.3887711097014014 -0.10511209655000607 -0.4070213141608409
P 8.504889767325869 1.5284192427264134 3.4321694587399962 0.29364774893299106 0.6663813455555556 0.15358896110447096
P 1.5987038302167895 3.1798933486847805 1.5361879221277628 0.7608902126684186 -0.6041092269892112 1.5704280111412114
P 4.6182402872202015 1.0172032180212158 8.212265266185804 0.3420443950688238 -1.0793588772998313 0.49869348315585726
P 8.540263948376142 1.7388910731656364 12.310185905911752 -0.1333708342853832 -1.1100035987688819 0.9567542803920168
P 6.178805475965309 7.6864548910519215 1.4881408725140803 1.7032067203685506 -0.6836817845072161 0.5271206281482986
P 1.8444316246487915 3.217722807083016 6.119224078988087 -0.21852037167053337 -1.0183720532038139 -0.08339218837441123
P 6.9112783642011495 4.057291255789054 5.805161369152388 0.19530459567570235 0.11316273476862447 0.6619791027228019
P 2.2065941270930556 8.712788103359635 10.427926641588687 0.8971077723739777 -0.653529686403868 -1.1609176120099296
