# total energy = -340896.2732800678 ev
CRYSTAL
PRIMVEC
9.04237999546819 0.00000000000000 0.00000000000000
0.00000000000000 9.04237999546819 0.00000000000000
0.00000000000000 0.00000000000000 13.23443714115195
PRIMCOORD
 96 1
Ni 6.382003371213791 1.9958250949165144 11.319176366639054 -0.2806135414568522 -0.43126398875828953 0.5762492673541495
Ni 4.606740011876017 0.11804827230159207 5.91623037188365 0.4209890891948427 1.154989419450953 -0.21471745298467534
Ni 2.6408632798750795 1.4144362235336603 4.7482650156503485 0.39854592969997815 1.0505818051671392 0.4838926706975989
Ni 3.3458343601852305 4.260208879021637 4.702711313145487 0.12757608198047704 -0.044345873105226856 -0.34519888153740547
Ni 5.0811303994484724 4.773590009617033 2.7628214773350948 0.30874809490953925 -0.5593519773781787 -0.5219835640320494
Ni 7.388583040004955 6.190955964305479 2.6478539439360804 -0.7854367916595312 -0.24017703070836052 -1.2533652257183898
Ni 5.195317575444221 4.615637713901659 11.5016525014436 -0.5933327051989975 -0.3712654967174703 -0.012777868490958638
Ni 5.465160282608076 7.961444946946568 12.436651785066884 0.3303625878555214 0.04960043663594683 0.34525287470379246
Ni 1.7621157386616735 6.671811653654697 0.4641028717243127 1.2226004337317071 -0.6998946468216527 -0.6551425394169427
Ni 2.4854880624903033 1.6412281590063702 0.3086824424389995 0.6908219950964231 0.019156261213476685 1.3329079584397237
Ni 0.3422124921151032 9.049342740043222 4.887451659928917 1.1559749232926735 0.04058820583500752 -0.4080672389268521
Ni 8.563631292576352 2.4630900869643715 1.2968997499461448 0.3424550002436812 0.08049995442828072 0.8028727277477915
Ni 6.952161606503305 0.5726159542026931 4.745670756797547 -1.9695874060554721 -0.37491286366207044 0.15008326194405763
Ni 0.8966903360604417 7.495201743850842 2.7388799675248356 0.6174524810653366 -0.3553308277650848 -0.22582204753826915
Ni 7.5262261499991965 4.080780930551282 3.8330242367996563 0.23618230772667065 -0.9766204231883245 0.5168855806838517
Ni 7.647186068695359 3.9618465049991682 12.533356423363063 0.3442550295668974 -0.6230729125759076 0.2462296646603437
Ni 7.997542128335151 8.745871421260096 7.006668169552463 0.3917091092838028 0.12178955720568703 -0.07115013778226456
Ni 6.815775387343985 0.8025745311890009 0.4852593284615042 0.12124242645296539 -0.4609915977297093 -0.8050789913704909
Ni 1.9014769008763144 6.597447119651764 9.036712343509262 -0.3714814693830183 -1.0199725649217142 0.33606863710136314
Ni 9.245110269367581 4.957900843345363 1.2938859246563614 -0.2953608749693558 -1.0984279781161406 0.2778650321774376
Ni 6.392420193097471 1.7765021654124842 7.104629698683564 0.5334563405583393 0.4683374965718193 -0.46272529259136436
Ni 3.2671294837307645 4.08054582866849 0.3803297412196709 0.5573565442147047 1.4679245558586462 -0.2793236190008351
Ni 5.866126543708765 5.6812369976535635 4.902168133553647 -0.535538934118981 0.23762983880647462 0.07748302197882784
Ni 5.233847157081685 2.916339389845819 9.21852657608995 0.8412310158110157 -0.49617354494748095 0.26329330501084974
P 0.16657782209978544 5.617578641697745 12.430656687055706 0.09739647307330324 -0.9372203241241474 0.10787834644123358
P 3.960481105602957 6.179535438229882 12.673853308519188 -0.2443537877938695 -0.6102806459072457 0.12854050277627538
P 2.3566612731007375 8.531838284118871 1.3904630653930257 0.7247140198581776 0.9746224189216893 1.6638487873962182
P 6.48948110116988 7.79120405666529 5.877003622739909 -2.2533916865354806 -0.23496154794569213 -0.49093440803572874
P 4.503412734389207 1.176757262411688 12.420241673648047 1.2651637610152147 -0.5585467078680638 1.0800864994944752
P 3.919446784675755 6.002793076651412 8.269140865715853 0.33660651188270413 1.008161174109083 0.3395751075927248
P 4.719010203289005 1.1561315933867986 3.821337864748904 -0.20578518349205205 -0.589264962887527 -0.2198486035636536
P 0.22048306687180463 5.510580157887348 3.425495920455056 1.1055640749402895 0.21061577211147597 1.772793113208121
Ni 1.395546691489384 1.1740355059993726 2.701876739649495 -0.10485318646166458 -0.10259138701068139 -0.7786760758969299
Ni 1.8773789578901985 6.486813599038208 4.748000073913202 0.44993765390839285 -0.06088500841083063 -0.029536833116852356
Ni 5.850465141362816 5.5386748328809166 9.24027078753412 0.7568450960647676 0.6393271696512409 0.501720185797323
Ni 8.572149214637484 2.3205640917121544 10.306622397310957 0.48521267506060306 0.32903435596240105 -0.5522935278695005
Ni 2.630681559874192 4.9820892101325525 6.87563413517869 -1.2907760622666804 0.4891402922497835 0.7369074766005761
Ni 0.7392986679117238 -0.07189686847163451 9.11152628380353 -1.1122553709175362 0.21470716857203023 -0.5832190138037633
Ni 1.4633374151542662 1.196867515770458 11.333601675624324 -0.13397581485923377 -0.6296878467892639 -0.1938400953150339
Ni 4.331019757642378 6.926191890834965 1.538079920645687 -0.6379621709829142 0.4855088661447832 -0.4342688370228843
Ni 5.6204902880923155 7.818973205974994 8.023047065665972 -0.4666161430053384 0.10611585522417208 0.14309371800010195
Ni 5.32616081559773 2.8922414468597033 5.058889761336409 -0.05825862653157708 -0.1382525878577167 -0.3311781417782812
Ni 0.7775289467676336 7.3032139294113625 6.719521059577153 -0.2047821961488344 -0.24784791699005707 0.7797315137446378
Ni 5.110183566733422 4.42118132969287 7.227472240918079 0.2904109871632482 0.3535943046899523 -0.5913205598649751
Ni 8.122372185717264 7.076440078698868 9.219016673091769 0.07875340405081921 0.100317246264524 -0.23186593973950392
Ni 4.7032583771419825 0.2368967952426855 10.362260162111546 -0.4229444131490006 0.3969371904519615 -0.584262110356297
Ni 8.147383409094223 7.012004078053817 4.766475464948561 0.5986176077470208 -0.0027490235000468786 -0.35009066241206804
Ni 7.267216214203961 6.09629128696152 6.929762726739361 0.41323567050166893 -0.5777165959282954 1.248910789491462
Ni 2.481021126717267 5.35527727954343 2.522271560529035 -0.870845753353655 -0.39088609916187517 -0.22688494158514474
Ni 2.255278107337011 5.167783528017309 11.462822712786572 -0.25327602998416376 0.8503512329447291 0.6611764043158485
Ni 0.9732223285751093 3.3238794612845592 3.9256254430031143 -0.15801640074820528 0.23815305829979633 -0.6318812548961569
Ni 3.7619285232055337 2.741260826207104 2.460771620704844 0.07371455607533112 -0.5050847313941816 0.5397203191901802
Ni 1.131310259992094 3.244595872503222 8.119102461070442 -0.3209297245773957 1.3294829919185749 1.1238590165947355
Ni 3.637414949127179 2.6753237904642306 7.005305482870284 -0.08481760796702813 -0.8161509329139364 0.022624422267735228
Ni 4.001497341769944 6.9129357615975735 6.243822239603162 0.2494707973054607 -0.8315091605375614 -1.0414926983816775
Ni 0.6300350678844325 7.242015100844747 11.228652195146255 0.4007347098211808 0.5602770602956093 -0.36036993285088903
P 0.21794034958561487 5.635374045749031 7.94254185133213 -0.01915574699284443 -0.9865711066431332 0.42826274003812054
P 8.582466570339983 1.5346637094411262 8.017012181182318 -0.14216272154540033 0.8715967725870667 0.3087192985541328
P 1.697625483735978 3.276343669060165 10.37239757444991 -0.8863392210035639 -0.7014118547971274 -0.13775250829284663
P 3.9100788788845295 6.332044221120625 3.7845326649979136 0.5649235579286851 -0.49666411143065436 0.8962456814839984
P 7.000547382457791 3.939683631356028 10.39363902956011 -0.5835136622260467 0.2560314812421139 -0.7314955615563854
P 6.267581093335251 7.712481095450609 10.264643147662536 -0.2178156322940249 -0.5990230707155554 0.05972466955414231
P 2.3269841815883803 8.502730862553278 5.882561973791903 0.6976446744452115 0.45999478103407876 -0.9515817350521417
P 6.8929792287006295 4.018894881096506 1.6774383701462956 0.025810019084568453 -0.011319281667561151 -0.8115908243470797
Ni 5.413564461715477 2.921629182208625 0.2915842058939914 -0.16927757548432135 0.08368555124511394 0.35259465978084437
Ni 1.4518083805173814 1.2541871632710164 6.947298614481566 0.013229868426712697 -1.54561969384828 0.1727233679410767
Ni 7.1192014942265756 0.37587546477878503 9.13803492532627 -0.8245702673258831 1.0844838572312225 0.7462192409198052
Ni 2.790270526388998 1.6194541077078461 9.283084648866451 0.3204599840298287 -0.41397229155737736 -0.47158685674705236
Ni 6.325063503677742 1.996141578220272 2.5742968944767344 0.6866282687300498 0.45760031265997314 0.4315010444697601
Ni 3.905630027871708 6.860110177010373 10.504292443409902 0.7130831204874686 -0.06253925618480197 -0.11376488712899761
Ni 8.363324488438101 7.213269374483448 0.568984534351577 -0.7946392840944058 -0.47797142011715743 -0.625704950882116
Ni 7.778815995918206 3.677481735382894 8.11804359835987 -0.7753477828546452 0.5405921802721722 0.027238524000978894
Ni 3.064290813162452 8.568595559255291 12.562339964321186 0.3229400701392051 -1.1507717818251795 -1.0813928770107248
Ni 0.0706399776367114 4.879919357299486 10.084482766403484 -0.21728418527058707 -0.2802175915700142 0.19799011292766547
Ni 8.42673870013102 2.196249449996161 5.752850839627838 0.4278595910624309 1.6423250543918295 0.572509083585427
Ni 3.5097003724908187 2.780134018288647 11.506721659731786 0.4308675246508193 0.38366798414688114 -0.11650645442987677
Ni 1.0856371980698156 3.2759819738558704 12.557019427866015 -1.2466459047166853 0.8115232043339378 0.2656281237916135
Ni 3.0695715631451512 8.413790011817278 7.963293209440512 0.5636680882550292 0.6689236523614351 0.5717745194122476
Ni 5.692087853782396 7.699270178113756 3.4934286094876232 -0.08310268215845042 1.0210148901432996 0.5067832021425271
Ni 3.223481914952535 8.413690545636099 3.6390995445411805 -0.043101202064848354 0.08836932987402844 -0.47634519736764414
Ni 3.3911728540435364 4.246138935574584 9.555567731021654 0.4326552126788613 1.0501058939719852 -1.3233478255551145
Ni 7.158020432027475 6.220596886297407 11.563496955949882 0.8932284919242294 -0.1877563510147992 -0.9339349685046561
Ni 0.6758681799346111 -0.055063573663772104 0.12027360204601348 -0.48408936008943726 0.5821496919989845 -0.057027582337953395
Ni 4.607969775570616 0.4865406337227172 1.5200548401396743 -0.7130658940962881 -0.4792310035558714 0.005927421228028501
Ni 6.123156198260489 5.608906999174787 0.341120172598134 -0.6348953591321325 0.44724802289137167 1.1228992237846274
Ni 7.95174247309137 8.841566929936292 11.347576674080251 -0.2686157456650277 0.0682476194234889 0.3394462953243444
Ni 0.23318851516065695 4.8646377349180465 5.786466791914962 -0.5123851217103369 -0.4608519868280514 0.27663501642507843
Ni 8.156941204867703 8.834233559669222 2.4701946850147247 -1.1480461553639003 0.6049972860211194 0.057712781330436086
P 8.378940678883511 1.6442392715821212 3.6133061552849344 0.9907856589451131 0.7730433030911847 -0.790966977449141
P 1.807192003496866 3.374688595107818 1.790090149999815 -0.6904646117570045 -1.4493925584927299 -0.8200332986874781
P 4.732139739204893 1.0709342880152475 8.136452980020445 -0.8693077194425738 -1.1450271660319185 0.6188925559459728
P 8.489203461912666 1.5601993908643124 12.496074690180414 -0.015404507480528308 0.958885724912723 -0.42188357598465404
P 6.439928858181544 7.824163532156619 1.3631469393267004 -0.6837758868829191 0.09934665482113858 -0.05979691755297443
P 1.7401337126206802 3.1699329399567455 6.0051522336214225 0.3794534318449013 -0.07648929060699085 -1.31615233624794
P 6.876938046390172 4.104300161210527 6.057401818595784 1.035363445555488 -1.0013960874711076 -0.2805158395367233
P 2.310255778389763 8.400570052100319 10.349091743961196 1.2122615136995445 0.5803864294509746 0.1897201596093894
