# total energy = -340864.6277655544 ev
CRYSTAL
PRIMVEC
9.31876645648708 0.00000000000000 0.00000000000000

0.00000000000000 9.31876645648708 0.00000000000000

0.00000000000000 0.00000000000000 13.63895666442101

PRIMCOORD
 96 1
Ni 5.122805336650379 3.0709807597956433 4.3781185017576005 -0.5219025742824688 0.7584407226866616 -1.2826611464690296
Ni 6.776662684670976 8.940452237277178 4.03567154999626 0.0386112846142948 0.3328028218658978 0.5214174071159342
Ni 5.402918129502094 1.3454434622552558 12.203974548423973 0.11076415262946085 0.0400637007901052 -0.9013467501559896
Ni 3.955611234043402 7.640120922139098 4.073465670025825 -1.0314597396257075 -0.6581381317101569 -1.4399512105741719
Ni 6.467466022545824 0.9380642795710143 10.027469539353945 -0.9514570365488194 0.22589660952994645 -0.6483504561957737
Ni 7.123507162196538 4.253215351030407 13.601190279991126 -0.5287275676241023 -1.5732204862846841 -0.08529711870660794
Ni 2.9486253597443097 7.203490132390032 10.639285678428601 -0.402588732310784 0.9508885656398591 1.1780887244725773
Ni 2.3722037584057514 4.345592280254236 0.4250960209612858 0.8447801666148548 -1.2162212696782408 -0.802372133962289
Ni 3.6114785174786124 0.5186117034133148 10.574119546474376 -0.8595233863623003 -0.43950771682432044 -0.48528440883880286
Ni 6.962236594543196 3.051429988332757 10.990352488914047 -0.7252920038488347 0.022212531541297226 -0.3899072801883736
Ni 8.858717339040298 4.44260063627361 2.4161687654051565 -1.444342654773648 -0.9360833823062266 0.9281047349761242
Ni 3.8388191374064364 8.821610012078803 7.544497334775293 0.5476789119156246 0.3704206322186717 0.38544641620354264
Ni 8.044303768020779 6.62044288829165 3.6393239227256338 1.6921939141978146 1.339142883605842 2.1425020640717487
Ni 5.245281880662159 0.8874708341819283 5.971394550788577 0.4419754616385227 1.9204878203153442 -1.1808444328408438
Ni 5.529336511611492 6.4352790041317105 7.8413084247596805 -0.7691056585996755 1.544550114933185 -1.0862453200070197
Ni 6.353395005635818 9.201974091583395 7.759761765599802 0.2968734549591403 -1.1757276804395689 0.8127892155305549
Ni 4.887618315592073 1.17309288160412 3.112355149794723 -0.01807382678257532 -0.3365792581891945 -0.16530522110013468
Ni 4.663902695711466 4.538695753206539 0.2833510641021224 1.4582363820366049 0.04954952879335337 0.3940562693597407
Ni 5.434126677466445 4.146077496164438 8.265316945706802 -0.05736902483777216 -1.262105176694549 1.2648549715255444
Ni 6.196289926468611 6.815419433247784 11.894656742338375 0.18104191510910111 1.7395880872110618 0.9670415212506377
Ni 4.536189005101907 8.40852774448737 12.207138269544874 0.05232811997975504 -0.7367161865253764 0.46387766102825273
Ni 2.2872911608986874 0.35150292874305317 3.2154523876414802 -0.4900864582131367 -0.7365984300005896 0.7827523028488326
Ni 7.266429079225273 6.161344553262785 5.88085900976354 -0.875366266931828 0.6572621568631069 -0.16664939383285493
Ni 9.07747537530877 4.371293437401348 6.568753555998829 -0.24383339651402522 1.2120961917662736 -0.9267718750973135
P 1.0082811827992548 7.09003415404845 4.021350470118202 -0.23869221863271795 0.232263946508871 -0.542769133318833
P 4.595400445461859 5.229980466581101 6.279116052226132 1.0108256083151237 0.8581208495878189 -0.03328550152600719
P 6.32076068644467 6.366171034079868 9.743561213033766 0.56529713921802 -1.034545577639883 1.4549805941034684
P 2.407708257582871 7.482643092324362 1.8405905124066315 -2.4809934516819916 -2.248333812396599 0.43572073897806257
P 7.90611578421566 8.63464760604454 5.982509975097886 -1.010382350130118 -0.23428611914522232 0.9590225076009031
P 0.333218577605146 1.1657590126139905 2.292122009290661 -0.04669637561527442 -0.7709098016879498 0.24614533247665352
P 5.966610296227545 7.718901771494313 2.4216509955536862 -0.8352765979997938 1.4253424595220614 0.955019299978781
P 3.550394005114828 3.123352225773442 2.6194567179245642 1.7239071861406954 0.7963696365219511 -0.5305877607612927
Ni 7.438136665009422 4.402902692311791 4.255600023297974 1.0615943542275588 0.02219556226043274 -0.6198790882289582
Ni 4.024346453447715 5.524677128517382 2.5080536637742465 0.13285507099122926 -0.24793122073248272 -1.2531186569252224
Ni 3.7057844313034023 3.1163258760675236 12.243022974382475 -0.11715360109557243 0.16483728032478062 0.34510580760296694
Ni 0.3496019004406562 2.8441526720081716 8.028066749814425 0.4743811316627378 -2.3748580560737937 1.2011666893379638
Ni 8.65165435433804 1.4284457126937344 0.20009068384022993 -0.5146502635954298 0.161962786990463 0.4053089594554245
Ni 3.907535719278373 8.685369650407022 1.9034940479303566 2.9222253502862703 0.9027168910306388 -1.285786836582205
Ni 0.4464537011880681 0.6220155286676643 6.979776376262664 1.084776962991609 0.36091680649329455 1.018046551543595
Ni 8.571811165637369 1.014040180303575 11.492088838637113 -0.4877243857388633 -0.8723920147948524 -0.870093962789295
Ni 5.983989795168576 9.521635728137918 0.8089658203058847 0.08197371076032979 0.5404019186382369 0.7840375973191593
Ni 6.306773218396152 3.8545119396673995 6.124123537353795 0.9986462926401123 -0.3306029860011016 1.6036037265622316
Ni 1.6696992505405712 9.126669142016386 8.944195585654986 0.45738254022221225 -0.12194768005010609 0.5372561739204037
Ni 0.13255106213786522 6.898710565438098 6.073658690938107 1.1995445803535083 0.42182701171510584 0.4998944454424939
Ni 7.730307941308694 5.315042164347176 11.410201112634747 1.942173275708578 -0.7197183664157992 -0.23666901755510206
Ni 1.304310428300451 5.184318512258821 11.722041508727495 -0.04705967249196412 -0.10121096172338698 -0.7332117729165436
Ni 5.702208943169167 5.944254576142003 4.019550084490638 -0.5287584208620377 0.2662886401937478 1.036409627431815
Ni 1.1060909527108156 6.413650147808851 8.587509559158045 0.6499010885123453 1.0514657504339893 0.4976784116277816
Ni 7.8605190612566975 5.925570449934622 8.059886608840722 -0.33905934429857093 0.329314091986349 0.6140174872418587
Ni 9.673438429344028 9.18973855157826 4.902768765660881 0.3105316691725233 -1.1059574537239663 -2.4515985434596423
Ni 8.89677518015299 8.263984362141887 13.031872374117848 -1.3964448026511047 -1.8085903254123887 -0.7310044808525799
Ni 1.2334691677376 9.009895682911797 11.361495649275392 0.4455963462205616 -0.642466743721487 0.5518243015425658
Ni 4.329890159227085 2.6275472707291776 10.079065683984883 0.9604008760056686 0.5950993101811171 -1.0861987830398003
Ni 7.609126705797077 1.8894264384926192 2.2724407751011393 0.12415291523154103 -0.8539605475625421 0.45182072986371863
Ni 1.6649653173169552 2.611584224248756 3.2743861287690232 -1.4906325389791233 0.49355333371581445 1.0240981570543137
Ni 1.1022702585736452 9.314032254996745 0.5678138570104995 2.8864206818828353 -0.3593355780491037 1.1902235600628985
P 9.002636364051174 0.7242526443952488 9.324367698576099 0.04745048017247957 0.2897975219489654 -0.2778310936157086
P 5.673768068762719 2.5032535673106944 0.2640696049820756 0.7047841137034702 0.8913042783183229 1.3007000062486114
P 4.812499741348828 1.5062201353006215 8.099508138919797 -0.167431266304202 1.1937955936848732 0.40175543777621125
P 1.7060238011422542 3.2557439370094885 5.52876899875063 -0.010914075809342495 0.5798837787829433 0.8398436485451859
P 7.158033190923893 2.324696688378204 4.391198321979386 -2.0576338053724434 -1.179727031406949 0.21474444956786887
P 5.0678152973736905 8.363881535679608 9.749303436758948 -0.4421094161132257 0.11279121036181866 -0.09150813261332627
P 3.3899714451846146 5.618116397086667 12.569839559616312 0.3856986414236648 0.7596182879345305 -1.2493735880604935
P 6.921727917923002 9.054458022823866 12.607428666789737 -0.19116949046140624 -0.39864337450979087 -1.088403246890287
Ni 0.16016908948989392 4.477928078893154 0.36665337881186183 -0.6894809076874965 -0.28957949240088837 -2.5136868281499547
Ni 1.4948698780833691 1.9224335083312958 10.3090053078026 -0.26695249902999185 -0.3730876375278736 -1.1563364203971505
Ni 5.209078474020923 4.7755415146463465 11.189631508219282 -0.30147958627258403 0.22543252540933434 -0.2861586396447975
Ni 1.6434855612531074 2.1103277909843827 12.554632265073757 -1.4405050261951124 0.2843215864360587 1.2518158789533989
Ni 5.315014208048612 7.759401129348317 5.879903836229247 0.8686590301149815 -0.1956727776483985 -0.18947950435349303
Ni 6.175965697412103 3.6502073097568566 2.2388755111677887 -1.0471910343180353 0.6525968901769534 -0.29219610408812907
Ni 3.2197641807567696 4.785829432518143 4.748743538718882 -0.832643788362637 0.7739678717879832 -1.7504522836190757
Ni 3.719976912208062 5.64050939223696 9.280682254562342 -0.6109105661817608 -1.7522559124867176 -0.05075537617599646
Ni 8.669397285160413 8.1634255562048 8.10827802977953 -0.0855233757848011 0.12573157257257056 0.13065060714074275
Ni 6.9613699492876915 5.977298921045433 1.8803760527706197 -0.4293742279347444 -2.0804734289747784 -1.23182298077124
Ni 3.782394008136762 1.580332282795538 0.7685922657954202 -0.6920083020950404 0.5701084445637342 0.521990763120901
Ni 5.282780595803557 7.019705425625951 0.496581208267743 -0.9059392546226784 -0.2984248586066603 -0.47392913172698375
Ni 1.6259755995854412 6.5820122965314285 13.692830094809466 0.5763086598371752 0.5989598215777878 -1.2722342947087508
Ni 3.820321386522819 3.1331928428682025 6.2719145097158755 0.4676574397856591 -1.4205578936492245 0.6611018423241711
Ni 0.1734390125419197 6.749116411818595 1.7820388406928054 1.1972609265256542 -1.2946275748022866 0.08297566966228291
Ni 9.217955775596192 4.712565292746354 9.477014679998863 -0.9306943500801714 -0.4750002533039755 1.4389477090103218
Ni 2.6337162939457794 4.97842969209628 7.242163012071147 -0.9726660665262667 0.062333825042215234 -0.019213339703657233
Ni 1.7643592774805137 4.860873456631881 2.5039757716902815 0.938052075996823 0.9591767737905803 -0.005480306388280884
Ni 0.5793812414799374 4.985353535374128 4.4483316774793655 -0.11121538123426652 -0.14610447980196772 0.6852090197850199
Ni 8.244880891456035 8.487746575853434 2.031740771965883 -1.1315026491829223 2.7779874913793963 -0.207956480111758
Ni 7.6811328121334554 8.273890210599964 10.335082943103718 -0.7577051300722176 -0.2221685099460819 0.251894833365921
Ni 2.7237542128563645 2.599907810214916 8.164388184752044 -0.24603246104787307 -0.5838147384062332 1.4154521969915428
Ni 7.690703185008758 1.6108512420619596 6.653764932427488 -1.2351343045326597 0.6731310055745633 0.32973061069847726
Ni -0.18004508589274912 2.2420485510548778 4.9831151677357175 1.699844488764537 0.7495071676424575 -0.4444100392219443
P 7.677209611568215 3.70490846728171 8.17940444458774 -0.9889794589743097 -0.3515212242110075 0.013325256353996407
P 8.631050562295886 2.917211798923819 12.26584090527095 0.861120041425459 2.751304582771571 1.2499731693177054
P 1.9918676351997255 7.894653701804148 7.228742125006872 -1.707522059914453 -0.727372026306315 -0.39496181189314555
P 7.801214433234863 6.248009078813234 -0.03237246186125871 0.877369670515102 1.2958033402779428 -0.9415711448936751
P 2.8905880839240736 0.36820122587572524 12.80096546236979 -0.2939004883737455 -0.24537220175605484 -0.6357129699374213
P 1.808269303759408 3.97023237819272 9.89695835513468 1.9471226492940528 0.24534237695938393 -1.201772955463395
P 0.03852191566886533 7.074975027888285 10.645273917581152 2.197183771885345 -1.474622793814428 -0.0013603706826363668
P 3.4856751739376377 9.313715416946344 5.290401482792284 -0.4663114672807259 0.04799761092520121 -0.7306252431362901
