# total energy = -381171.1818562056 ev
CRYSTAL
PRIMVEC
9.20440552002160 0.00000000000000 0.00000000000000

0.00000000000000 9.20440552002160 0.00000000000000

0.00000000000000 0.00000000000000 13.47157787411624

PRIMCOORD
 96 1
Ni 3.8378137749562438 7.424825903351938 13.54594162399296 -0.7383637494311284 -0.5679759716017637 -2.265994205790839
Ni 1.870252398938814 4.991567620855828 3.165793671589451 1.4820689656798283 -1.1464839530831028 0.024505184230215863
Ni 1.62381364068088 5.938498470637695 7.800084001167766 0.4553516258351126 0.9055739008634597 0.7145671612321629
Ni 5.140053093636025 3.523971153744592 8.497602149209474 -1.8706860663018687 0.639399417650073 1.4493840738522974
Ni 7.478147025582019 2.054156424859241 1.632311148024711 2.290357979347185 -0.8365780904200366 -2.2762436514329893
Ni 8.216331158454508 1.5307294858193548 9.77728054907376 1.6016432604017512 0.046051028721791655 -0.8051563815756455
Ni 8.281525964039812 8.966103638105468 0.46435582456793806 -2.626725892856521 1.4935000903349054 -1.1554187936788876
Ni 8.425915476282743 4.4093337337876335 9.984810443549371 -0.6185122897884187 -1.3507285315609125 1.2260991909135852
Ni 8.809840442507314 8.602170641065038 4.457570342308084 -0.8799662275976845 -1.5385884980331113 0.16427112340866545
Ni 0.8252642538947805 2.484904202888478 11.407907290855055 -1.3526203492669866 0.450079835913212 0.5564132064648288
Ni 3.6583738858011525 0.34061639651682385 8.772624268933537 -0.609229321824596 0.7552939495275638 -1.6479408579167105
Ni 1.2191327395989235 5.619759105592726 0.7642464076169179 -0.8387257328906589 -0.16091634800381963 -0.07263726385075232
Ni 6.098029230259959 5.431667075078015 9.497839394172297 1.8319621673691096 1.3772201500935377 0.5294176517125915
Ni 7.643356903522247 7.596184324300917 8.69683335150441 -0.6777759605457423 -0.009122274016242354 1.5580059833277746
Ni 6.050829037821523 1.4788258420673381 5.605738954827862 1.4323386883342364 -0.2089008463028983 -0.4084487906359869
Ni 3.1173113054367647 5.439518433141585 5.327726323691308 -0.2963798031521735 -0.8699759491541921 0.5306849484607893
Ni 6.883616052496322 8.972114115028692 10.662834580755398 0.41848740581891153 -1.3274960433955332 0.8206292804002641
Ni 8.485366732710172 5.475397206566902 8.085600984272936 -0.5630438244074689 0.16521060450379932 -1.7333251370204856
Ni 5.3236349653568915 0.6090214689819197 1.0088139101956912 0.7573194645980247 -0.132622643265449 -0.8657739952577026
Ni 5.985394917687975 1.827737249002555 3.0454120107383256 -3.067693739166136 -1.0806367155709906 2.48705971248073
Ni 7.165243253751943 1.66216839923996 11.929809980310738 2.6610508913906363 0.7666659388099313 0.5644468754025828
Ni 5.387789673097902 5.960202459282358 5.160624940379376 0.6107316174017352 1.5644154863985444 -0.8929266444130946
Ni 1.1611818013008748 0.8119961030757468 5.104327113345357 -0.4136740435906682 1.7797646594299479 1.203279107695276
Ni 0.04145756372113091 7.11976428517973 12.334496404036114 1.8665761578985531 1.0268587505185864 0.9836151093386027
P 3.346280101672828 7.320503169128608 8.285707525550105 -0.3523884573073092 0.1430582367764762 -0.599068065020878
Ni 2.6350004466664756 1.831483442123156 2.9951762052994613 -1.7073629086287692 -1.1574610209198968 0.7551144865269059
P 8.322062166750202 6.409598363263286 0.7271139941350268 1.0160156371564952 1.2047423225043639 -1.2291174089146186
Ni 0.24243392133711394 8.011928921036345 7.265667001720023 0.052012131401233 0.4203504271695793 0.6498321829476228
P 6.4571667319297905 8.797782671038057 7.259173293497457 -0.07007464532989867 1.8915006890543746 0.2570388394607057
P 5.467665505777454 0.43411198831321635 12.236651730545658 -0.8905985105005501 -0.6514607196899812 0.4725952434069086
P 1.9300534227829087 1.7630026637023364 6.980756588950597 0.865005492522794 -0.09301634172773657 0.22514841851001224
Ni 0.7499427611564402 7.913736321010362 1.218789415266249 2.334345183561412 -2.352410268593239 0.06991292294105379
Ni 0.40399609329774866 0.5471844305966036 2.2842407950663532 -0.9733558935044397 2.5007755194049253 2.493579001656486
Ni 4.431608395585803 1.8885691662852429 10.601269992778851 0.9048033412460224 0.9302341226143012 -1.533042885624534
Ni 8.978713673916827 5.848166433080984 2.823306019393467 0.7024994314343515 -0.12123574158474605 -0.09421139047710227
Ni 5.075879977083612 7.606530076309653 1.970204881334965 0.2803086086219237 0.09809144225779881 2.158731638556734
Ni 5.181758255870533 8.063906200033975 9.442619403045951 0.7583286225888295 -1.7470540565708041 -0.7739686431189315
Ni 5.303311637567487 5.306597610403003 13.283784502118193 0.23005408334174574 -0.6354592020554024 0.0007577041016309532
Ni 7.209893825811002 6.631976805016915 11.64553283065359 0.517094097150232 -0.8848793486285857 -1.5298829998393135
Ni 0.3556609976362902 2.941092958277277 7.850225001227903 0.4429591657080307 0.6917373078218408 0.4788635929141236
Ni 3.5216424391020564 5.4471396810626125 9.30868517523961 0.6068461663044001 0.17957278676274235 0.9396839551732913
Ni 3.3217043384492273 4.9267778091214 0.9152143086148694 1.663642584922683 0.3396324431932215 1.0054468605017135
Ni 2.767415027091464 3.8898923024165932 7.431919738826255 0.7282973663340617 -0.5552811497429148 -0.42856741576273283
Ni 4.442036987245856 2.0373952020764032 7.007618726550506 -1.74064352505877 -0.6649204447393129 1.3465515173650875
Ni 7.952615730694441 3.141758206980542 5.866103978912502 0.2909097811765377 -0.8126349493408779 -0.5536587836481432
Ni 2.180054286047409 3.6188961897464624 13.051008763683898 -1.1169075249775668 -1.1130480420221605 -0.45566581464142175
Ni 2.217847575858684 7.6665796191076945 6.20700295068437 0.19436202925677495 0.5333555533144169 -0.5926986711594244
Ni 5.538336932755285 2.7156126318021667 12.958957343142105 -1.7644449983537418 0.7354620024033012 1.248484757697637
Ni 5.411776354356592 3.9292043191686528 6.020259365604962 -0.39148259509529354 -2.4086503220328903 -0.19454612024312304
Ni 3.628026960202572 2.622123483089765 1.115557403118574 0.5403139869101211 -0.5402833907825018 0.16540318013057967
Ni 5.735845070302858 8.434567617642363 4.805392868048786 2.320122612204127 0.9151546025733596 -0.4557007816444152
Ni 7.182759237802322 2.9289615515624057 8.054037236240587 1.2837278971706472 0.44809108761795735 -0.4668861088372734
Ni 7.094608644396921 8.79812323404902 2.776222722907443 0.32283156958579884 0.4612623348925927 -0.8564097804339831
Ni 8.12542844774429 4.188740946740138 1.1350090736880254 0.26687330905262424 0.1914433129480832 -0.8086937053049427
Ni 0.624311827733622 6.364413935673527 10.165113705959284 -0.15887694897628768 0.9904552721888878 -0.36854372691093307
Ni 0.577367517773694 4.762534393779853 6.185610070952425 -0.33038958443871486 0.32839517971650545 -1.4977616938247367
P 2.7693019302603172 3.483057570400433 10.982003791546637 1.2634820024374174 -0.6860119753022894 0.35703341227848834
Ni 2.673392022848363 5.657248650015844 11.795188183398475 0.017535437780602056 0.28987696903664917 0.11055177950833862
P 1.4299964698196972 6.600663416819653 4.495021228227254 -0.7444922309263694 0.22872842255178674 -0.40860099994313503
Ni 5.1181374036602225 5.646820058355792 7.49139676758965 -0.7766171364853722 1.342603845571249 -0.37128580843244446
P 8.032243044420047 1.4416676562494821 4.071730859697554 -0.17192761151265873 0.25253966603877154 -0.041071059008697015
P 5.511349615237832 3.808193997408099 1.504774902621636 0.12839446411671435 -0.16895593047884452 0.9832942356640744
P 7.207353409837326 5.0671265872612725 6.037571011848761 0.777528592556048 0.4823417812707112 -0.006620847750627308
Ni 1.5405689955144966 4.2504472825644894 9.503915222376005 -1.0375362848370904 -0.4900548336442528 -0.09282093788747885
Ni 0.8709558442387041 3.2060693896184804 1.7834622166961267 1.8656870704253805 -0.5560524806913004 -0.035960991475641295
Ni 5.899959623964581 1.1859600614499133 8.93439077870075 0.23882051668046614 -0.9233289108540356 -1.1997767509689725
Ni 4.923942852165268 4.298890069772658 11.02593457907982 -0.9618787461027757 -0.5294058246380495 1.1042764664771174
Ni 0.17354722862484828 3.2920477432782755 3.982454567474831 -1.1434122561363147 -0.4278660188203341 -0.5090989947598974
Ni 2.8288636395561673 6.943868092219802 2.036511579129038 -1.0353644739967525 -1.0168530454561262 0.5953237674870974
Ni 0.14634820977625657 0.1512339083227312 11.664944922278524 0.2685787217795052 0.3153614864609988 -0.6666641669032969
Ni 4.997752981487386 6.744859636542848 11.458829744959269 -1.4626111140655327 0.4965239863083642 -0.7853552876893185
Ni 7.296120698424743 4.2774898265161525 12.255795053524102 -2.173960796801662 -1.1420626840869559 -0.6531424782677784
Ni 1.8970280151251262 1.5552684314201484 9.599792914368004 -0.32013036860455185 -0.010754667413342769 -0.6669870974603546
Ni 6.769904824457235 3.9510003518703325 3.7191386109222178 -0.006595650939646705 0.8422453160081431 -0.15875764978960402
Ni 3.0015106773033873 0.0102905255745264 1.3905500687443928 0.48530369211251256 0.5898686579097969 0.3759302491829913
Ni 0.13202339318266496 4.875196319568944 12.221550062110841 2.086664902497471 -0.6583926709231241 -0.5697772864765606
Ni 4.553732450436265 7.974015973950947 6.634644241789275 -0.19044366803897525 -0.04354111781574437 0.8722850569033428
Ni 6.72409449727976 5.7848585306645335 1.8005170600208493 -2.7561428847004787 0.22473164268756782 1.1499256317748003
Ni 3.4405608292755776 0.9808674936041196 5.300028426053682 0.8581018234244253 -0.944166159314361 -1.2615518752942403
Ni 7.2700354126660605 6.660694550806292 3.8701286024938537 -1.2047952872294863 0.600327648459592 1.4671000030748216
Ni 2.017421641703664 8.5154375261377 3.534659309645433 -1.8997117641102572 0.8903997642261827 -0.1628017379519906
Ni 8.546548417409525 1.043144502581978 6.928405611081477 -0.8018697404045738 -0.8194617424547243 -0.09782096220523152
Ni 2.765251991751559 7.823275421773827 10.300180075666937 -0.6860011766690121 0.14233884211194842 1.0282854556627838
Ni 4.406876157465273 5.5005436429440095 3.031980941938371 0.8232631184786854 -1.0362741302952152 -0.097380018013071
Ni 6.271937271588315 7.453009793610614 0.07027287621094518 0.8340643228592474 1.45660758818393 -0.525683638591456
Ni 7.466319364255305 7.151731186181814 6.358948359567844 -0.08538633598630456 -0.268162460177693 -1.1348173153784522
Ni 3.8157600188949155 7.529691697511669 4.224579220780367 0.027468637733913982 -1.8357134068814258 0.7128967155082754
Ni 2.099690619865665 3.2129450806776676 5.113083264489407 0.6080234744419528 -0.628798245095459 0.7332356841759436
P 0.21295405075563528 8.60047703041592 9.576918125318082 0.19847373743230334 0.12141263348224252 -0.044310134771284974
Ni 1.34993654902611 1.072165993759511 0.2627471242802466 -0.14278364295885085 0.769480525440591 -0.4720542833017741
P 4.328960863200187 0.14453402141244698 3.252321528269639 0.39310496119006494 1.56874522412215 -0.6315884062460865
Ni 4.103259630988235 3.1706140188554435 3.9400995741977822 1.5376091648389776 1.246745406409027 0.4648665073040833
P 9.114432635988734 2.550338323022027 13.45892869513229 -1.4469700650941661 0.7576845612469274 -1.266066475335142
P 2.0011574568287194 8.459032927997542 12.750094650720886 0.20441581394835115 -0.47068954174376354 -0.4927272382700934
P 6.644043780891874 3.1064316978973285 10.257757890228268 -0.36817374516602397 0.08651427894316067 0.008716553937391439
Ni 3.311220520354965 1.2975726849890072 12.328528267379117 -0.8790344598120344 -1.0540612790753072 1.8717682436224536
