# total energy = -340876.6933972439 ev
CRYSTAL
PRIMVEC
9.20753682693382 0.00000000000000 0.00000000000000

0.00000000000000 9.20753682693382 0.00000000000000

0.00000000000000 0.00000000000000 13.47616085830196

PRIMCOORD
 96 1
Ni 7.675955164756221 0.24639552743313756 5.091819436531815 -0.16793288853096883 -0.5122876769005241 -0.5592077384908304
Ni 0.949720595235402 6.031443046864894 6.137932814225673 -0.40436227927143903 -0.3412954327179412 0.8157477839382468
Ni 9.231016062215232 5.985856531953889 1.4050784090653836 -0.08468699592643479 0.21686689522751035 -0.5940644411586994
Ni 0.09235067378426268 2.9797614882910755 8.662476443246785 -1.248569089881327 1.3301566209468318 0.3531381909891402
Ni 4.8492321463370525 1.210781887352492 7.930181702274555 -1.3649549595729393 -0.35070052808192503 -0.2919137969610198
Ni 5.651816302817081 2.6495700095547527 9.658674842959618 1.4666096937019646 0.028945222279440474 -4.104823789703743
Ni 3.6028631290853417 1.6727608409264654 10.179770786835775 0.3045813651263593 0.9547961282243815 0.5779305117113143
Ni 3.997488950650832 1.8116381191334296 3.4382673589677695 -0.18567555722637052 1.016126708813063 -0.07811191381207838
Ni 2.7629516182427163 4.803691669110264 2.3699849948163827 -0.6917913009882279 0.5776091238161536 -0.45086530792898477
Ni 5.925031543567281 0.10100852067798467 9.885464762192392 0.853126481697021 -0.37566928221212076 0.0508466503382221
Ni 4.996957867450395 6.47493326645759 3.438509517186747 -0.22654889840196468 -1.7124462366889477 -2.0531333463989285
Ni 0.3860241406465125 3.5466327015835226 2.8012623375401735 0.537550308122055 0.25595666214012047 -0.5795639335496794
Ni 5.895254369416162 7.620949339654557 5.120267042362767 0.6798415848255195 1.0992975252052875 1.424274423268863
Ni 3.5461354945939862 8.242964491101317 3.945078730185284 0.7998442253341128 0.8922951814766826 -0.3935515618091803
Ni 0.7755176811755673 8.322600477258716 13.092656093526848 -0.26956345429027767 -0.20482976155731822 -0.6200153566965063
Ni 8.77634789289481 0.8431249412009242 9.432840666051176 -0.07494817137211608 -2.70995687306272 0.6859577250255864
Ni 8.07931893878597 1.6840861112436811 2.6884405470922794 -0.43445884154650344 -0.09430729262501823 0.7302377778898843
Ni 3.700591925139755 6.559614982805098 5.766651781572597 -0.4578432819087147 -0.04429547948326565 -0.7909440946310056
Ni 2.4693785135320585 0.30943492843055076 5.829908480439511 0.6617752142421119 0.701664851348198 -0.1186705519607311
Ni 5.226170289626631 6.565480183774257 7.447398319203225 1.066793124819679 0.21886438527351337 1.422252250632512
Ni 4.895831490300815 6.825316873491193 10.048000806318127 0.04355345911091854 1.428742743452862 0.6346482761183329
Ni 0.4433300084516247 1.4875788599347215 4.683154883541398 -1.0902564980489418 1.0141765270652277 1.1786325127911894
Ni 6.290055134181674 2.4881895113028483 6.4046806810971635 0.03987755292122809 0.9721503032321127 0.42746055585179926
Ni 5.043796607372083 0.8413202639796442 5.2587750983423165 -0.4368119151597122 -1.4220655885430025 0.7797914204482957
P 2.548950046931554 6.6750867023564835 9.802680719188283 0.5332995032655009 -1.7766736792094497 -1.0850520710298668
P 3.2313758476069756 3.1109412656970705 8.300048457268508 -0.19595379922392703 -0.5349925746972076 1.0093279407236746
P 7.276338858221682 6.71047126644515 3.617783021786168 0.3355757566253446 0.3400430483680789 0.23624838507791568
P 4.945763962601842 4.588345797419985 6.333499055269251 1.0436637378910671 1.9675017271710376 0.39157926857415787
P 8.270743629757447 4.076001617313352 0.8716434450655686 0.8984894832128526 -0.5470029688945225 1.1665976931138424
P 2.1218400353830247 6.681016356083545 3.722290406464593 -0.013895784145485745 -0.1940118450062078 -0.4486801273522079
P 1.912506685251397 6.264605502346891 0.08455281083170163 0.40352589941307276 -1.456775224110046 0.30692518276818753
P 0.6549652427940685 8.670295483534085 6.704942140570769 -1.5528923162502932 0.1972979719566473 -0.5494357467057311
Ni 2.710919827541427 8.835754920607556 9.656679569725684 -0.0018059428604872126 -0.3744433802248196 1.0169427769564552
Ni 7.975135659404428 7.092501177609054 6.653477534139024 0.8630493972376878 0.4315354972521213 0.13231282533451408
Ni 2.417134949483373 5.32236142702822 7.866964595816068 0.6014846448821706 0.4543095577238434 0.7016584235902947
Ni 8.22636330217291 3.3583385731387554 4.75697723093596 -0.7543670668379201 -0.008068121720115135 -0.057976319404467895
Ni 6.743029116722935 4.684896028758461 7.684928830163668 0.30666807245205896 -0.499102802779134 -0.5598831672913002
Ni 1.1538885171979578 4.180194104231737 13.339943831280099 -1.0201245171185462 1.0080912401030961 0.11527335335372406
Ni 6.225906224994648 9.12762463100221 3.0967137797668576 -0.9977710891240108 0.11839750080500254 0.0831510188978826
Ni 2.039193184677879 2.5353413074772084 1.3537878250799764 -0.3517330831114975 -0.8875173004720651 -0.05071269586351911
Ni 1.4970994530306574 3.3208823132603538 6.735991796313628 0.31349743666906654 -0.37138736700731523 -0.8159367600206012
Ni 1.9129210244093438 0.6166618895260865 3.521725393668807 0.6588284729089621 -0.8922679277831729 -3.1856227849751524
Ni 3.3845524305315307 5.028180624885906 11.968043860475737 -0.7432128499933136 -0.3489997433407344 0.32058931051884143
Ni 6.726216154447133 9.045576270191876 7.2764263298216925 -0.5196945108875566 -0.5129584777153037 0.4533435942661483
Ni 2.81990023361831 0.8654872859321617 12.711307540089345 -0.860492178033473 -0.23069094559479625 -0.984063509729931
Ni 5.736599302069863 1.7214779183641797 1.5564696505960296 0.2951505587307627 0.2780401243027211 0.4295027830928087
Ni 6.999063093723602 4.626032245719468 2.8904750827682513 0.14245634152641917 -0.35655930085554727 -1.1452323400641888
Ni 4.141494826879495 2.675599716210663 13.33544318727111 -1.4823435594974534 0.23359912038052671 1.7495012325597161
Ni 6.818355975637686 5.026523268254118 10.013636437311694 0.14207581825854887 -0.5140465685731598 1.083603511508798
Ni 7.781823423380081 0.10102877725903986 11.974525966413395 -0.17650648913259281 -0.9652101244688538 -1.7117998613542003
Ni 6.0829776305766465 3.8424156151365647 0.45376122694135945 1.7817055852064023 0.4431044330366433 -0.7338414360807426
Ni 8.365710164758882 8.276562793042391 2.68135166447665 2.2665642193616966 0.3239479425784291 1.349650210895069
Ni 9.268859038641052 5.6917125599589475 3.871242571485458 -0.6034350837403221 -1.716421933507244 -0.3713025206029928
Ni 7.856717528063199 2.4920474692401764 11.20143907496445 -0.22203352703011436 0.15297343900765914 -2.0251306905384157
Ni 1.2438645672303426 1.8229910120611754 10.440157166502253 0.6840605080028734 -0.27623700965571135 1.8360131975100316
Ni 3.3669936577714243 0.5883395061962037 1.5155154474708714 -0.2807883764718197 1.2055727888254593 -0.6524081712049151
P 2.1762842007372503 2.7680618011907288 4.474058167106643 0.22726906439744085 -0.36881909205950675 -0.24043491235543754
P 4.337956040504238 8.952672223443333 11.29989526642948 0.21164524181725486 0.4976647847810268 -1.6394981264659958
P 4.62536009552991 8.286773951401573 1.8180281497026556 1.5366694266335277 -2.380701145118132 0.14395015246312629
P 7.921455719608193 7.338342411324227 13.129743131177836 -0.5832632367781374 0.08909669495835623 -0.16882326155572214
P 8.772987141947018 4.223626055521418 6.6542859558738625 -0.7724295807665859 1.182776102645918 0.8901290270632993
P 4.365237972170832 8.457435646791486 6.6915065028090766 -0.057910756273855106 1.1001305626295441 -0.08977700885483247
P 4.787698177613513 4.204566454255859 2.0434304931331493 -0.22150722221299915 -0.17035023972320984 0.28664200703911924
P 6.854025973368493 1.8334599814519676 12.926576068470142 -0.49592363372020404 -0.026471306817651186 1.9092014487682472
Ni 6.757319213903682 7.088026314703228 1.508966126514257 -1.3220884992267166 -0.42030234754046325 -0.7858715652041046
Ni 3.8291567620822633 2.846979599474352 6.292572474754623 -0.6053068468417382 -1.0742943182927305 -1.4674111065573372
Ni 1.9221561838631385 4.003538302356857 9.860533514681885 0.3687483867225714 0.9007757081438681 1.0894504572078787
Ni 5.640389749594589 7.326648839533281 12.420087881795826 1.4172776802360558 -0.46796751482691024 -0.586119732390326
Ni 1.6386561244590119 1.1817321086119912 8.059458281815047 0.31083403090429046 -0.4517207139507446 -0.49667131051950597
Ni 2.567595309039165 4.895794660153443 4.778161931704943 -0.8085299260335688 -1.9450500830357407 0.14383599548276516
Ni 8.892390479730478 5.507939332104224 8.716569801447282 0.197929177782743 -0.3002986785906054 -0.1908846122311358
Ni 7.871182568443968 0.1578282305377724 0.8015473878314772 -0.9055078235122147 0.7645347513995414 -0.5516602651608757
Ni 4.73709355512293 5.916689515187283 0.6515188617536345 -1.2501544320905762 0.36880649365401647 0.13496748934854175
Ni 3.152642200060217 7.686700360252312 12.470826013570637 -0.37373478419356926 -1.0165195733761072 0.37124364234059937
Ni 4.8040323479734655 4.019771189811533 4.192622437462776 0.7196476610788638 -0.6130350687239313 0.16305576294432564
Ni 1.0872535730632498 6.268629195947397 11.504274961739432 -0.5378375003451705 -0.280357202471672 -0.9294406801787283
Ni 2.3895031314167356 7.7641633677146995 7.521314583473587 1.6165065506668288 -0.7404887661939311 -0.01940488688917303
Ni 7.716228930908661 5.1297581713408045 12.442754995996577 0.3205371171246673 0.7024762915058999 -0.21975372985700217
Ni 7.84665369029351 7.1293497400558 10.670734145638663 0.5005719311254928 0.5714163647418805 0.46211285581834605
Ni 0.5931320291231231 7.7322500450159435 8.92728244059803 -1.0632596577451237 0.009847067997408848 0.3724199220368876
Ni 0.42703819276115174 7.7325815163423 4.582393124850814 0.5141193307926243 3.0946394145170446 1.4125033987758642
Ni 2.122318827298874 7.790598205991713 1.5290993265757402 0.14278621406201217 -0.47042626078004796 1.802535120357244
Ni 6.959654836034428 5.383748075162266 5.27376036455473 -0.3706723432181616 -0.7171935431114165 0.5756111195495184
Ni 5.431544398915655 3.064093318238539 11.628027019173965 0.4242379351494436 0.32208337856586466 1.9625448973863941
Ni 0.20739516362612037 1.6954666267819565 12.764714016041335 1.159714592840764 0.2872372174209569 1.4039807060168337
Ni 4.470682684099902 4.769540914958594 9.254780714807698 -0.5085495500143307 -1.3900666670389026 -0.3911388386026296
Ni 5.223730292363165 0.32587682697156883 13.137517975288288 0.11532606096853042 0.3355757566253446 1.0319796166849193
Ni 8.517791050799088 1.8093914801436732 6.682369863999505 0.5539377483411428 -0.5241795432421037 1.4584574969084754
P 9.002687563575948 4.220513908068394 10.763719218711426 0.3597112162209676 1.3408585807453681 -1.247242914870736
P 0.5981252763532257 8.646162529467887 10.946469489222864 -0.20473257385782162 0.8330667348326685 -0.33617945164761454
P 2.36376806593981 2.9164044272725698 12.091418408899695 -0.20025628325402284 -0.33581409788839583 -0.6086179134928421
P 0.7730675556215745 0.474770063756637 1.3947420282051346 0.6299819809909151 1.1696717040534756 0.6040446922998629
P 5.506410880988242 5.122594707676743 11.808324401870358 0.3912627657750036 1.646700557751706 0.20201003272033596
P 7.109765309190176 7.096285475251635 8.664956032918676 -0.6354275774865186 -0.4259194366169246 -0.23549505185165895
P 6.391365662068118 2.152869434544827 4.23554429121134 0.5900874587888224 -0.24553675235837713 -1.5130458736773167
P 7.177413082377643 1.5826650929151183 8.524992265364206 -2.199903484809353 1.5173126193734707 -1.1543983228341732
