# total energy = -381163.0993143673 ev
CRYSTAL
PRIMVEC
9.33105755288920 0.00000000000000 0.00000000000000
0.00000000000000 9.33105755288920 0.00000000000000
0.00000000000000 0.00000000000000 13.65694592641470
PRIMCOORD
 96 1
Ni 5.846252702228429 7.889231730820038 11.454790185776778 -0.7889620312039702 1.3575365556216814 1.222969901255984
Ni 0.8981282701078143 7.365936701486299 11.217514459899638 -0.4802702434536632 -0.2179354457013408 -1.098535450228282
Ni 0.04468456761600911 5.791498057480112 4.77573874552581 0.008004615472031375 0.9384215435211001 -0.003684133719806558
Ni 2.2383433771082277 3.0320244563519845 0.9111926835556873 -2.0593037368756986 -0.5957166320501418 1.4488806518533175
Ni 5.850255725847554 0.016191250778336743 1.2426075812012023 0.8845170801931606 -1.234232618653997 -1.1261123314052863
Ni 0.23932949160807152 6.214708165278326 13.366407521576578 -1.3615081386749197 0.10062963529862023 0.40413010865597493
Ni 7.338363426907009 2.362269150268146 4.320989663758728 -0.20741757688915244 1.0390349808698043 2.2303057512502944
Ni 1.2216593573668513 4.872902112993389 2.4109427449172 -0.40477931220419966 0.15530877200905513 -0.20961946963647768
Ni 1.9404400389632421 4.233855316770953 12.693653213648481 -1.6027768597855623 0.9704292067759481 -0.8753030177940602
Ni 4.187899859138803 4.701947810601787 8.332580126671392 -0.45439723234164325 -0.3463489359814486 0.7878628846025205
Ni 5.220829249791361 8.44590395242793 6.732464278947 0.7182636362471436 -0.46641174030401605 0.42614106570942734
Ni 6.57949652277504 0.7666182135035482 9.757204911902505 -1.5176175522083992 -1.2931327354243147 1.4413997700952401
Ni 7.4835546798524435 2.8819623914504104 11.448331227853332 -0.7400696763786416 -1.1407475648199579 -2.118064242744359
Ni 2.469566979164005 1.0991798981019547 5.580596565308001 -1.6452612542020182 -0.41250264899038636 0.6176532842222331
Ni 2.2014857004286346 3.241021479711359 3.7016192682487628 -1.826376445751216 0.5445326529771589 2.3331637616588012
Ni 0.16085063345269968 3.539036790544991 7.999843018194105 0.6662116527469106 -0.26039387197586766 1.3955595718326739
Ni 7.735017345381142 4.299909872015216 6.724857600964923 0.04828865980305878 -0.3445476211066517 -1.876804777605097
Ni 8.59763627660182 3.915265024398459 13.06225424119362 0.27919300696024174 1.8141089412377727 1.48556412331728
Ni 8.026463591814158 3.1218732079337066 2.3677726079151395 0.142264023009955 -0.7370388599721178 -1.4183300327599702
Ni 5.227706239085756 4.832918532089071 6.13648871051832 0.29076657073045403 -0.1636895398735826 0.42671313616281353
Ni 8.719686507226902 8.665137145741104 9.830379063933234 0.5646625909578146 0.9609120113141323 0.3265200741809796
Ni 1.0376135814609533 5.7370326755107985 7.4141512081119005 0.039886808892608726 -1.0460517785072696 -0.27407548322801834
Ni 3.2052835299182343 3.340947773271299 6.345931758420805 -0.02420616493255831 0.49570508995149465 -0.2286877991218384
Ni 0.5615215721320396 1.906353686327659 2.459902803028042 -0.00785240616488325 0.5328480175503791 0.8829055127316665
P 8.522073373879959 6.843313508284442 6.576337959849459 0.7457471863793932 -0.5786650758844938 0.4383656328000773
Ni 7.728550922611786 6.567590093548922 11.052169989209244 0.19051128805211706 -0.8921162326966572 0.8874008294988589
P -0.07846019604059734 2.0772613334323244 13.617395236284265 0.712299962464541 -2.189266316810481 0.7328672450929314
Ni 5.132706743826279 2.5019177551255614 11.655110258871758 1.3485968299298905 -1.4530417252095427 1.4189262715830724
P 4.869738884539116 8.894363901516014 8.953097309134249 -0.48744027883954105 -0.6082042229941913 0.21220111432072486
P 0.7225886861161233 1.7812148757073996 4.779042872946631 -1.4926968777073195 1.15508789270203 -0.9072662009642181
P 6.088057723361334 3.8911908963393835 2.7369064388370896 -1.1871935149873232 0.30572139226807354 0.4001376996671302
Ni 2.932732674694377 8.789249540048768 11.110977112180839 -0.052864194988883145 -1.2658147643356523 -0.48701810370045795
Ni 7.8301381443866545 8.765949889752832 7.438132958702843 -0.4475470421890293 0.15769244174988323 -0.31395277903893026
Ni 2.5393539573631636 1.4467991100061486 12.26657258324604 0.3372307757302644 0.8044670688181048 0.5156087708539572
Ni 3.042661861773437 8.69860764858913 7.217286425567415 -1.0879576747124362 1.447281682797314 0.9561906945790629
Ni 3.881701210976561 3.6430314251257676 13.3610682905396 3.5470031613684267 1.0108346071761882 -0.36820382707301097
Ni 6.032995153719238 7.148448415904538 2.5839078901757517 -0.5439942639751857 1.0149257465264263 0.11946013774156201
Ni 4.547005602686687 1.20571258029206 5.408396566755203 2.257510079579228 0.16333909851269934 -0.6017481829562024
Ni 7.249541091637883 5.390561183665235 3.9152006401024875 -0.11971673383705833 -1.7627221021253643 -0.5428550081644199
Ni 6.598886460025723 5.378692078668667 8.195137383780319 -1.3211459328077892 0.3868481816470757 1.3180258991215685
Ni 1.3678490334527211 7.745822709835564 5.506207509605456 -0.5910984165518401 -0.4866733187665296 0.27739786273303196
Ni 3.478058330519386 3.604988704157995 10.775740213429511 -1.1843372764854507 1.6274645923402293 -0.6347369791773971
Ni 0.28658943106295853 5.095121244670481 11.346122557656473 0.7164533225112822 -0.011773852706476497 -1.6640290217278244
Ni 6.79441876757531 7.01022746282737 5.413817911097189 -0.774521173188292 0.7108714575481305 0.2547947806215354
Ni 2.312450634877678 7.296606945099116 13.086645625203861 0.491824781060482 -0.2368991312880372 -0.3890189640461494
Ni 4.454208236970597 3.268995989758301 4.210491282179047 1.2023139155685294 0.2922333850839677 1.4152881606098529
Ni 3.4304885999592427 8.616839592704757 1.6073819421118345 0.11145140850447258 0.29438436998869943 0.15359127509731613
Ni 1.2582557644396015 7.117385325862419 1.5699616026717906 -0.38086548170107953 1.3358865814520735 0.6744594945779998
Ni 5.453144585561446 1.5831818447780308 2.8480607937510944 0.027741431779326416 0.034148620857250865 -0.1363530568421587
Ni 3.7832305623690305 1.3805299404419786 10.109526976729867 0.3722029209300751 -0.9381487494756875 -0.4724990841486766
Ni 3.3136544304136257 8.361700490565486 4.658397899564066 -0.008863621038216994 -0.6691712495958669 -0.7301081942905554
Ni 1.356119894316962 2.363790112622266 10.490186529736537 0.27349235703103864 1.3178209821996145 -1.1366952491274551
Ni 7.8032180438244705 8.138258990370666 12.93927277104129 -0.5699513501605797 -0.5309230326135244 -1.2814910374203285
Ni 2.4671035800137737 2.4180128870995103 8.397560677210384 -1.1835916565686777 0.5320342633998321 -0.3398730984491179
Ni 2.425776326845693 5.607872179156639 5.242778696083363 0.07492477433334839 -1.604235960829592 -2.7070083319573577
Ni 4.113167420524406 1.4405566326140857 0.4743489678089774 -0.06937659082160956 -0.5879218185960714 -0.19540641136088926
P 4.084007866189285 8.458724825277995 13.009251035916886 0.731380890355392 0.17021602813819073 0.9020455759952272
Ni 0.582702139295333 8.87000984173532 12.949843925955292 0.7904463290589806 -0.09442196382601158 -0.5707471065889977
P 1.6003603214279372 0.1240526755403848 9.30490056717088 -0.4936057842203048 0.27740763292504483 0.30703394043190996
Ni 5.676007560198258 4.839431610145364 10.508828116184763 0.4717452367017876 0.776866790602333 0.3179421027039815
P 8.544803829675274 4.001381353025286 9.920637448934256 -0.7137760327894351 -0.3390022658083904 -1.079635785110302
P 2.698831059168462 6.447359419114352 3.0738779811567056 0.1647956284535678 -0.20576152934296824 1.19991970430474
P 5.704345981483301 2.7614051300072853 6.664261714292194 -0.7235295126317733 1.136151203698527 -0.24312120093834902
Ni 8.449673699612374 0.09067828258344782 1.0924829982151334 1.0806665403676614 0.738573037228457 -0.2820093933631143
Ni 0.4738478900272827 1.0640111428094519 6.982673783468592 0.8479179409128882 0.46244529945710033 0.8764384169500841
Ni 2.443869247119549 6.9340393792605655 9.105864447572383 -0.8220331027263262 -0.37407854068623314 1.1947011362182778
Ni 7.619573503386224 0.46434420807838 3.055100161270626 -0.29004717606592634 -0.19210511490179819 0.7370781978504855
Ni 8.45151191791766 7.489797157244507 3.3688411031189722 -0.1385292385578711 -0.29461294105973773 -0.9368017485294898
Ni 7.7807022023490635 5.144818456314915 1.4565817905709297 -0.2601064226424359 0.02184383534796883 -0.20462767284884115
Ni 3.024522286212645 1.5055287852014294 2.6940097018164755 0.6683860346904102 -1.3368790272723299 -0.2027790496758766
Ni 4.415894915338595 1.4002464647012143 7.838444651672774 0.9374663786966821 -0.06672938300674959 -0.9258758456456054
Ni 3.7512716908177373 4.160522536764644 2.26339260066427 1.1944028882515687 0.808820460690794 -1.0319490205573
Ni 6.626450403547625 7.555907698833094 9.155616712455402 -1.5124257235948146 1.0472254871003963 -0.12976846164610556
Ni 1.6228761629033444 0.8157658258678736 0.776929031916447 0.5736642802357926 -0.9716700211615845 0.1864610292421434
Ni 6.465694946880276 2.4876505683804733 0.15336245989944056 0.171104344280415 -0.21853039897286236 0.05769889737336514
Ni 0.6185324665565911 3.9261450373119797 5.812354836952068 1.1336405214615317 -2.339890538859674 -1.0089872695548041
Ni 5.781831082026932 2.9456561891757023 9.318366216086405 0.09798011349091512 -0.2698948694877674 -1.467470499040363
Ni 4.548526565040807 6.812903592259431 9.988553550127273 -0.7025981617957447 0.004657810486985527 -1.0966480033975823
Ni 8.403242358053474 1.6522130073288233 8.966453784678343 1.9109978785470378 0.59280588616125 1.5286146746498512
Ni 4.877726269662592 5.785208924801112 4.046635115141917 -1.5162378982520532 0.11022807762033274 -0.4099168905410811
Ni 5.969627943002499 6.629025775386503 0.009291866946212386 -0.8594416252817715 -0.5973976192969905 -0.5350473391945431
Ni 3.591953216988023 6.32557045809611 1.1556215980258848 0.9670626042965603 -1.0927594669764535 -0.5322710620009865
Ni 6.6550594254968996 0.2517276675584957 5.220995342612855 1.2227567568039135 -0.1520586405028736 0.6071302732037221
Ni 7.518583469284138 1.7719398046644843 6.969712944757718 -0.30507450271269393 0.5705200781798561 -1.4798159079795932
Ni 0.7874544646492524 7.985369615080759 7.749579393539667 0.08349014740485622 1.8419760999616859 0.4348997857386639
Ni 3.2350309408687514 6.487538952223801 6.995032768977989 1.7881048038645269 -0.08441523032228687 0.3410555487929932
Ni 8.575922906061715 6.599492978755893 8.91634693961461 1.6519728618942389 -2.3087207981250883 -0.767323112777956
Ni 4.071289634970479 5.836660375234347 12.172899964347026 0.23966255296578726 -0.1324128412474881 0.17884799278157587
P 2.1192324295601246 4.560908878193673 9.324799047049167 -0.2961471183160771 0.27686101639295546 -0.6739306186577232
Ni 0.935615793161046 9.036419919179336 3.0886415801547944 0.8936709787782867 -0.272409408379505 0.07789928358064004
P 7.658232074141555 7.173567622390984 1.2028955340668526 1.643337554816744 1.8692213088308838 0.2601395898732165
Ni 9.17506076983893 1.140572468671746 11.38530366762549 -1.475888290790413 -0.7554716127560086 1.3398815615440796
P 6.41651094339214 4.556961840918871 12.483854652459543 -0.7230595149738902 0.23142139600291756 1.4277017037828572
P 6.5634750972411515 0.4793634780488795 12.370297550268324 0.02530659708558867 1.643657400050008 -0.03241698287812481
P 5.217787325083122 8.748780744160314 3.991665856073693 0.8681769482722402 -0.2393339659817749 -1.5548586959480448
Ni 8.992666591090574 9.205368044232682 5.087335410386569 -0.7530396062757483 0.3314761326346743 0.12350653989679374
