# total energy = -340891.03106996045 ev
CRYSTAL
PRIMVEC
9.05206479590697 0.00000000000000 0.00000000000000

0.00000000000000 9.05206479590697 0.00000000000000

0.00000000000000 0.00000000000000 13.24861182554219

PRIMCOORD
 96 1
Ni 6.317607859225607 2.136957093529229 11.683327763469924 0.8659578291337344 -0.4232837987662904 -1.1058654082307922
Ni 4.72782996539501 0.7466495895649482 5.882198121715285 -0.4216048684019707 -1.8687803646387235 1.0282394329161968
Ni 2.882258830678297 1.7446858749787357 4.736564302507722 -0.48585390818902774 -0.9184821242846957 0.19012228014381452
Ni 3.3328434492496113 4.27602331810547 4.848646966130479 0.7717119858742709 -0.8517347435558169 -0.47341208288124914
Ni 5.015151547211353 4.3607687466982865 2.858679107655286 0.5120066553249957 0.7406137218075697 -0.4980404229528906
Ni 7.152208213450956 6.134629425816592 2.604994997816182 0.037229830885735886 -0.6075210808842376 -0.6971222262828382
Ni 4.921109648295441 4.626600727203013 11.53606968209788 1.1143899007620355 -1.6015568713355322 -0.20302973223410195
Ni 5.4588384925731255 8.200210990136853 12.482338115388247 0.9202037349614925 -0.8924512474385726 0.20729313549614622
Ni 1.7047391139896202 6.403973607378146 0.5755094462129386 1.1890902177894038 0.5887995932153343 -1.8023875390357864
Ni 2.7502525729161684 1.5866006191632098 0.4514635740419789 0.029392337119188088 0.17575572700949732 -0.2382862414435509
Ni 0.6707869519439462 9.027895567023503 4.39387576769117 -0.05327428594310825 -0.1648082268590581 2.142012268919524
Ni 8.713924707085257 2.504950674877636 1.438733333844968 -0.5927187257640825 -0.2681902280918349 0.06938970344773211
Ni 6.917325241743371 0.7294144586056741 4.82234890811426 -0.508084437452454 0.3434214779220085 -1.0574227393483726
Ni 0.7969745425944039 7.534549317157792 2.4760329493721227 0.3365329783322914 -0.351940056915981 0.10219183757941754
Ni 7.764471757475838 4.076027003287088 3.773284324253193 -0.2798800057249373 -0.7572063360589282 -0.5381696868736087
Ni 7.363745910608138 4.032703822209837 12.78283045116769 1.54225257714826 -0.6386720525657452 -0.35580288230549695
Ni 7.961661932274591 8.84285326289037 6.758355599218433 0.8617900709092899 0.11352963118973997 0.8647360409114914
Ni 6.961381640051557 0.9585321703826072 0.5339324083930639 -0.5734593633138382 -0.36242475849738875 -0.2602732872376034
Ni 1.9476422149145984 6.3583783580914535 8.979246151147702 -0.0313484324042944 1.0175981511522667 0.3118195347460114
Ni 0.16585011681177864 4.9287133825421785 1.460778731921762 -1.5205429533853103 0.04430756366812369 0.8878484585592387
Ni 6.5616062599647 1.7819532248523342 7.239717237359879 1.0175313024700734 0.769848707413287 -0.7872291076732636
Ni 3.4589749170996766 4.464921801749446 0.4389581468254678 -0.8439350450057401 -0.8397624016852892 0.38453393169160227
Ni 6.245589633431498 5.599824398398069 4.943321604360496 -1.3853769748727174 -0.21788659474127636 -1.0800659306691849
Ni 5.177645158477071 2.838102859659737 9.429169063798257 1.1004010426821114 0.025992824519335878 -0.08640372150722539
P -0.029457228554448257 5.620716563447441 12.248129522491832 1.5842428055371165 -0.6052950197671962 0.9198118988397127
P 3.986130949948564 6.235759091298214 12.640368153609838 -0.4935451061856984 1.1348561390361875 -0.45993667410263367
P 2.5752037480787524 8.379994044749322 1.2776871477055036 -0.34192278188929504 0.6042182417632498 1.048234387980885
P 6.291157726524452 7.905584392204894 5.911252533395947 -0.6506636777099826 -1.3271139774657659 -0.9183183450133218
P 4.623631650020954 1.1863273755244825 12.424574175687399 -0.8395716258307218 0.0013403160779783367 1.2645011877305514
P 3.979233276739022 6.2285355437638135 8.215145991486489 -0.06141079900731359 -1.1136854184958433 -1.1480063032649002
P 4.74759967443653 1.0233540048360532 3.7099026732743376 0.36349125208869015 -0.5682685631415182 0.1596387668429767
P 0.1784786521065702 5.834200454489205 3.6998467347330264 0.23116505701773735 -0.6605215443406689 0.11647482986099295
Ni 1.368473018992188 1.0810428124008922 2.613169012131426 0.4765251745889342 0.820765291757496 -1.3509887272008345
Ni 2.035392928947793 6.37935199172204 5.0094460309069255 -0.5708419802956491 -0.6698227671369368 -2.322980907588528
Ni 6.342039381525544 5.495164427730461 9.168728492957053 -0.9939738268651076 0.014534189060433033 0.523238519485073
Ni 8.505564284595462 2.461944316060666 10.18109419660011 1.3866594411295667 -0.6945524086731328 1.2986559792353893
Ni 2.441595274886061 4.915379691416648 6.854394383580573 -0.7892834190991311 0.6251915015808072 1.9764766769761382
Ni 0.863824039513647 -0.0597318585404209 8.969601176338298 -0.20355680838216555 -0.7158203169129737 -0.17638204773958654
Ni 1.368509227250506 0.8501789573665831 11.349409774024402 -0.8247512729884376 1.4543506738289536 -0.6921857082131692
Ni 4.094873401741505 6.6197748269522485 1.5805456931660153 -0.325527114140091 1.4978398553608399 1.265138564204234
Ni 5.573844973055047 7.708629571085207 8.014098731970432 0.4605712223628391 0.5223538028872745 0.25027915213936897
Ni 5.332136744654555 2.9052420226455222 4.849826450145182 0.1738101732473523 0.29383981033913914 0.4883085403771074
Ni 0.5257900763038481 7.243652169832566 6.512143063483208 -0.3087892325601198 -0.22393691470041432 0.8117486900811828
Ni 4.882140510280906 4.5256792592067185 7.036999871928914 1.6754336640203402 2.410743457116493 0.3374526619330834
Ni 8.324314795521122 7.160400331895358 8.829815574276589 -0.24262523513853695 0.31977941302303636 0.4184712078689954
Ni 4.5854138333665135 0.18058597274066635 10.3729735251101 0.9872645331657319 0.21060471636788247 -0.9328391643373161
Ni 7.937610596686991 7.472044811236685 4.472718344971727 0.5813577922253085 -0.6594655922723287 1.0252296995555956
Ni 7.185791373040718 5.954475236556366 6.971511805522421 0.9037615302450693 0.377141495882273 0.4958380159849332
Ni 2.368843831861016 5.03001503725081 2.716216810097434 -0.2814995436062313 1.4081590057642392 0.07837545188611018
Ni 2.383834050804586 5.403195451603243 11.35844554488761 -1.3122586576204884 -0.19397919199605948 0.8737099622753274
Ni 1.1158480007088798 3.304429018534716 4.004312926862848 -0.5642584135408604 -0.15296546858785912 -1.323067318200218
Ni 3.559344209156625 2.4677828977144114 2.597536096602715 -0.26070240435522196 0.7210905641729776 -0.47822570221980853
Ni 1.0305956564996137 2.9705526685862584 8.268325965684303 0.4562332571091175 0.33880609063718425 -0.80872044477782
Ni 3.73326152592161 2.756118310763653 7.019007988370798 -1.2217411710552055 -2.3796958437820694 0.131834857256831
Ni 4.173725936293098 6.986655004357384 5.786609224962743 1.3164940358580746 0.38777506433671927 1.3778313013149754
Ni 0.7067299847695709 7.288124963111407 11.11804896064468 0.213966947971896 0.8052412279799679 -0.37981055807400393
P 0.40518489387953754 5.402317401339037 7.749311359718174 -0.9727521984821699 0.49030088821678786 0.8049519788743233
P 8.632374657288986 1.3216919492455872 8.112522735349257 -1.0716838772530768 1.6466532494535382 -0.17319953624654688
P 1.612670565152028 3.3644351546318942 10.375080845744195 -0.27713920975500655 -0.26033062283810005 0.30532338549870647
P 4.037410895791152 6.0280685215873 3.8159448942032284 0.6134058217997888 1.1358933220514502 -0.08490708235704086
P 6.97664342093251 3.911288480005666 10.556930486700153 -1.2708448705603919 0.9967670733395285 -0.8644064254862146
P 6.4578967560779335 7.533019518243865 10.104080136364603 0.23237476105512236 1.5235490872014856 0.31581528616896576
P 2.3765199826243903 8.292831714913792 5.969135055142786 -0.023191607625114897 0.36784567240264393 -0.9397788288799428
P 6.883805446605666 4.065825326506047 1.5976368962984762 0.04594021417554023 0.5785434627049649 1.2060271027540586
Ni 5.2033530218827115 2.9668413221086842 0.7104712030602578 -0.1644405591069942 -0.9437429557340133 -1.2208099174901879
Ni 1.4226948858230974 0.9989948990527515 6.644589251583898 -0.32372117127960376 -0.4754656229761682 1.0996363966019451
Ni 7.091278766766673 0.6035382589767495 9.55251430617077 -0.8597714978173644 -0.7905139490721224 -0.7611632638241472
Ni 2.969819451355323 1.82881576318015 9.230042652385961 -0.35384190192438414 -1.0512528630922346 0.1167432530310312
Ni 6.321083852024117 2.1608092836960817 2.6746696440906716 1.15975470205008 -0.5564000938387063 0.33653606365608496
Ni 4.264699185316577 6.5536494951993625 10.364785932697986 0.31193857682237885 1.904785836199055 -0.22161855097988284
Ni 8.260199022104873 6.9566202540827655 0.49563674398324004 -0.16763129813015 1.241106462955695 -0.16464984690432288
Ni 7.7745738615465045 3.739380721577319 8.290967894816884 -0.42396488399371496 0.0436825284896151 -1.0776172120183765
Ni 3.063363486719366 8.581176180027613 12.245082597554388 -0.10651926131017785 -1.2646197155862866 0.6943032687768043
Ni 0.02631525693892094 4.993164082347867 9.953801381042394 0.025273172744491954 -0.04681130392658389 0.8063881971002176
Ni 8.51334000806921 2.424405404249684 5.916737179324636 0.45442937113115933 -0.8112486105163125 0.11474524876439593
Ni 3.311390056196313 2.7828762136605083 11.549106465505206 0.568344410684776 0.048760971453786994 0.37882016913627664
Ni 1.1481548191929392 3.5874961299987165 12.769396282125328 -0.6614661676421253 -0.1439864050177004 -1.1973989947654151
Ni 3.2529318231422213 8.561569408148523 8.041999910623673 0.43710373536851815 -0.015556716787676433 -1.0803883470056104
Ni 5.651086240111499 7.73000149555729 3.6345840647345606 -1.1909599240082909 0.7931367314069503 -0.21052424083893423
Ni 3.124691224245144 8.400035315728227 3.765149233815641 0.06433491463264404 -0.048838618769257824 -0.4135025510098104
Ni 3.3244521853844606 4.319138301697394 9.46005199252397 0.6749433761929536 0.22530782690601195 -1.244637873147721
Ni 7.034558530111836 6.102892887401039 11.53267787349996 0.19133584083594146 -0.05521598305051136 -0.35145617530102696
Ni 0.7534368275866202 0.04482129776514982 0.2881842435707642 -0.810819493398694 -0.519411432429499 0.3516616064436137
Ni 4.70954479494452 0.31452122546467587 1.6143433866863102 -0.45673667910809723 -0.45411363966295343 -0.37928219637435967
Ni 5.8982347593242395 5.75437029696303 0.3807017748114974 0.5456798792077248 0.257373339981989 0.3554753237627491
Ni 7.868362302654193 8.81866614633408 11.754380133973406 0.019790038142733658 -0.4875816895134119 -0.33862945585000387
Ni 9.080578582875905 4.690671240296365 5.717226055167712 0.25190897443330806 1.5535949987442728 0.48278452523508464
Ni 7.89377144792871 8.874870415307889 2.529120592511227 0.15622717005826645 0.8716301969281632 -0.053699289295668806
P 8.37458996219539 1.8970140177217312 3.6866642130859724 0.660277803760979 -1.156989223489801 -0.5064289041269021
P 1.675627674302107 3.3923336176657606 1.6138663428829734 1.4035449040309955 -2.083090297772335 -0.1374930839838729
P 4.948229633775475 1.0161938217537076 8.145802650775607 -1.9911656464468805 -0.28604191156127506 1.845893689848537
P 8.601416596427264 1.7185435124732824 12.50286005099632 -0.07713489461078973 -0.05937782773768484 -0.2027163147587412
P 6.375459603952876 7.866361796382135 1.3145037047630455 -0.31720342476574404 -0.30860359891187494 0.11390604069255222
P 1.7199013221602 3.022230905270342 6.047010871926258 0.20647141092579924 0.6425960702104998 0.2903827050284741
P 6.795457296310228 3.787546757204576 6.256828676813344 0.23472372090327315 1.1319916730041988 -0.7827199069490004
P 2.592674232717092 8.493353049477783 10.039678317707642 -0.8632795109706228 -0.6730001364236539 1.9131684038357955
