# total energy = -381168.1098539634 ev
CRYSTAL
PRIMVEC
9.25597047348833 0.00000000000000 0.00000000000000
0.00000000000000 9.25597047348833 0.00000000000000
0.00000000000000 0.00000000000000 13.54704839578374
PRIMCOORD
 96 1
Ni 2.376738801884292 7.0392394734126205 9.54400407992277 -0.9154945024112814 -1.502597424650483 0.8979130418840923
Ni 9.26393045090881 8.040457782541575 12.419771116641492 -1.1382942181834592 -2.0014415744515914 1.5375811398145196
Ni 6.693501214182762 3.38293682304349 7.702296460612751 -0.6198356365855325 0.79157272935394 0.43996511607671324
Ni 3.0730099129679243 3.0229258575856854 1.5827561145581646 -0.4881694436960818 -0.48413075485033397 -0.47985218207963815
Ni 6.44258111487448 2.7531328348021895 2.759872106789587 0.03406994510051552 0.48079192028508805 0.6484324743866188
Ni 1.339163041352374 6.929361849786201 2.928790788273461 -0.17421846442936448 0.11196640046767813 -0.8156382549435759
Ni 5.92182171293112 6.980417782051665 5.712682138034202 0.02179806971169794 -0.8240637600031098 0.21636424455947895
Ni 3.4619457856645934 5.089237926997325 8.473611276633926 0.6282279744142858 -0.8985105662587751 1.070352560036163
Ni 3.6410395553173265 7.425435578895624 0.7237900364314301 -0.3718823043658627 1.6515440018869365 1.3004135853564442
Ni 3.481179691982149 1.3744930800502129 11.739411018531815 -0.43515792449605706 0.4865239376728588 -0.7389808141898371
Ni 5.122244717145738 0.1174758496591826 10.174605007208317 -0.04186990076090854 2.2155165087562616 -0.4821250372742148
Ni 7.855106976954931 3.6504991569807252 0.6527985952984241 -0.17525796143747235 -0.399647390294273 -0.4769972291293463
Ni 8.101834121709867 7.172988244485131 1.7997391987012312 2.109436648976348 0.9129565664807762 0.8937301141509962
Ni 6.128489018156518 0.2873330865331436 4.635095594615422 -0.04914560848671536 -0.5322294101297737 0.5892225396853659
Ni 6.096407825039748 6.297882530917626 1.0502323743426134 -1.7316513488624885 -1.8480950683752302 -0.29616408759694157
Ni 1.0334661097114202 0.46756441493776685 11.73782639641364 1.8650080420804849 2.3577201108419263 -0.9669355918003928
Ni 2.198922356135227 2.1524203612654493 3.606048285133069 -1.2643037270077646 -0.7094956602465265 -0.7547110804409002
Ni 6.990210598646455 8.006062596845696 0.06967061416885048 0.24101726722146877 1.7419830698057999 -2.3267285475564186
Ni 8.26230487908593 5.04761382848431 2.689035240360866 -0.06667847516415613 -0.8311594905076266 0.009662462790428521
Ni 4.124117902102473 8.161729505627529 4.7323221580133366 1.0945127022221341 0.858095395666522 -1.793823194405543
Ni 5.5045440591255215 4.7188417628444785 9.702734714879343 1.1948438324437294 1.325410364511098 -0.5608653286989115
Ni 4.208902590201033 3.4212472841832215 3.7041291745911904 1.0239220364877657 -0.545768325156473 -0.7214705732202156
Ni 1.1809414847632058 4.903424322894858 8.986014388575606 -1.1589939126246553 -0.1279632901165667 -0.21238032021106648
Ni 6.024211256571543 1.6802362915427491 12.420489379938047 1.3143201681352075 2.7592858012048347 -1.0503761169142363
P 2.6605731316378227 8.633460032804724 6.172848255898041 -0.25280577521596465 0.06581664138449311 1.7826790048632652
Ni 8.166144603468469 0.9724507533854697 0.18164656626600642 0.2673157959066816 0.605976104994621 -0.004435667173850425
P 4.4700968165605595 1.1155850783588463 3.3931563398698676 -0.07011269765668571 0.4993465433588239 -0.18552566191206757
Ni 8.475784578464225 5.760471638374995 -0.2641468808904697 0.9892147149135673 0.535828954555574 -0.12369911552357409
P 7.815648775495961 4.898129907873857 8.87823416782289 0.028441286059828437 0.192028753137908 0.4559707474763502
P 5.60455481839462 4.730152558571164 2.402257512046708 -0.40546014032130817 -0.08710820377341773 0.41047173460328656
P 5.8342787456782625 4.732225895922046 6.325753183137447 -0.3829411332831857 1.151272889831314 -0.4883933867814298
Ni 1.9001581462612844 6.021369673684396 12.705315949709501 -1.2972925232289592 1.0832654114430893 2.4604187128544335
Ni 3.0752128339032363 5.378986821783059 1.3362835089869307 1.7111992516557237 -0.4482093583633765 0.06369882371054192
Ni 0.5130269643410088 6.2246863176552445 10.875651273378198 -0.37645655400010647 -0.473581518579578 -0.0012004480660043843
Ni 2.82877262422811 0.501402391220596 0.4494384482670889 -0.5673378237971326 1.0470725064622999 -0.11313856639890837
Ni 4.142759426319777 2.9603369863059408 7.12855125659295 1.0952320968866622 -0.5583991265466061 0.6387224461877065
Ni 8.152380975607928 6.228314658019287 6.4431383242875295 -2.2968577281389155 -1.477471576117133 0.7534155015579282
Ni 8.421072537923768 8.932390850144364 9.445598305906541 0.006756087776910945 1.3367383879294075 -0.23802707424489328
Ni -0.36221943997530615 3.5055876857065926 7.083846771158624 1.7689652548215984 0.9051316711197187 0.6193599825006946
Ni 1.805043795289581 2.779364254678971 10.646029161768038 -1.0652088110516944 -0.6209926330081111 -0.4797323686723222
Ni 8.478413274034093 1.8599779791176327 11.228294486464119 -0.7345855133356187 -0.7197497338743669 -1.3047996302392821
Ni 1.7882719770761981 2.943343024804963 5.815273461827522 0.12520629619671986 2.1517294962072877 -0.5648502814885885
Ni 6.161884559058221 2.2600858079862407 9.772976422416717 1.2111124876967656 0.5777801021763792 2.270410332580664
Ni 1.4605643480227575 8.812470498724608 8.38657090856925 -2.4273440417876517 -0.6404296586868002 -1.14211950546682
Ni 7.644385556730934 7.075782044221913 10.595336063538976 -0.6723342207048808 -0.5025388250438765 1.380689853809693
Ni 5.131676550898186 8.935362016615938 1.8202217354144739 0.1352747361763154 -2.1155368483368147 0.1135165185636174
Ni 5.9152592299767655 2.6682833549114147 5.479496477852213 -0.9035702401698696 -0.5648847342709498 -0.38001033278963586
Ni 4.000235995387285 6.187107078170511 3.4099679587556118 -0.022775346023302712 -0.6780143018087936 -0.35494824761468546
Ni 3.9235132574343408 6.597340938565301 6.90587852749637 0.5591051514746952 1.4643106132551427 -0.45938954334991206
Ni 7.333773704851952 0.32362574614389183 2.657673236137683 0.8205236080603352 -0.4143818682909702 -0.7520026803708016
Ni 8.960408672292216 6.676025942225329 8.416252954179999 1.0306200173332316 1.4314686270244572 1.4008730136257872
Ni 5.255391850147679 7.35115641710622 10.828656860887586 0.9697573775199039 -2.2110708142800823 1.97847956633878
Ni 3.7823597101086817 4.652041425070755 5.636167659413378 -0.18660089725411733 0.2655057392811363 -1.1927406700577974
Ni 2.885770889436727 8.229270321026567 12.149818891168552 -0.4482492104623764 -0.718796368822162 -1.4745150645919702
Ni 7.378665160886669 8.534365614596954 7.0542730204005775 -0.18879456247132648 -1.2684280335887834 -0.6251989577799749
Ni 4.417578440985098 7.513413576753355 8.856301220561063 -0.6756146912283654 1.0101455515289635 -0.9571543440439128
P 0.1482158526771004 3.3988478360174446 4.284918172021801 3.8329836235641475 2.1042594756507826 0.5136004821746768
Ni 7.645144546296881 4.268983093525024 5.063425802575878 -1.2660937290286518 0.970389097566632 0.030020200511174103
P 0.06991774857629933 1.7604022504534071 8.920812556875532 0.7248590300764742 0.16251788816298463 0.06081918816990171
Ni 1.1727684629737922 0.8775354057755698 6.522402751689366 -0.607589729338644 1.4238023687284511 0.9732250243535303
P 1.4006689641050958 7.776421973294903 0.7747367482471609 -0.06119714033461073 0.27767451343318633 -0.09694910112323948
P 7.199451063619823 9.16479900881977 11.481014871998946 -0.028319929990615743 -0.036482154086433946 0.4416378757934459
P 2.0172369147938918 5.1183942334941 6.8783919980446795 -1.085540580630511 -0.4225487203724787 -0.43855846553717376
Ni 0.5180548074168972 7.771266397828647 6.279775076187581 -0.12393462857314783 0.22732357178446014 0.18769181632545096
Ni 2.2049850166924934 4.6240791387448 3.4863732169267014 -1.373001741136816 -0.25214988679952055 0.1827085041782466
Ni 3.3315754437575826 0.8616364255630266 8.220619691168825 0.7395158607577006 0.24328420887877458 0.7389134512870112
Ni 2.1206908950207044 2.914556957120845 8.186020874125985 -2.5168634261057234 -0.5351684381534396 -0.2263982317567133
Ni 0.39259012977759816 5.548806109178722 4.876774533159774 1.3407472519784847 -0.7993431173279781 0.07647283554675861
Ni 3.930806962043693 2.836612431086132 9.560192772006218 0.2734684457716387 0.13140574013921238 1.0667717846634401
Ni 6.3552232670279505 5.617818623858074 12.529474728025964 0.8697849161893084 -0.5619251374219935 -2.4199472351029483
Ni 0.2813268873948079 3.674092625317322 12.271552487173297 1.1908480810207749 1.3934391830555615 0.08691717080853419
Ni 1.097535936241795 4.542515528316359 0.9961080879172501 -1.8395605485416577 -1.0055538183932229 0.2353788379887688
Ni 5.089274950878591 1.7184264250683667 1.2340096649754637 -0.4995841132909268 1.0469228682583132 -1.0810118395222221
Ni 4.835254101514303 9.203942507287982 6.753731664225879 1.8859226807459648 -1.4504747358133148 0.9593104711549673
Ni 6.530401761236831 6.945985572474521 8.525848270711768 0.5271530240481308 -1.1141078507452424 -0.1419115247665427
Ni 2.6016959044549695 4.984330759430831 10.95223332058233 1.3031052732559945 -0.3415967660084439 -1.9565850802585338
Ni 7.75562380799387 4.259032925434854 11.006854652613688 -0.7454695072379742 0.5346896987448082 -0.6795356235493264
Ni 1.196759938033996 -0.047666395935585575 4.4325268330461425 0.34931701747083704 -0.3339441345591926 -1.4673859097463569
Ni 4.233939989906994 6.167623260654413 12.564507650076644 -0.5273355723725822 -1.245225627330391 -0.47069751216356354
Ni 7.981413947893026 1.9798983305373865 4.5460235410662895 -1.5084469414527246 -2.6018810658987 2.5488230097314557
Ni 0.4572967670657436 0.17490636868157722 1.9956020097762528 0.2269970416829768 -0.4349383522860832 -0.27227622523575046
Ni 4.957988267910253 9.154210178777769 12.738356986948084 -0.20760655297150696 -2.6760910735532106 1.1627780622574362
Ni 8.758360096254721 2.432802214090949 2.6241305253079483 1.6045126115297463 -0.28164558226579234 -4.500010830233817
Ni 7.7992934759468175 6.892495320015834 4.336654418105524 1.5779541443149276 1.452392264551002 -0.7443035119543311
Ni 2.437171032080307 6.756663955622126 5.198638868152448 -1.6230168409815209 -1.7044488203057677 -1.219014773262978
Ni 5.294738979962851 3.8126267330434294 0.1501077730097801 -0.1955460222625471 0.4585999575690812 0.3579237853032416
Ni 2.809399878355808 9.014991129248243 2.682545879572012 0.4655493923037208 -0.20253222377239313 0.3589475985820657
Ni 8.076435739161566 1.3220394962669664 7.093058312817542 0.060580846906850505 1.1175600709599012 0.13515260877615434
P 5.957679341936995 1.374854062892554 7.937960869645483 -0.9225460099414242 -1.5201598590142789 -1.108802122261613
Ni 2.9591614780757536 3.6202599019569264 12.792761729274035 -0.0740904513575111 -0.26382475203428757 0.15340795544191643
P 8.418554913997697 9.114974120606393 4.997885202362221 -1.0978793047015223 -0.49644685321352566 0.5778140407381082
Ni 3.5082626611280423 1.2574420794285548 5.418995753475856 0.016092020465856158 0.8672816901514805 -0.6857610356337479
P 0.8218542651429818 2.4264526184538737 0.27063068809713364 0.12399247839427678 -1.2740986016109992 1.3729585466037064
P 5.011358192754827 3.7284992188373365 11.45226767939016 -0.3632727083199808 -0.8017704958225482 1.6006225324467207
P 2.564838630654918 9.079320122947477 10.051950442157086 1.400100397125821 1.2506110600120204 2.7287968885873584
Ni 6.054024736960784 7.140916307338677 3.044726444471989 -0.4871751981036126 0.8821164411714679 1.545041966967939
