# total energy = -340897.7421784605 ev
CRYSTAL
PRIMVEC
9.03318649664313 0.00000000000000 0.00000000000000
0.00000000000000 9.03318649664313 0.00000000000000
0.00000000000000 0.00000000000000 13.22098152632751
PRIMCOORD
 96 1
Ni 6.086136646581371 1.9408524305066992 11.363076814252196 1.184787733759308 0.5022169229280834 0.2997788015313934
Ni 4.793171466599353 0.3465347219096808 6.021310885463384 -0.4808772809100429 -0.332057459059441 -0.49212508590972026
Ni 2.9089932495219837 1.562018646190593 4.826292548996545 -0.6917550484336538 0.02414780089079712 0.02142320287078246
Ni 3.4137406234127528 4.397093328850573 5.023166336785123 -0.38928095945828445 0.03446743764925032 -0.500980479417821
Ni 5.163505022219731 4.605082452887923 2.7330945212780193 -0.21744127967374163 -0.6841687514459637 -0.5810777990910444
Ni 7.198564556942956 6.04763720481602 2.635959761248225 0.8497781340500785 1.1639489426370857 -0.7180564053323439
Ni 5.136179632416779 4.654846278482787 11.550973421086665 -0.21297784458574937 -0.8704240924352042 -0.333823035600296
Ni 5.726480317654246 7.841447422029345 12.33742343253843 -0.7863611032460135 -0.571551604768164 -0.6625244337033106
Ni 1.8698696493260047 6.630440345082762 0.3174279876871772 0.0399117485932732 -0.5064299325681666 0.18306023109071054
Ni 2.7404430186680035 1.60286671650099 0.3433171008029662 -0.3953029972826483 -0.13096171062325834 -0.0822004820591552
Ni 0.6240053114962364 0.06492151289713041 4.496905525421722 0.31866046892724476 -0.2107687527495725 0.8718636530952081
Ni 8.720024194797928 2.4691854549017687 1.4614079159141289 -0.39574805523986684 -0.4680924704405487 0.11894000357203385
Ni 6.946141187470658 0.5626112580100328 4.72494109740972 -0.1545983762055918 0.5770851329918836 -0.1792449711096784
Ni 0.890119378748818 7.3039457131218795 2.5094219784717824 0.16243715552372026 -0.1475280996223717 -0.04818992944166539
Ni 7.575790434024377 3.9616033974785605 3.611430107961399 0.8460909150064783 -1.2768298844992332 1.131362266950316
Ni 7.518809092246848 3.8970522452366105 12.63976148182368 0.7202223026354112 -0.8352064068834906 -0.06119302656955268
Ni 7.809930633592154 8.942177355599254 6.869873088744936 0.8582167517357348 -0.3188085644693348 0.293571644279417
Ni 6.639735494209121 0.5553395427070983 0.4272372119921858 1.1302361237656728 0.8697545771720053 0.07786405946733041
Ni 1.7261245491824073 6.4043577480618366 9.319721200852927 0.7053530988330626 0.09900726920384885 -1.1953241145142575
Ni 0.1726684606758534 4.864614940302345 1.4288044351155185 -0.7307445423229737 0.36617214135496295 -0.8370259765907327
Ni 6.340863478665159 2.069358544667626 6.934762082169903 0.0403344379529886 -0.18253932559023403 0.256943451533422
Ni 3.575461765112673 4.488147850904709 0.5317213727306356 -0.026299814236793412 -0.833999531059583 -0.5163014260456076
Ni 6.094356846489036 5.635416762413398 4.762303260968064 -0.6418165117319978 0.4655802455416562 0.6142676555794517
Ni 5.33120613352281 2.820034426784967 9.138686202644678 -0.01169723383227018 0.1307789051884909 0.24974847644687959
P 0.248211194508624 5.633971452539522 12.41447561187073 -0.3133413707071765 -0.8701813802967787 -0.3484662394347676
P 3.943564123615256 6.1495315509242205 12.498429145850784 0.1311026070764968 1.3243991496377645 0.3071285570282452
P 2.3063803307964426 8.612655737542426 1.3785916601410815 0.3249830687111629 -0.3711323135737157 0.014123840995891803
P 6.405866290242694 7.663150382713419 5.820431782686831 -0.8500010486941618 -0.012087527292153377 -0.9563830130955271
P 4.673517875415913 0.8682997162466587 12.648420694605534 -0.028992273467292006 0.9957448027226014 -0.8160483458978011
P 3.8395921445633605 5.9847029929954685 8.168028737811508 -0.19054856904795572 1.2880427224959172 0.37810206002332947
P 4.662479321254191 1.1129157024440182 3.6720220144676023 1.0561207327074973 -0.6853476022454132 0.34906042137534077
P 0.29635898300076186 5.525681610239425 3.519861597583366 -0.16056384976040736 0.007306303853426126 1.0195966696395342
Ni 1.665647364147443 1.3074273119074813 2.6588055937608353 -0.5309214899516276 -0.4971287097718986 -0.7048201091477281
Ni 1.8929313750010255 6.552673640681565 4.971194800357914 -0.6436029142084593 -0.6792669432689721 -0.4545139604251656
Ni 5.876747378603705 5.602987622118324 9.179565889108565 0.23250691575761248 -0.04199845591897283 0.5883427081835739
Ni 8.537436391793936 2.241738846687375 10.251258643993651 0.04635519022577178 0.5500163017995496 0.4127314771717408
Ni 2.1859498855557935 5.095548358587463 6.974094383750074 -0.06733050692585824 0.19830378751334235 0.7270586088309543
Ni 0.4962254655469325 -0.0013893041162625099 9.275603116952885 0.19921472936338594 0.5299038473203905 -0.28975355608490744
Ni 1.3817072062379536 1.0361968477013819 11.542366600787737 -0.09997606087502137 0.9800500176951638 -0.2984405423359441
Ni 4.047743865961521 6.766615634761937 1.6025288753179718 0.6921620540640854 0.9466377607833052 -0.26165216986300105
Ni 5.553612223552064 7.715868060363015 7.870107013509618 -0.22397650968909813 0.3938690930495991 0.8347927163848398
Ni 5.221452914975414 2.9644841154920787 4.787396550334551 0.4561828634871562 -0.6237187736900226 -0.5158854215541115
Ni 0.8491041944842542 7.567208906648243 7.085745474825603 -0.6873849443904162 -0.3686499134714941 0.07959672588772099
Ni 5.113434068276668 4.60380877356157 7.089460824520133 0.07659573427786809 -0.465749681239985 -0.4982353125725161
Ni 8.276774756040547 7.103083773400078 9.189613502688012 -1.147749450059088 -0.1955812463758567 0.027994942551029207
Ni 4.67560454154632 0.27328009427098887 10.276642801972255 -0.8800762708129874 -0.2273117447099182 0.4161407599636059
Ni 8.325707528457933 7.16381388766297 4.730467601039949 -0.4613893473887602 -0.24181276653957062 0.18653199168939485
Ni 7.256530516072062 6.013058166083558 6.952927820647173 0.42393480208672796 -0.25633564274609405 0.38543330357742006
Ni 2.3885913630598044 5.210748588722026 2.4782330947122277 -0.2517081712764117 -0.16217747410443037 1.1352963118973998
Ni 2.3386920396642643 5.0461729600212015 11.322712922749545 -0.4130880891802111 1.9007836570181977 1.5316483192698527
Ni 1.1507557215794126 3.3955658517487723 3.7929411551093546 -0.4824945047984916 -0.029185620425020705 0.42755748644097974
Ni 3.7187732722941083 2.732475747988267 2.39249550635661 0.05575848581754268 0.075443880061612 0.78420291925243
Ni 1.081326648513134 3.2217492730418598 8.305777608615866 -0.5770627643943803 0.520606995399497 -0.04115976206776137
Ni 3.715873619359646 2.695033189068188 6.945682301585702 -0.2302134917377455 -0.330697859707753 0.6679862281488302
Ni 4.086514303328222 6.932049416200375 6.080659825478055 -0.11682655677345685 -0.42444208074044965 -0.6892214833785227
Ni 0.9217463720638915 7.429750904456002 11.352949708629687 -1.2588133933171546 0.09225786629515723 0.4326927507850161
P 0.1593869662536117 5.544597103213767 7.906821497580733 0.5146757175167265 -0.3891971414952265 0.41221597098790297
P 8.518873193101351 1.5508807269750426 8.096013463389664 -0.1054748792060635 0.8619913882868188 -0.3184725212861547
P 1.6791700446548876 3.220051033940056 10.53129194865032 0.08540407659811743 -1.415412344892543 -1.2968096700552698
P 4.013923614912842 6.071114457079781 3.77949525668896 -0.3081174033040758 1.23832941443119 0.6928120289432584
P 6.902510895653051 3.9092380141107204 10.446069251937272 -0.36157886555732566 0.007078247003020068 -0.770216375165351
P 6.274388257653612 7.662084466681437 10.138378136206658 0.702588648714048 -0.1502627249447154 -0.011524969920464022
P 2.3727652199408715 8.586685325746231 5.831867797063868 0.6449306318809473 -0.6064448171009232 -0.3938865765510958
P 6.878880079215191 3.892969244842913 1.5579338391595534 0.36732888066722547 0.5517281422843336 -0.039308053571003275
Ni 5.388151342553491 2.8039372880646822 0.4632669805105515 -0.8457507580582403 -0.020216069936558733 -0.47644058529492783
Ni 1.6996844116772032 1.1050026308845518 7.176044822470639 -1.4217064054313708 0.7238647844840049 -0.6895073900500577
Ni 6.72849558683848 0.6223675947454017 9.066883208110559 0.4629842026797059 -0.14782403359623572 0.28012708873873693
Ni 2.7265861102522257 1.623471415390423 9.357017422148274 0.37224277302907505 -0.21781897472813455 0.051085762932221696
Ni 6.506532122958101 1.8808178716206094 2.5579292877950466 -0.5787447800824935 -0.09913325325875184 0.3152234182212378
Ni 4.005333054349997 6.956249323401072 10.322836712178647 0.08493587871244727 -0.6877731809677704 -0.1772521090493657
Ni 8.130861691086135 7.265744366518017 0.04673499809042488 -0.3156491929047467 -0.06291103770192391 0.6858047443874898
Ni 7.554797308106339 3.786666703619394 8.307166009413457 0.3459481009986042 0.009388126083119315 -0.607049797674774
Ni 3.1250580424796106 8.31260940772594 12.334726122986313 0.5744330400810171 0.22621439788068137 0.4467602846216758
Ni -0.024205327112724457 4.809548634107701 10.137835241685282 0.4578869906624566 -0.5291338019235854 0.28323015314409283
Ni 8.555683428951609 2.35894444427194 5.851197009989606 0.45376088430922495 -0.18695288127689735 -0.17338388434321106
Ni 3.599128714297379 2.7922122117128696 11.586286857898793 0.12518315626826826 -0.5925521182792312 -0.09405043941920577
Ni 0.9742111204855602 3.4430623474789956 12.61035755575836 -0.2830542896878609 -0.3174649059572468 0.20606286263347096
Ni 2.991692073867779 8.355733841087691 8.041780920328511 1.0977417506823934 -0.7090297763537015 0.7429637100969849
Ni 5.6613962073963044 7.8528653700329585 3.619058634139446 -0.8926561643605272 0.2618612005500135 -0.336604197889859
Ni 2.966507549315504 8.140617532734794 3.6340383676634915 1.0927175579949246 1.1572121381338847 -0.5481093145848237
Ni 3.4731247928555993 4.2554981271443655 9.447819014974481 0.046663979715442214 -0.05156141701705958 -0.9509435872475107
Ni 7.2340649807200155 5.939374462076059 11.361014537725909 0.13794534102994307 1.0918935194317325 -0.3133891932259764
Ni 0.40355400307139877 0.11942956815299023 0.37662246020907725 0.583240353960002 0.10140482290174795 0.592291922639309
Ni 4.400571105734586 0.34360616277774125 1.6207732025196324 0.5678186200882931 -0.7176511994741254 0.27874717767207474
Ni 6.133027918801909 5.647168938325346 0.41548413276156715 -0.8746011066310293 0.2276768413588208 0.025307882637169318
Ni 7.962916683741842 9.004488277536696 11.319883728671435 -0.4339618473054268 -0.3167550243744158 0.09623536288566652
Ni 0.07397547593828721 4.8674513609298256 5.639845733858155 -0.34490011935006404 -0.5542143990412971 0.2907812260184734
Ni 8.131864374811137 8.672157338412523 2.4983427749698577 -1.3655668821253257 0.8032280542046812 -0.08043927639367437
P 8.479289768930593 1.6329472282510171 3.5544216666237354 0.4475344437835389 0.3369325277635552 0.22658026586053237
P 1.7827355303047554 3.293563107400032 1.4803667681846864 0.9633895263203472 -0.2043703054223964 0.36143539800092594
P 4.617774080217889 0.9810582760130439 8.131353096443254 0.3859087005519419 0.17573670084610382 -0.09583015702744786
P 8.355453812299627 1.7538293328272518 12.605505831175496 -0.35166726287056854 -0.6661095799514076 -1.0705893586373174
P 6.327756324746454 7.663809805343375 1.3743740652653795 -0.14325029818262425 -0.18932883770824166 0.7911793505702633
P 1.7014639494594122 3.078419699487001 6.052366981378277 0.25900239094497973 0.6002731410725727 -0.4773525555862359
P 6.8586186414208035 3.9236459469159137 5.8884534852634225 0.9412145328852048 0.1992959762232826 0.19574991074323705
P 2.3528560764282407 8.563777164245309 10.260433651736744 1.111217159461009 0.07365619203356992 -0.7956291588115008
