# total energy = -340873.94387180574 ev
CRYSTAL
PRIMVEC
9.21981935825813 0.00000000000000 0.00000000000000

0.00000000000000 9.21981935825813 0.00000000000000

0.00000000000000 0.00000000000000 13.49413758443685

PRIMCOORD
 96 1
Ni 3.2426935230612406 5.7876403204721525 10.682579908389169 0.6167307724079637 0.9029747726777159 2.1481834307272423
Ni 7.801626928352589 8.646116302365748 1.0705731797325075 -0.36142511358828083 0.007088788525981339 -0.2665300667805926
Ni 1.1075492661398418 1.5125943797284234 12.292566008238923 -1.597162341812262 1.6658987279467115 -0.972466291810635
Ni 3.6868214518301463 3.2520332002911694 6.2957713147518595 1.1363805461005139 -1.683449078125649 -0.009874321690918477
Ni 8.948498724981716 3.5407887295746256 10.611911835307277 0.3188687282833089 -2.0934623850352785 0.6261325253378378
Ni 1.392792044165052 6.876491792512986 3.00297176022589 1.1894506864526162 -1.0537154657001144 0.534793314202208
Ni 4.31838831256791 1.980389585347504 2.06139123220956 -1.3117464938707601 -0.5764804095283491 0.9091947854454987
Ni 1.8795616384704046 4.36871930763028 6.9271620769357325 -2.2032623739792574 0.43250454603360994 1.005119816179598
Ni 6.3705449734907 8.637680167454214 5.469606332144903 0.7793237367832578 1.0564953424380965 0.7593390661312148
Ni 6.978121863693149 1.6449356699144038 7.2109435135582345 -0.4695119764958946 -0.2993627970398974 -1.3236730701050172
Ni 6.60985461039103 4.102358720095587 10.14975086143075 0.6288326978778201 -1.0343275480918055 0.6720064050518167
Ni 3.6583875282594644 2.852676715380639 9.951805023073712 0.237594614693165 0.9262381140810305 1.2678767890710037
Ni 5.549040609679133 1.6720603791053719 4.958677122624047 0.5279346394091617 0.22946247250433385 2.5018121881995556
Ni 3.1446868409742286 8.177223938217189 12.776829655583667 0.7466457869342625 0.4839767457709729 0.7794929153712704
Ni 0.2934327437540807 1.964872629002025 7.434123076111316 0.3797992452200943 0.5680973276709764 -0.017752695997730716
Ni 6.7700581953340135 8.759695259715691 9.550138973359532 -0.21686560967592974 0.05760942298335239 -1.0868117340334509
Ni 4.674088951788693 0.3838303087454757 7.002688072951929 -0.4958418726396751 1.1059613103787083 0.6619857875910212
Ni 7.413564722421982 3.1243018198929127 4.8759587453570425 0.6895906937924833 0.6936604929864827 0.4307202004396775
Ni 6.210839258804791 1.7081375331041 0.6600902165583269 0.8809054515825022 -0.0813677017452147 -1.9422540083478421
Ni 0.6950434745508078 8.381157127406523 12.020254027168278 0.39914345407466095 -1.1113791389601697 -0.7795970450493026
Ni 1.9538088455114873 3.2418545194798747 0.7965269505997215 -0.08015414105308777 -1.2467734314334848 -0.751693376660499
Ni 2.72355314222649 5.175029408781509 1.8406678295913772 0.416074939722677 0.46904017906579865 -0.3065240906750269
Ni -0.26243939826925466 6.108868054300335 1.4586888606166515 0.40287078232757717 0.9959805728824911 -1.4549227442823394
Ni 5.66484154354676 5.71886046643931 8.466990881708071 -0.5319658720557419 0.5473418402911798 0.7776617756998027
P 5.696631481442904 5.735622098427474 11.063101223889017 -0.9226874206152949 1.4087177064811869 0.8619497364156058
P 1.5917741902423708 1.9594882543699634 10.067450141990514 -1.4409583116824476 0.8228838807623957 0.6391950149487508
P 7.793402849291289 2.7846067874551066 12.289975238938222 -0.7803424078557594 -1.3550472135409242 -0.2769435488044327
P 5.697055593143375 4.0820197981121495 6.089431752653334 1.021345791120157 -0.40900646291166975 0.7409813895596336
P 5.057015718215776 0.41402982776485564 3.4794501919211274 0.6469116668667181 -1.4619433985745467 -1.7521841787085177
P 7.975466626447661 3.359167503757875 8.182737390323307 -0.11952981463723285 1.1497572245177359 0.3194801366150627
P 5.341161337711506 1.202919079828276 8.911393561100326 0.06255596835535032 -0.5581656703795613 0.8283603304959346
P 5.164804628872338 0.07329940958872667 12.86621488438568 0.7942628745915935 0.6655493365725634 -1.137586650593473
Ni 8.08698956403228 4.900260345794008 6.540500361598636 -0.7656709218865136 -1.4819702353184347 0.3446178122229549
Ni 4.432797053679644 6.0391662183099495 13.420351856364915 -0.5830477783332217 -0.3674291536905156 -1.3690612684318293
Ni -0.038891042933154756 9.582158484763106 9.783762747527684 2.537800947589339 -1.8720857748628728 0.5638318675264031
Ni 4.053659633098071 6.171913180557248 3.586283007287716 1.8272200246984336 0.3062317562455888 -0.8662727892709919
Ni 3.917418359231676 5.722732790660998 6.625635253576366 -0.7751199831145553 -0.42204529837349897 -0.11299278484966348
Ni 0.5893419310461266 4.018873253839906 2.747460134385627 0.7116430456068324 0.9061750247825684 0.9062483012226651
Ni 4.134895463377344 8.329885710747456 5.109285641334862 1.1322582964020242 -0.3047996517847525 1.7005068049388843
Ni 1.6774263140982826 1.3272944459010696 2.4909232646085737 0.12411871955949591 0.5126185778773816 -0.1614367392836639
Ni 6.608351779800231 7.095997256965251 12.852140829803757 -0.18812350454623084 1.0598984545823746 0.4999060154067197
Ni 3.192039834313729 8.482943935519469 3.229524854761628 -0.8389105952079552 1.4703308513072937 -3.278525741053476
Ni 6.639699166356754 2.132212354296406 2.8559534392577532 -0.343218360772267 0.5971556784895135 -0.19880078175441893
Ni 5.185816597684783 4.036759703816275 1.193374722603772 -0.5054143468194586 -1.1515482549798877 -0.019871542112946422
Ni 6.051695953112983 6.209096712905031 5.216213420843078 -0.45746944350906377 -0.8559577804982291 0.9777002865160647
Ni 0.8768057636070624 8.42780941445829 0.932141276734986 1.1702705139797394 -0.7537163206277987 0.6205313771009765
Ni 2.5728367516266415 4.724318528835734 4.639338529826873 -1.6432221122848025 -0.26737750238255237 0.21499230391261684
Ni 7.572357674969923 6.899725737843114 10.727934044844712 0.8463883916422391 -0.1168754077335213 -0.49191348411954633
Ni 8.530905436950949 7.896176178098807 5.0645796581954725 -0.6448717536185539 -1.610824155570071 -0.43221838225175885
Ni 6.7723539304083 4.6785513444632105 12.853153165993142 -0.096942159144704 -0.11376848667342343 -0.18212203554715733
Ni 3.1875866614587878 0.7831111911354871 11.246135848046682 0.3237893055133778 -0.10873529512489016 -0.4419006425365292
Ni 5.004103173672279 8.175020401338656 10.97572683773641 -0.09018118627178662 -0.8963832355031273 0.9025849934384649
Ni 5.933119853553146 6.125786423221283 1.5604618390002343 1.0629886634719241 1.5168799027114264 -0.6411709077281991
Ni 1.8082647736934652 6.658950149630289 8.66122574268599 -0.19382261181353716 -0.013923037838995376 1.130464180616079
Ni 7.344729549471687 6.830733827960036 7.212521946669551 0.10651900419986172 2.4327004210035588 0.5425945554141817
Ni 4.714711476838118 3.921087847422704 11.921827843290583 -0.9959317219224267 0.5348146543584467 0.003638882304167927
P 2.8290370979891906 3.3493944950079 3.053844880679297 0.008272524421437366 -1.323116940491231 -1.0641777986840188
P 3.375735519534955 7.342950124293626 1.4731141903243974 -0.26286958720986986 -1.7838892231212828 -1.2445874795257597
P 5.145867119464368 7.409434243252181 6.823499957521141 1.2210498014151356 1.2126361234301437 1.8029038165505724
P 8.168253053770277 0.6919124238229856 5.570231442991343 0.19194673494706296 2.20860306946588 -0.6279006729818541
P 2.2278587625721036 1.455892489339418 6.5990923150006084 0.0581221009537128 -0.36461379572890756 1.3897519640119613
P 2.4235678727001386 3.9556252915523324 12.216499730795604 0.1506062243270632 1.0913631008495592 0.3497700458478557
P 3.5463575005981958 5.05433275071932 8.789608964328233 0.4806373969850948 -1.4045358071893552 -2.0506697153497844
P 2.5928898592032406 6.910116474504644 4.983196310802993 -2.434728507177181 0.5605557678782926 0.820318948248697
Ni 8.415113722902898 0.6569434921372265 3.245556277039417 0.07571307456259864 -0.5327631711460566 0.860670612592866
Ni 0.5953550973732339 2.317798102530599 4.622187821452624 0.24436381509619853 -0.49790055494091673 0.6715603186533338
Ni 5.836108911980282 1.723838885841088 11.52897317514466 0.005036276872326811 0.38582899635394197 -1.0077796223999482
Ni 7.664638849100582 4.328447135724724 1.5625270785851348 -1.3428720116309711 -1.7527593344856975 0.9218482125434512
Ni 2.5099114830242093 8.336514761022205 6.941047125216357 -0.9765283776951503 0.45113655931250046 -0.6971484515350832
Ni 5.294748765968702 3.303581211537499 8.393771684549652 0.5464393830815686 0.12721895575137446 -2.02959798228115
Ni 3.1459868355343668 1.378215509416269 4.787733369857623 0.1409249924835573 0.21223968086814415 -1.9456442649763137
Ni 7.636675136328249 1.6911915047244266 9.414994858022617 -2.2787165384535144 2.2792731822879326 1.5839869807725688
Ni 6.350750020862214 7.645599921677282 3.3298134421935637 0.7534545823259798 0.6807206449963631 -0.10472411708296804
Ni 4.0891467186439705 7.866506798705016 8.743877737252053 0.09470324251185626 -0.21998101537645984 -0.08492842251327955
Ni 4.8955213585322275 3.691320723782965 4.071802394058638 -0.7851760817989768 0.3827549854143086 -0.9174667956463037
Ni 8.51040977803473 5.204431413407613 9.132616677939497 0.26477580309364723 1.7584378729277137 -1.7917917657978109
Ni 5.487913205893913 8.531145152259912 1.2732349558023877 -1.43348540034417 0.08669759859856037 0.8587404854496888
Ni 7.648273669354162 0.1645654815841289 11.939801881552919 -0.0008358656377340444 0.05071655251826104 0.19463790862598093
Ni 8.990116990545289 8.888108906762533 7.275593810403232 0.7484481302503239 0.1240302736107477 0.33451414813004965
Ni 1.6736738475310753 4.208654019980927 9.430607700491679 -0.1325007729756041 -0.9812787478959423 -0.6326258463716653
Ni 2.0148071718226515 6.220667586472218 13.179521871216595 -1.583611856821337 -1.467172765294286 0.02176053160554317
Ni 0.7020920266162378 5.67893864767762 10.998369792631753 0.3205219476160157 1.062900731743808 0.757893849044256
Ni 8.098044127703242 5.704366910066706 3.9680591402317815 1.7025631732472806 0.27606963083991165 -0.3516531218031815
Ni 3.955735929387238 2.0134518583450602 13.165393419699178 -0.3641671951097922 -0.016890605107751554 0.43328847538748605
Ni 1.2174218560204557 8.877791928657604 4.370913624689237 0.6663000986956589 0.7734382245367583 0.8821760907648096
Ni 0.6834836647671112 6.626284328874477 6.602506414189397 0.20624541095792223 -0.4367666637440736 -0.6933568457031349
Ni 2.971520189708164 0.941675492157957 8.851924802856729 0.2362157320677674 -1.532427106417406 -2.2582287029128074
Ni -0.06717468344475658 4.315447190123342 13.102713398297453 1.4147901379275116 -0.03662279342935628 0.08299598137725707
P 8.728098938030632 7.506730999231884 8.840266341003574 -0.05251221096610312 -1.1217273149637133 0.8725470523154779
P 8.730136518156804 7.767873168886873 2.8497733941963306 -0.8179129099103656 0.06307970206930427 0.1368593070546159
P 2.2488891710237007 0.7339898364014152 0.3616492668108629 0.2514253499286702 0.9781340316193735 0.6584548916196272
P 0.30188270839497877 4.475051486793922 5.105466792066712 1.1555969711279646 -0.5544314001481095 -0.5028391298931146
P 8.785796568933785 6.521510299219086 12.662858855901767 0.02776662859030702 0.43767991958696234 0.9541206994239115
P 2.662269001508487 7.976757401188223 10.544994384828673 -0.516564192788691 -0.31930555871041133 -0.11796067037790009
P 6.207354167005271 5.176421601537402 3.336182493556283 -0.4092915982522564 -1.1146835207430543 -0.9279183299969309
P 8.731067719933925 2.3602092725776602 1.984839070274615 -0.6389669580983447 0.033227651704878264 -0.13460239269963914
