# total energy = -340896.95962096605 ev
CRYSTAL
PRIMVEC
9.02065573660110 0.00000000000000 0.00000000000000
0.00000000000000 9.02065573660110 0.00000000000000
0.00000000000000 0.00000000000000 13.20264149237696
PRIMCOORD
 96 1
Ni 6.373075278156891 2.0046873993849106 11.465939987892503 0.28384438968932413 0.08218017034418104 -0.3548520883564534
Ni 4.606848914724068 0.4488561055278647 6.03942918431705 -0.3463931589558228 -1.147551475115669 -0.9577562392939698
Ni 2.7392664627738377 1.5608530929383595 4.7802935740306225 0.1642533827968526 -0.143573742960314 0.431734757747121
Ni 3.350569244062473 4.356318241317702 4.960298054231609 -0.03896249730612645 0.12877653004648146 -0.4206754146091658
Ni 5.019192111788787 4.381783552628189 2.550961175109899 0.481125649475423 0.6240787281326027 0.3992984915952865
Ni 7.143457324397866 6.027701429717416 2.5097954123874726 -0.19773428816311753 -0.4387363858759347 0.978370830220528
Ni 4.906343707788007 4.6206324767794795 11.377085626241977 0.4419389519736324 -0.295787163873497 0.24872749138153294
Ni 5.537780592812034 7.602762055533572 12.353790818032671 -0.18993536094398902 1.1599897008790216 0.6951172800376674
Ni 1.8835039094291577 6.519011447615294 0.41400480186223626 0.35956646311298723 -0.2664225946684508 -0.6692111016948668
Ni 2.681804885356974 1.6176922451053388 0.362513996516365 0.68718876921921 0.29019578582864863 -0.4735290680750877
Ni 0.738251372363245 -0.054140171952987884 4.507130977299111 0.303253133233239 -0.2718558498688802 0.5640300995801383
Ni 8.749269365820627 2.3846825247672316 1.341203732582054 -0.5119117816183442 0.716662867418927 0.6483900511844575
Ni 6.8710696019991815 0.7478610769821123 4.856340408582802 -0.41892963556265267 -0.18364952793527728 -0.9031282675364446
Ni 0.9378234591156708 7.190328651910899 2.5089375480213274 0.2833661645013249 0.14789165360937756 0.2550446918488124
Ni 7.566237420217892 3.6664275067393146 3.8393146895177113 0.4506009985240046 0.26253431535763816 -0.28016874060994973
Ni 7.630193869807462 3.8169912726207706 12.65713472492452 0.19507268217055437 0.042480537761713934 -0.3115796508210634
Ni 7.930617790418331 8.973576992829692 6.969925164730095 -0.15120194892953315 -1.4555102413546934 -0.6254072171360391
Ni 7.062469876666531 0.5350259200136718 0.42022815229550065 -1.1393414285010506 0.17735289629328813 -0.7440248043716476
Ni 1.9137591889670165 6.351281373755143 9.260953436898056 0.1786073375256795 0.33723694637785145 -0.7089120198289145
Ni 9.096158684433735 5.027382867251034 1.3994798752172448 0.3673877589296189 -0.932297175790917 0.08283785853283798
Ni 6.435967290362603 2.033490353339706 6.960591492178569 0.39774811638903107 -0.2991609654417364 0.2171556301125228
Ni 3.4763803304412795 4.291116941228362 0.412368454900946 -0.3983839502008171 -0.4294307922042927 -0.18501092705917813
Ni 5.905381337131439 5.572410890410675 4.791080474230792 0.5656846044644258 -0.08847268822111214 0.22396056884949817
Ni 5.239413381722523 2.8027177556388643 9.260161423319218 0.5316452554915295 -0.2344408995555317 -0.08087147883508652
P 0.2369464678440348 5.594159691533446 12.250875960193817 -0.1197972093660066 -0.23424523860495786 0.8866099581664473
P 3.911509704045244 6.168757424390493 12.713299132038001 -0.3546186321894086 -0.0426016367206105 -1.012085963084786
P 2.3450277218905393 8.50566655606515 1.2838882897890764 0.9180293530179932 -0.22944910276789515 0.8233507930964853
P 6.239894315993222 7.861781166043434 5.843357112013249 0.35324232066717226 -0.8366891620766042 0.5073025649811069
P 4.746497687093059 1.0195506006222304 12.487876551972624 -0.43311106926935733 0.26885640092092405 0.4322921729124878
P 3.964515077499168 6.1757213706645615 8.153515488926569 0.29604273152772886 -0.2996484466011162 0.1779995287383515
P 4.930519065319749 1.095937513897898 3.861297125625585 -0.9760707213324417 -0.05260065691485135 -0.792846453860041
P 0.027704238078912393 5.520379747782657 3.6610926909019 0.38173965677591676 0.03995957111207312 -0.2649760920299114
Ni 1.449971191900983 1.104281620508667 2.3483671686660057 0.15749215281361909 -0.2864700002376292 1.5860551761555073
Ni 1.703343371882909 6.517514018753253 4.807768687452331 0.439874613245436 -0.2619427045202263 -0.0876735893585845
Ni 5.984961562558688 5.600438067967063 9.276585331325949 -0.23505076522538876 0.682028050953877 -0.42210674773905366
Ni 8.567043098097226 2.2488855724228882 10.207648710988527 0.32377027934998437 1.0217543394124855 0.0617643256919904
Ni 2.344396275984859 5.02220501082446 7.07686684331603 -0.2311164631679891 1.1421261903350393 -0.41046684950728013
Ni 0.723225666004804 0.2764803939330689 9.093042047856416 -0.11193888966385239 -1.5273496918944987 0.5540164240978781
Ni 1.507396686694665 1.0145892399347463 11.348040016646285 -0.7416647887799033 1.2865607386337519 0.04244171410397852
Ni 4.21675065485087 6.939536379486465 1.68823467549115 -0.5563777252412031 -0.13332506864911234 -0.333878828538896
Ni 5.599084969597749 7.9744311156167145 8.198800985150767 -0.7701176448039575 -1.4251038611486941 -1.0012698463058884
Ni 5.256155718878833 3.021928712123512 4.942131355525201 0.24852103179768167 -0.6926778173582393 -0.3405685818542457
Ni 0.8143442122599815 7.485917501015419 7.06436421438357 0.017083437844847997 0.3139738620848528 -0.3403639220426074
Ni 5.093215613246054 4.615238124613815 7.093700289095875 -0.25298498110630624 -0.4512838835236421 -0.242545273830221
Ni 8.033904299275958 7.365987882215229 9.033326208556277 0.6578226573522671 -0.09518532435459737 0.4155586622078907
Ni 4.624917288282306 0.3075394139023002 10.189547863069425 -0.39061767599183694 -0.19058225049936856 1.1902109616574081
Ni 8.11523453192752 7.238462871235292 4.801748301774463 -0.29528991252210435 -0.00023191350514798772 0.04869592254380646
Ni 7.071057540983776 6.212949617132285 7.0760216078679985 0.23487875842389871 0.013046034550680758 -0.39991812745715644
Ni 2.520217878093508 5.034951197463397 2.6208297625077916 -0.7066553625842539 0.7065358062872542 0.125594532774074
Ni 2.288197590379355 5.189393845336885 11.319522115414626 0.33015869937483133 0.23270283381850246 0.3064443864770271
Ni 1.1210600402881594 3.1926626643635405 3.728399412053892 -0.5304820884213638 0.5515790183009791 0.32259837052907026
Ni 3.6034001846966732 2.538980842147994 2.7635771301425107 0.055802708791916796 0.10403094767068535 -0.5552834637357598
Ni 1.0190274025860957 3.393507565648701 8.147455412363202 -0.7500645828078244 -0.2735522637346966 0.5126502024462655
Ni 3.600026459429184 2.5787709548616182 7.054317007958624 0.5500193871233431 0.7381961135050126 -0.1784211896568024
Ni 4.001202084619165 6.884717854217661 5.86161672347435 1.0235368852342048 -0.27851757815977196 0.6884357542524338
Ni 0.7836730804899537 7.397659404712971 11.2309455899626 0.05360184448585607 0.16695664066062857 0.10955573414365648
P 0.19755055778867076 5.683572431777709 8.007745299534802 -0.3181843006217746 -0.5334224019966104 -0.34603911805051374
P 8.526639580789514 1.642147242966739 7.992139565008715 -0.32400630662019037 1.6658545049723374 0.29045006793129974
P 1.7033343512271135 3.209251650371329 10.354013361597213 -0.613144597718602 0.1549920120995847 -0.7640567833218583
P 4.040432916673473 6.101625703960932 3.764759871434095 -0.20953050946709723 0.24825235151732727 -0.1295728006955317
P 6.86501674196045 3.9636220325754206 10.408724541062051 0.04257978234373957 -0.23350733199766882 0.5853422307943532
P 6.365200245647484 7.871857238566925 10.340771038889526 -0.04234015552910773 -0.7448668406569687 -0.13399252702978215
P 2.5095644835991098 8.389074579909266 5.8824372991157725 -1.6398315985460143 1.5401645842709797 -0.44502376154654333
P 6.9870391529051785 3.879080446460688 1.6631897267407292 -0.31758960446056916 0.7408620903729499 -0.859512844839339
Ni 5.3356637790597174 2.8636613061927627 0.4658852995384699 -0.3368433104838586 -0.26609657878759974 -0.7932840556180919
Ni 1.5196828198880352 1.2185101848461468 6.993610700652146 0.10627500650985569 -0.9546621737496785 -0.34640832846447434
Ni 6.83429238832123 0.6871746151183838 9.208538916398732 0.8711041492213641 1.1277313550659482 -0.034390047444095614
Ni 2.8446277224644136 1.6199113264310137 9.18140748996283 -0.2690708309245753 -0.17457456221720255 -0.33767840479064426
Ni 6.38850059956707 1.8670772952256867 2.2956224921645703 1.2779007489659089 0.0029004614762466177 2.139561493386186
Ni 4.1636460541831966 6.801511325160651 10.343794762712156 -0.11652059549726383 0.5013825999522462 0.4345002363074001
Ni 7.941090771796819 6.946518367072124 0.32134823379393834 0.767861244669613 0.7083147525645478 0.03564757400028054
Ni 7.345141146672001 3.915866680794435 8.192609207012786 1.433999106755795 -0.13140599724952853 0.3307158574298821
Ni 3.009480207125824 8.545366462220818 12.350490160077127 1.495031182267451 -1.1218553559011455 0.4791289307603684
Ni 0.0012132782044847995 4.959736969441134 10.026429148451896 -0.3573036352207395 -0.9002023521389013 0.6896691124389026
Ni 8.691248507744447 2.0761851172194574 5.612376905912309 0.43108015488225754 1.2652249532704531 0.5668742538971527
Ni 3.4952154597421288 2.681741740766406 11.29138759205427 1.2212326068499033 -0.3826606259282893 1.269479100561117
Ni 1.1298461590329043 3.5552118414375076 12.627653417653908 -0.23736141563643634 -0.7706634900050985 0.040946874726006895
Ni 3.003743070039933 8.23318862710851 8.093536246477202 0.8656937768390703 0.5049276369910272 -0.5733963712863867
Ni 5.6684447920087795 7.840266901971344 3.6693312558398627 -0.339167587741661 0.1794768846148264 -0.2372344031402688
Ni 3.195828914547735 8.412185500057149 3.724095657173894 0.16476503232594852 -0.4523624612998016 -0.6842116888687572
Ni 3.446314484675125 4.227611524428563 9.203706551089123 -0.5248871108320895 0.5434928988587349 0.0805673173311064
Ni 7.211482089751172 6.072001870328753 11.409616817237021 0.20195166867857478 -0.39809598664675305 -0.5664299672708826
Ni 0.3838478474725476 -0.0787873097828304 0.40055319994009697 0.6608879265411521 -0.06435856878172787 -0.5348015417323241
Ni 4.641434109043732 0.44486446533838864 1.5882379998021139 -0.7836761002146827 -0.6124722542419258 -0.3622738347418213
Ni 5.9256507507037615 5.468709431386456 0.37427151928012325 -0.38017925426733234 -0.11038902867822924 0.24503487302129412
Ni 8.061624774535302 8.940020153270707 11.346006760829997 -0.4417139804470199 0.05922561843053671 -0.1381615708058072
Ni -0.15133593401754417 5.100305848701257 5.845641142060651 0.6597828664024314 -1.2642872719475322 0.20946726032932955
Ni 8.040065407184233 8.47827082441444 2.5676367594133236 -0.6714137657731405 1.0431531168032357 0.07637821895042331
P 8.533260742143357 1.4613552595148107 3.5000866138716593 -0.30914687300985466 0.22798151708343317 -0.6232168943529396
P 1.813043567011085 3.2852506754477933 1.5853604106033732 0.13685339351734496 -0.5070745081307009 -0.41130400069659484
P 4.857081906489187 0.9866071656573346 8.04009156708604 -0.7616404605708817 0.9938902660123656 1.845117473804145
P 8.684483015897879 1.7424839973792625 12.476404081932001 -0.7127689316811595 -0.6023585628466918 -0.5856641329101462
P 6.216115867316479 7.782931613735615 1.4022131339232589 0.5391371929932005 -0.18990939280206004 0.2860308558176816
P 1.749673460048217 3.1869255272776496 5.9537049902275365 -0.3127906404100291 -0.007233541633961735 -0.16230834325533985
P 7.035831880102638 3.87880080613103 6.001511759746555 -1.0413898542552258 0.9029151230843739 -0.43367054131725313
P 2.5100967022910394 8.376580971632603 10.235480140314156 -0.6997825467238206 0.27237598403840835 -0.5409922439240683
