# total energy = -340871.2983961686 ev
CRYSTAL
PRIMVEC
9.22634438099748 0.00000000000000 0.00000000000000
0.00000000000000 9.22634438099748 0.00000000000000
0.00000000000000 0.00000000000000 13.50368761477348
PRIMCOORD
 96 1
Ni 6.245294024577374 6.900355245693361 12.911213396641184 -0.06976482739896371 -2.39141364643963 -0.9016030891411698
Ni 8.291152842750588 0.9677604831628183 0.4871740465073716 1.91308638564495 -0.5493542427355184 -0.4456655088956002
Ni 1.8709734613899693 8.483088483856461 9.44858389948616 -0.7973600254596784 0.015375968235438037 -0.650104462772403
Ni 1.7563084540514227 1.64497415701616 4.095533652361491 1.6859376488754578 -0.3391470189163707 -0.40539766251448894
Ni 1.7014024789410513 1.6202291015219548 9.490054471982562 1.0265175651290837 0.8819999701982617 -0.2394473516311876
Ni 8.244485993127288 5.001213755062598 12.57830659524185 0.23178109333518143 -0.4674815763294271 1.0785412664945426
Ni 3.153970451290487 6.404199352980319 12.256230599452007 1.3890539095036722 2.188839513685708 -0.22554051174210832
Ni 6.986630791527184 6.126514067667457 4.310687388974883 1.7665677011236993 -1.8926921382593143 0.17052918850323534
Ni 1.031818991848973 6.95348976269229 4.568756543606824 -0.9857290703578121 -1.8540150334040906 0.4262981601125819
Ni -0.4393068494866833 5.7316911147354945 10.399460172524297 0.6474983926081236 -0.3270404654608239 1.4653403400712377
Ni 6.274375461906881 1.3423869683554763 13.198936021951116 -2.4873196510103353 0.9179581334604255 -0.9518252185215156
Ni 9.02779340043621 4.4746293787478075 2.006810161063547 -0.3380694695814759 -0.30132326320037783 -0.7678460751609615
Ni 0.8002285228109249 2.7146765186858666 12.921273802499082 -1.8922095421959413 0.5772967347820573 1.9427857124815961
Ni 5.339442311871721 6.431472426821061 8.863415004576456 -1.7759995359605607 0.40123273250352187 1.1612171455282194
Ni 6.444822947067189 9.108431649884142 1.6619663153695075 -0.19368634334598903 -0.6093882159999634 -0.060799390675559804
Ni 0.9448330175017072 4.220674251052804 7.765484642427809 0.4137162096825133 -1.7896621210493175 0.45064984948406905
Ni 4.17110110296542 0.7191141939955428 1.468377313359622 -0.6087413264445838 1.4122421746946776 -1.1253420288981653
Ni 8.367823764136435 7.971100184272405 2.5150756307102746 1.1791320781354273 -0.5404744237473853 -0.10982055776926893
Ni 7.596796621131313 0.817882210052764 6.817214811663018 0.3597896348673868 -0.5264770810270287 0.07646640778885541
Ni 2.282366928739379 3.0882512006248555 1.3650071967503838 -1.2313663528497953 -0.242251396738886 -0.2540936407894527
Ni 6.20369243799148 2.2559980366430183 2.0694810275624054 0.1023191071859012 0.5261240685629842 0.862092175530741
Ni 4.449072404952525 7.932792402612472 2.6690716212949988 -0.9711164626509599 -0.8386066908142912 -0.729879108998885
Ni 0.18553163550612348 8.49148445719715 7.145152304005983 -0.40263938304306135 -0.13719226491400244 -0.2929674350365148
Ni 4.7653514885995625 3.2458556144772093 12.099695518907549 -0.06549036839332592 0.6479233959606842 -2.2895269988054565
P 1.7230105773629116 8.651949037791935 5.6122404025927555 2.520176549639357 0.8980811920308402 0.5895174452179653
P 2.9876840474232016 3.3980626168962638 10.385051390583468 -0.43917707295777914 0.025550851885910834 -0.44632319708425716
P 7.998364031768817 5.16526738360192 6.0319892473678 1.991944947815066 -0.41141635790474307 0.3296771317527225
P 2.114595083434894 3.7906066627786106 3.7103540745236905 0.4396925791416169 -0.6209121574791628 -0.4579327562987275
P 7.276402587912905 7.957897285535565 6.065842549985002 0.7327695431728025 0.21819255601746937 0.08748589882781062
P 5.63391031752163 1.7857312661211544 7.036353406392721 -0.11220731283389063 0.18327440398404565 0.14997527561128363
P 6.247739005824937 4.4876754296310315 2.96361343769955 -0.7505829172051395 0.7785493205110785 -1.203044623086967
P 3.640161892126668 7.329712405454111 10.22172387534295 0.03596433390975097 0.32406724176511287 -0.03820916407986968
Ni 2.9351584691500805 8.230212838448118 0.40836076796799814 -1.3929506734549173 0.6968298918533999 1.5703074264029473
Ni 7.0081650791944 7.886393116974755 8.247363689923947 1.7920704733804944 1.0943152414993473 0.02070252265467402
Ni 7.979330083415147 3.2117089141102992 6.974883809925684 -0.4725841876633151 -0.573535210857096 -0.18818572524273397
Ni 1.3276617228041148 6.375357800603404 7.12727349396248 -0.9512066111009102 0.7943086402278643 0.17783780634950663
Ni 6.982820311318718 3.2211197853273346 11.474542415573076 0.9021486772319947 0.15993598636842132 -0.7058647483621585
Ni 0.7201189428931264 1.6481572458101572 6.895374865023797 -0.049061790523657445 0.47907853713840715 0.7239123498924888
Ni 4.1255967727277545 3.7949707236469026 2.2754933022132104 1.925638254168032 0.8860684838406805 1.4031728654035576
Ni 3.6979372603238017 1.4052275995900145 10.85132038610696 -0.1392064671305538 -1.2425054001857503 -0.08641503436113504
Ni 6.243919299272141 1.3364636552953422 4.9497224499889185 -0.2304178944390677 0.6201889061598932 -0.4210045158138104
Ni 2.004866170313126 8.33030944808892 3.034075951985454 0.07748944973673107 0.560036405039713 -1.3860608883136194
Ni 2.4769136252907624 4.263272282826386 12.442122062387016 0.2102195651143218 -2.1075216913418218 -1.3810204976762346
Ni 0.7343487337539439 3.4019930395810256 10.744451639727622 -0.9017187887834278 0.7481241712520019 -1.2991352328646528
Ni 0.5595574856828706 7.58743188163593 0.29581136138441827 -0.414627408642873 0.00785626281962518 0.5635369619938037
Ni 6.275796318933766 6.037156922827272 6.857294051434392 -0.08402056598702949 0.8931140778335522 -1.2308467329008996
Ni 2.0777819695564905 5.661118806952058 0.6007475773116288 -0.1833034574497682 0.11481518277038291 2.395574719795855
Ni 3.6333897553881345 7.468928715055925 4.793255644392506 -0.3995118931576732 0.5352028909358009 1.2525247320949655
Ni 6.294765682877124 6.655691046739098 2.0836056380978563 0.26638145701787025 -1.378361719897149 -1.0400490239566154
Ni 9.011204433330102 0.5388830933072497 9.22590792434017 -0.9280029192909371 -0.9572741574512288 0.27769071138310236
Ni 8.901761536882576 7.909329808980197 11.433856082344757 1.8368318367565848 0.48670262934256825 0.7549095696049516
Ni 2.7541468197314334 0.48253135004030073 7.382452034915699 -0.17523790683281434 -0.04685347001842898 0.1484585818564411
Ni 2.220559648069848 8.58118297677756 11.713882091214249 -0.7769421239249586 1.0032727356685303 0.3568454646373983
Ni 4.661721189080206 8.51049995286216 12.357872621768156 -0.048711606273090305 1.1126281808759226 -1.1750288546003314
Ni 2.9098413803073884 5.81694253634864 3.1296147475270257 -0.1473589210343591 -0.028561613687776616 -0.5768933286960516
Ni 2.893981294403385 1.5764039659524267 12.974734932087307 -0.441520119268659 -0.6573308053175131 1.0939645430281484
P 1.0005878162904775 6.12830397846756 12.161218628171701 -0.6904031623914497 -0.36547382973635767 -0.19932014459299865
P 7.64923916230546 0.8505416237136093 3.3097129888569605 0.788739630780519 0.1769464048834888 -0.4952194085643278
P 1.816556482529111 0.7822482229797888 1.6371059305711717 2.1786088370966348 -1.3243976069758676 -1.0129400835549651
P 4.505888233339294 6.8610786978787335 0.6470656711192384 -0.0569278235352955 -0.7757894983777543 0.5284725141905027
P 8.271048638454587 3.329317125290252 9.086644560382272 0.9733931745002784 -1.2835006116511896 1.8850361643759537
P 0.6687540387367732 1.0205259463885303 11.751408401509394 0.583766401666801 -1.2143194246698377 -1.5994159137331294
P 4.58337107302622 2.6417053613765193 0.4448085186109169 -0.4312444483742638 -0.15422222381309567 2.3803579028461006
P 2.6071619282034004 2.692450255193868 7.202191409925548 0.12857495555863663 0.9510937396721298 -0.7099530594989192
Ni 3.8167633489553716 0.809435491818258 5.283803765021515 -0.38858727582536945 -1.6777178320688269 0.23990449377326428
Ni 5.211472916008699 8.407912230252142 6.649228915170067 -0.44753058712879695 0.1846394026523723 -0.6131389412916473
Ni 8.082849666802538 5.331867483176441 8.3795781268134 0.3789762350981667 1.8434557698310057 -2.583564269867383
Ni 3.4220880175326958 4.641561626718223 8.339134446440973 0.47270245840873437 -1.543508561042548 -0.6242317087706992
Ni 7.7133991607792485 0.7710861916088381 11.405957462358412 0.2822549337150171 0.5019243313883291 -0.11269787931706397
Ni 4.986184040148333 4.163830743633043 6.776082846003541 0.8200482110858135 -2.2970757576869927 -0.1938668347879113
Ni 6.824874522726138 1.3791078187905756 9.034399462976795 -0.4949831241838056 1.4526992542684594 0.13400332566305953
Ni 4.733280715706997 9.110636746179113 8.890179706844592 -0.31894200472340556 -1.0592199404581113 -0.02658520668769615
Ni 4.218626002611449 2.209774051547579 8.686017314232037 0.24020479862250244 0.8660025663287407 -0.8609207809304592
Ni 3.199603950348779 7.45479395554171 7.913795359636124 1.1691032331445155 -0.5402360824843341 -0.687208566713552
Ni 6.27911780289272 8.092066784788633 4.190788276497686 -0.7854797290823246 3.203393992915644 -0.4113183988742981
Ni 9.52776899970205 1.9382335115587823 2.182006445650726 -2.321126885098925 1.7810265568615071 1.5568423020369768
Ni 3.92477616203168 3.008590943675949 4.944146047475607 -0.9928649100716448 0.10550084734799249 -0.061606974178519694
Ni 6.9018222344419 3.758914170003594 4.819141998680385 -0.4009134014908902 -1.2874814506758083 0.042872888104126164
Ni 2.278002867871087 4.867911532176589 5.710277692179007 0.32301900300625663 -1.0658531295039129 -0.5858253410783588
Ni 4.709827348419053 5.104908638992267 4.554753720816535 0.49816280746336783 1.1694372194451668 -0.6824671953738246
Ni 2.0939188457904074 5.904694297275332 9.418416521428963 -2.5501160175112663 1.1973560573426218 1.968739199122564
Ni 9.264449132511661 9.21013364343844 4.5063698485133425 -1.0849731381628154 -0.7683875494867282 0.3356366917702671
Ni 6.829146320151126 7.8738452886853745 10.627779902497206 -1.2108700326686566 0.6919661360031955 -0.49281388444662866
Ni 8.972582955962935 2.2453416089413754 4.882690290525067 -1.8587430350073795 0.9746391310922374 -0.48850702954115865
Ni 0.10778030919918212 4.634863300734334 4.3057319194350105 0.10690389834310622 0.1593952833736029 0.5341153142985768
Ni 6.263654449794925 4.147472435135197 8.971755352876494 -1.6581514799011248 -0.5956667526488129 0.7860286596072591
Ni 6.125231605805528 4.362298636524859 0.6405214250856666 0.6102186823210588 -0.024447848629719188 0.1843090158961471
Ni 4.194702091762652 5.130410254721568 10.694650600935276 1.3674512436322321 -0.09990946930314407 -0.9324864089835876
P 5.609202167404746 0.5710046110936313 10.64252636864053 1.2816309054323025 0.45849634211168133 2.1886093999527723
P 4.8725708360634545 0.7041056996732373 3.417540352412228 -0.23378166870497805 0.08333948075960486 0.81529861221597
P 6.422965737348407 5.830680563056646 10.661876780604734 0.27250788163058226 -2.1879370564760965 0.9252510675774129
P 3.9187974909055634 6.0778174222914645 6.439057404495105 0.9225555230231208 0.1629374921989065 0.3067038107860008
P 0.9091067669854278 6.283943180977533 2.3103190615228404 -0.7359042321470423 1.8784965634852229 0.6230564575156754
P 7.699513512561956 8.130476056236201 0.06085788983792952 1.1906277374798528 0.78927750556186 0.6353432453028284
P 9.105626841207693 7.486624843481684 9.115798885831987 0.2126122337162145 -0.1498480060048 -0.21722582122882586
P 8.108766468026706 3.1312090598273232 0.5789097429159412 -0.7294042262449953 0.4245742354429397 -0.9234078437210871
