# total energy = -381162.9049637248 ev
CRYSTAL
PRIMVEC
9.28635778243460 0.00000000000000 0.00000000000000
0.00000000000000 9.28635778243460 0.00000000000000
0.00000000000000 0.00000000000000 13.59152329402151
PRIMCOORD
 96 1
Ni 0.6671077989919381 8.885391431859508 12.1672404206295 -2.0237798329374757 0.6447647957270444 0.5702449701415986
Ni 3.5018019448040847 5.799553311473427 2.662430351564857 -2.2586349372122907 1.2176567165731866 0.3421840059704817
Ni 8.004988995367796 7.417320415441368 4.716815996943869 0.5945148984325568 1.072317397072018 0.7697358359845066
Ni 4.552571901282684 0.7617998607249755 13.110315557199678 2.1243017390136383 0.9300731715564047 -1.0512292089431508
Ni 5.733518021239765 1.6424595293274271 10.284596676190066 -0.4693962768536367 1.3060766971794924 -0.4279323532818952
Ni 1.0577068657465716 3.845824355434972 13.287005229568942 1.318174251773975 -0.7313816616863404 -1.0179290521291242
Ni 3.5979621797034755 3.365626794194266 12.342258548596845 1.0296561107580653 1.179281459229098 1.1828277818194597
Ni 7.511911255874511 4.480268319541819 11.872725440640393 -0.11234666662523231 1.5892040061971342 -0.35250904204557354
Ni 6.443803669404876 6.393620191916097 0.29091187316718936 -0.2508746196315228 -0.4909670610458771 0.11771050204030696
Ni 8.750070626166227 5.497774542422194 0.40050853915068757 0.24763297276577353 0.47014112543946124 0.4152563004761235
Ni 8.820424072771518 1.9474420918156747 1.875236016831588 -0.2653123923234076 0.5343264018681185 0.861200516954407
Ni 6.7652137988208905 0.1441437742280868 8.466880359500133 -1.3133354356244349 -0.2788410229374617 -0.7221313467326661
Ni 0.6271095987255298 0.0025128884175543444 1.5217888816812033 0.7338211243657684 -1.3611597541965654 -2.342027639807334
Ni 0.2170407542316339 6.2378043945837085 8.045013197436013 0.9962276558962908 0.22826048177643268 -1.3968777764234652
Ni 6.142962822490277 2.74195500512202 1.587843673266221 -0.6185685969476508 -0.17893438184779506 0.04702213438580934
Ni 5.317164169794647 8.810004779332878 10.324555873753763 -1.5056182137546779 -1.8842288379833099 0.864111262843299
Ni 2.828206696261136 9.100426332808837 2.9976920122581214 1.711722985369678 -1.1744763245309708 -0.7696772148324293
Ni 2.4280761118724383 5.306048399521873 5.502841179231573 -1.3481093487705105 -0.5036048044145456 0.7891785180901506
Ni 2.819821115178166 1.1834348638443848 8.177965053257461 -0.6988803466245254 -0.4262148563701563 2.1901772586605244
Ni 7.627888578294453 2.2239341086089603 7.718436138546505 0.8542233143056256 -0.7631607538701501 -0.6057696454107696
Ni 4.262401079467014 4.7723614174197 7.194917718222683 0.5803095534664521 0.36929346059276397 -0.03277745154133709
Ni 2.2801908640913853 1.4332750337848212 13.205320569190185 -1.6945012221747526 1.1570031074468718 0.23198755291903275
Ni 9.147025276191275 2.6143604491087284 11.52697112428196 -0.6871759137034036 -1.5833303210251763 0.809844016859302
Ni 5.5676729574958514 2.7557731055112322 5.804164916751171 0.07761311979878892 -0.17377032114835234 -0.3118897258623145
P 9.034873933180174 1.1950799565111 13.348180968771908 0.16358875262966022 -0.26917573193355576 0.15388566640928336
Ni 7.450677012617477 2.622996761851986 3.8325244338103555 -0.33634477358088527 0.752643142168278 -0.7596177737138983
P 5.209702437466713 8.0429330532914 13.256723345456587 0.11094053030632507 0.1473936309270365 0.1155543749292526
Ni 1.4819076895229295 7.00473682525836 13.215024813079115 -0.48641363734723975 -1.0289583133600924 -1.5045820591806798
P 5.668708530234179 4.529616024829639 12.926082576398855 -1.79917160320165 -0.8602348106070281 0.7512110377074418
P 0.336727976588061 5.305992681375142 11.770000679420347 -0.443117802773082 0.4149724506871176 0.1395751633238822
P 8.493804296636183 0.9530774725441148 9.472843639649465 0.437841127755175 1.9042381912257011 0.385681157922168
Ni 8.020339344792102 7.031063649588614 2.361894097185719 0.4011347734730769 0.1379509974568979 -0.4142386578448865
Ni 4.255993492592983 4.882191170983688 9.999895519111792 0.02470238784268649 -1.1741770481229972 -1.2168645596891947
Ni 1.5953034044776822 6.903357657281861 1.7802997238887146 -0.5987551617661494 1.068485167810121 1.4274623340785415
Ni 3.716502536873029 3.4877052536812188 1.679885408486435 1.8455748730565378 0.7992862959481138 -0.27689341229278763
Ni 7.580936753316053 7.085398129008829 11.874982025582986 0.23886756786831767 -1.4340523285912337 -1.9208140933065112
Ni 0.4157028777641481 3.2918281088494608 6.2028719024909 0.2619013097593296 0.49097528857599315 1.6146381299995225
Ni 1.9420652906561626 2.2588415275357403 1.800781714626918 -1.054317103839855 -1.4384591994096776 0.9663324109987552
Ni 1.8343806857413059 2.794942962662911 10.638112530388087 2.6118921702777986 -0.30269211852344646 -0.43195561550867545
Ni 0.8509776832032315 7.010754385105274 4.116872709292669 0.7693997928013265 -1.5790165241411707 -1.505566534581136
Ni 3.534536356008368 6.825630842592541 6.550543851732648 1.3918163027401578 2.600300351675141 0.5989199694787879
Ni 3.2440776571012546 2.671768712956921 6.599771763004996 0.12571588884328674 0.7308985514023347 -2.1755859911099114
Ni 2.1198061787270794 0.5368852037245155 5.8861216674131285 1.2256371636755021 -0.6968103514693742 -1.1236129620222004
Ni 2.939150812759738 8.895940734307185 12.063822897118436 0.8045015216004661 -2.1985803951225553 -3.242848342256525
Ni 5.008662077704576 7.3940580891813035 8.451222631633028 -0.6306661515421332 -0.4592617595227962 -0.06798588112167002
Ni 1.6768747712914198 9.122109978244866 10.136381762707524 -0.3766141626238933 3.3841376600580366 0.26825013479549287
Ni 3.1091283057195116 8.521895528946242 0.6477661729901562 -1.126449403029731 -0.10293077262797111 0.7670390058786338
Ni 8.053008751491868 3.1868829794821965 0.030276312297680814 0.09634566321128568 -1.0619717921716356 -0.36785441415339226
Ni 0.6007902034815072 4.654016073763704 4.250558187379404 -2.009435648400662 -0.1063408267507846 -0.7808908241600615
Ni 7.867625190961056 0.05535133559805125 3.16561536287509 0.7432683858215974 -0.08213980402454885 0.7753063880937486
Ni 2.230973167812605 8.094156602852486 8.344719251428863 1.0354868585072297 -1.590643566857138 -1.3355124859421064
Ni 2.4731520925775703 5.391761481909259 11.525502951115607 0.1411993291908665 -0.07773910385369193 -0.2279547776105558
Ni 0.9384978908162496 2.0453945937682367 4.478189104032986 1.7810728367184099 0.8737310453212502 -2.6586265982198602
Ni 8.286374922715595 5.585660632532077 9.79702853277267 -0.7723257081988698 1.4090910306602054 2.169322269588387
Ni 8.123390057170523 5.492174868675759 6.058503398404333 1.0655700510458552 0.24953687465670574 0.8729810545291029
Ni 7.4234865570128985 7.1451279823041345 8.123136539602898 -1.601578211491771 -1.0449467183685488 -1.5075126025639134
P 4.550649625220476 0.5316885579060994 7.178498509016926 1.2139566420137804 -0.05659280879337995 -0.8248677439616439
Ni 5.956418467235911 7.843239215408588 3.974147890534657 0.10611174145911402 -1.3685455051376754 -1.9118782242694623
P 8.386788309482096 8.477571743221974 6.540118986479334 -0.44078992597085376 -0.23514795292488538 0.4938767784935043
Ni 6.407837605690212 0.1493599213978587 5.654752991749697 0.8016738223436838 0.03439364698852142 1.6530465545743915
P 3.2969356056331076 7.046924748691285 10.117230507040405 0.2634051479983657 0.36573094005248624 0.06371553588109027
P 4.885422823494069 3.5997915921878003 3.8033699135335195 0.12820163137961793 -3.6269369588805924 -2.1903088991423822
P 1.8111740776279714 3.518248084447428 7.831680485869306 0.17797201793452577 -0.04312177089013864 0.9279730944942663
Ni 8.16484435833816 7.8908225127166025 0.20010429489706033 2.1116431697093634 1.37332158637008 0.36327116565808404
Ni 7.5594202623202165 3.193476293511995 10.025895463647892 -1.0927036740378537 -1.720401229869966 -0.6901079997485341
Ni 2.627974249626595 3.839166036900654 3.853061214059511 0.8522649050276743 -1.5139629861749473 -1.1257927432823385
Ni 0.6024701056054377 0.5161376231535624 7.371349229845429 -1.9741346591065223 0.3766830681886158 2.161259290074594
Ni 0.3711664344465247 3.997442719046982 9.36470864638187 1.1212138656624044 -0.7971242552997885 -1.1558052304840287
Ni 5.820930507102437 0.9360462923600991 3.3664300641429667 -1.4292317672741386 0.2686432564688535 0.4481026575821831
Ni 3.433732942214752 1.6136996792566 4.3411735380433125 0.7815726807184346 1.9560865433555603 -1.0352294910807847
Ni 6.923304753811449 4.317432035721363 8.163585128222048 -0.8544313165513736 1.9122680035087132 -1.6142666055927168
Ni 7.414497362673679 9.257616511093916 11.214366319320952 0.18013277303127043 2.053348804843844 1.250648083897543
Ni 2.328257052004398 5.446968878961589 8.624012033731145 0.5909500638994338 0.4078875188158782 0.03953019688413837
Ni 4.876052888485523 2.9585314414642316 8.382721813406533 0.630193839891405 -1.4045838868184712 0.4259981123736599
Ni 6.133072851445579 6.751349266642737 6.1171096024072344 -0.8426142693117875 -0.010816630999529758 0.20685090575240506
Ni 1.0097335414114432 7.012713806598638 10.321090205027115 1.2251183150575546 -2.4718228409263174 1.1821112153684092
Ni 4.748179741738578 7.661895220515754 1.952830036604533 1.1745308319179901 0.26809381172328667 -0.08332174014779199
Ni 3.921006708090257 6.2384730123444765 13.317844295148602 -1.3506226021106675 -0.715453163381542 3.038499376990367
Ni 6.83839029819387 0.1428891872908673 1.1474966592030866 -1.4461154304033548 0.8414755277216539 -0.6935787319059539
Ni 8.595657068859893 8.140727687161558 9.663096966204538 0.36805238909681126 0.541749433805067 -0.05344217897954023
Ni 4.292442446912647 1.132703491246087 1.640782413110833 -0.6427292533542543 0.47789325858105436 1.1916173550866316
Ni 1.2453934430089177 7.514780740431141 6.2737518855827945 -0.7451501762253425 0.1491970026843624 0.3741068228210073
Ni 6.190128233697811 2.3192399985918137 12.446111602288186 -0.07950853704928888 1.0111891623021296 0.1517097418038871
Ni 8.440881343599811 1.236153517009411 5.415990518015102 -0.2423377858051052 -0.9081563168786552 1.2272461600338347
Ni 4.7488483594993465 5.361506528234491 4.5974277953082305 0.32450510063347987 2.7613737940821155 2.1901476909741704
Ni 4.352748054390835 8.936475686053766 5.00927869186173 -2.1091859664181225 -0.3635943533254577 1.145079873646725
Ni 5.129914051348357 6.349361410696348 11.54058956797872 1.7317205115375272 1.1065462363479008 -1.4666893978999642
Ni 5.492509177556144 5.260424523707222 2.0829142651409076 1.8073525963505455 -1.1754430593196143 0.05555434022653658
P 7.620663791935039 3.5038263708019666 5.773637872793202 -0.4667768369529187 -0.29108127375739545 0.6264981362073726
Ni 7.309589378737569 5.362806618324875 3.786543961856628 -0.21988279923569873 -1.4462475851058447 -0.08517499130644686
P 3.6630409750849275 1.6447996914901164 11.163832746143548 0.19117334711614817 -1.2748110542969917 -0.6894402842575481
Ni 1.6004944784814255 4.65768418509014 1.7213387810182932 -0.4171774287582363 -0.26119399927965986 0.779072282894084
P 3.0524722368521835 7.265525611031379 4.41636146251327 -0.16595545308962387 -0.37819359129587127 -0.3412998035933154
P 6.210103189300765 5.727686188548619 9.627909099272548 -0.7293821147578083 0.6274599859000097 -0.03876246548017841
P 7.894732069345539 3.925213428168424 1.9560923340956151 0.2199524761313696 2.206833122049651 1.959256970663742
Ni 0.8494751505130606 9.178468883662964 3.6731231737358465 -1.815899714589608 0.7192175155199807 2.396821961939395
