# total energy = -340864.32083679095 ev
CRYSTAL
PRIMVEC
9.35231067698048 0.00000000000000 0.00000000000000

0.00000000000000 9.35231067698048 0.00000000000000

0.00000000000000 0.00000000000000 13.68805202181147

PRIMCOORD
 96 1
Ni 3.2644895269904977 5.780139533713162 13.427144315010583 2.448850291290544 2.0104730885262403 -0.5762497815747818
Ni 1.7309256701782267 4.600280068764628 9.084938455187316 0.2975807654388101 1.141031414608964 0.8874085428083427
Ni 2.630477677883504 7.115219299871701 6.682575794048021 -0.5952013829766202 -0.6465105747735576 -0.8385724951422462
Ni 7.0489394737178594 7.240540263673238 1.6104950296581702 0.39864928804706184 -0.40825698634015495 0.21338896398123894
Ni 7.713112524933805 1.845491476638586 2.3107212387438856 0.31070598996685844 0.4182791464628474 0.26817377303160267
Ni 0.5861869377195373 7.820093607390952 3.2041951797047887 -0.39396756630067636 -0.04240006223276569 -0.35820172155497665
Ni 5.37970164512433 7.0298794644471485 12.23626969848254 2.054781423525313 -0.25402473522473024 2.860330412553687
Ni 1.2281454452550504 5.293407874005167 3.553951961208778 1.4572426506647678 1.5340962665897129 -0.8007168577470531
Ni 8.184824373607078 1.9065340087828118 11.0139816054386 0.03109492163259161 0.7740748296794927 0.5379454866779445
Ni 6.437382522677097 9.098114925776867 11.462046136427382 0.07362559590595062 -0.19851796040667744 0.4051855465036828
Ni 2.0853314853468237 8.716737046458746 13.217840536071629 1.4673136617475246 -0.5678211911914544 0.8819984275363649
Ni 8.407727347580646 7.76170713149446 9.525967242812824 0.3867538221610565 -1.1518249056800423 -0.7682674789690962
Ni 4.2151986743968495 1.1583397979554486 11.641209288340994 -1.4629625838676807 -0.8256388177997136 -0.9961929460036134
Ni 5.345079390796472 3.856397273184468 6.644550233844987 1.0389444780385269 -0.5099405168245863 -0.8072163494284679
Ni 5.265210657149821 5.264443767669842 10.79881953905746 1.0973838531223423 0.4173193536527394 -0.4889394890928869
Ni 4.942546584603792 8.054845959061277 7.157085854092147 0.29827059241698306 0.2959427156147549 1.1895995533256545
Ni 2.168099435320226 2.91809864211876 7.5671107964117965 -0.3660489855135373 -2.0229563085949156 -0.6749706298864633
Ni 1.9047290128116403 4.52382492853496 0.8994285572036221 -0.17285500842293458 -2.541461684270378 1.7867089519582648
Ni 5.756160208997704 5.973507910396784 7.812866141657681 -1.681895360485284 -0.9833299739980162 -0.2866129535733967
Ni 4.817534247056396 5.057308789589513 1.9233625567129968 -0.3360848350512793 0.1338446885980082 -0.045243702329147886
Ni 0.9238577280652632 6.9680139289585545 11.057811209681578 0.8239884266804842 0.6269974444412943 0.559944616656855
Ni 0.5759050073013724 0.33624456295917876 5.374832832157532 -0.6577113285853834 0.7845222502650618 2.0715115917958
Ni 5.142265180274076 0.8180971221585717 13.619775729608568 -0.008351200178172712 -3.2472454428829556 0.048883870184896455
Ni 9.04919298834061 3.6950699130668188 13.387147287705357 0.07899971573367039 0.7801986831890434 -0.3432163038897379
P 1.1423286419831928 5.95428891184364 13.012875294080997 -0.4500458973514829 0.05097057751059608 0.19189145622909534
P 7.262602364688747 8.052386301338903 13.30452616901044 -0.794594032678767 1.1211177064041724 -0.6522945284451862
P 3.9427658627894813 4.729575764627034 9.073439789142988 0.23087092281608626 0.8299834679216543 -0.08022767460350054
P 4.140857156392491 1.0942858217556937 3.0062656810774335 -0.27533686643894517 0.5415452882140609 -0.908719645581293
P 5.040259527126064 5.015457199066239 4.382434824434633 0.25351154303373763 -0.2594222520912178 -0.2924696694644898
P 3.867133725904181 3.573845261365662 0.4505980719659338 -1.4078887828219881 1.2114125354356877 0.2428553488714721
P 2.07928054030357 8.466431802042006 4.746592294002921 1.4896488349096153 -1.6911641873817196 -0.39803530861214675
P 7.5423486832881155 5.5618285443087405 9.96094602062615 0.12437865808910194 -0.4190965001578202 -0.5188553028157128
Ni 8.968370318999352 5.73553836383484 7.875776330254978 1.0697043849292027 -0.49734751065092414 -0.1581855793362179
Ni 0.681850788960547 0.6053816202647815 9.95574426539731 0.726240483805033 0.9778895197087353 -1.0126269231899205
Ni 8.909544284498482 7.416681683989515 5.382128569759143 -0.20730496257068812 -1.0808506313540094 -0.9989052027284538
Ni 9.271282311280542 8.4970512673768 0.20176488125832628 -0.42526174842826764 0.05343960787637893 2.0501485527389915
Ni 7.471149541689527 7.236500065437247 7.2092100227228535 -1.0162226109609789 1.6206185159526736 -0.411350280553498
Ni 3.63028645663001 7.11649121413118 8.90295558158817 -0.9737572427079165 -0.49578505125981065 0.5086261688885368
Ni 4.349086354828401 8.319488295829341 5.023446878124123 -0.7058886596215584 0.799182680490714 -1.4261970942128728
Ni 2.3500579929114704 9.179133993643486 2.149175034555121 1.2429170338018722 0.31239983272951355 0.2177716664299669
Ni 5.500449328978182 1.2454285154867848 7.272722500131257 -0.10207510949589517 -0.974560198225186 -0.5944776174367181
Ni 3.206542609698385 3.3972736347557366 3.158490437160154 0.9113838226770176 -0.011647611541257359 -0.8405728134017265
Ni 7.880790104038113 1.3114464769401457 7.645775887667308 1.1974758707499378 0.4219550526525378 -1.8003867065556736
Ni 3.1906343291441748 0.836957927210703 9.262540706439848 -1.0674587834281357 -0.8098949247018954 0.8696656170026248
Ni 0.889170007562286 1.4896641102388075 12.64681556450993 -0.2991794773844976 -0.48577471821166024 -1.2255219782538764
Ni 3.1282544165653507 4.7087949301817345 6.408171515338461 0.20657759748636034 0.3979944280718823 -0.49386418008801397
Ni 5.358593479803429 2.543482483459483 4.484725723059954 -0.4921950199157072 -0.431093010398064 -0.3969078798759229
Ni 7.220947172690833 4.2136648954368905 11.846858184246095 0.9927579521801355 -0.10204091382385007 -0.982989817049778
Ni 7.969908272998175 6.802870826062471 11.736423293435822 -0.5437397247622184 -1.6033934103236385 0.08343769690036598
Ni 5.939755420966954 7.106072739976336 9.875614602281253 0.5735856044790574 2.686730812655244 -0.8080229044901631
Ni 6.661791218678429 4.048194461665206 3.0146154240984786 0.8765525739304452 0.25232652158670094 0.15464157073870144
Ni 8.415181139233617 5.729562237277437 3.4790100248554596 -0.9204942696187179 1.2392670957541108 -0.8439867241792819
Ni 9.34357567323471 5.677366991085171 1.3333234022031721 -1.4466162812991732 1.0238323049874367 -0.8518311599243652
Ni 1.4779737218244853 3.405391440470642 4.718983337492585 0.3310038209839461 -0.990292007138146 -0.37193809730446264
Ni 0.15900798705624708 3.57812861968067 2.45085906843727 -0.44256552981403774 -0.8728159897061485 -0.020699951551512736
Ni 3.3002153539846666 6.489409427276197 3.7323762805746044 -1.4539045874304704 -1.2586431862878775 1.5845299977602323
P 0.22396165554836844 1.9773029440877534 0.8721394497203012 -0.12855541517461086 -0.20812437314818996 1.5601888499117067
P 0.8332675053960695 1.114290414410282 7.781014041768481 0.6815773365697037 -0.1743529331246997 -0.6072865962759282
P 6.072296368653175 2.3098149998340074 12.004517568094865 0.8039806160999896 0.001518750637371578 1.115614517197756
P 7.7590510752467265 0.38387494628342067 9.444414158003436 -0.057331743841933513 -0.3472189972912278 2.065757977141475
P 1.0962217500771054 5.3494282152866 5.746955664775803 0.057583711951739544 0.9297967779665665 0.5002400017073707
P 1.2243951686517358 6.93577651386722 8.923172471696363 0.9902130742710946 -1.0879412196522036 -0.015469813500824972
P 6.495694180087737 8.6685913508132 5.827606251599603 0.18384801709932855 1.574205733016089 1.1016518843700769
P 8.52893329466034 3.0064779785310374 4.397436866078965 -0.32642134381958626 -0.5334995350914489 -1.1726523839483545
Ni 0.09920744177715904 3.396852780772821 6.481401978827924 1.4135022723540238 -0.27351009764285156 -0.44701533805527527
Ni 6.432706367311368 7.047751730254965 4.575628312907578 -0.03657085714549831 -1.8454488890016345 -1.06613157997628
Ni 7.633234438976423 4.927489364326146 5.361076518302631 -0.8605556842815566 -0.8219811664424682 1.7599838772585945
Ni 6.040433045991098 0.22766704106017208 2.484696663894758 -0.5396408721024964 -0.2937379946539522 -0.025219693798737217
Ni 8.870227170183432 8.909179544379954 11.600883994929093 -0.12608741325009254 0.4412064446829821 0.8534203587883561
Ni 5.969449007539333 1.525071958668107 9.96688660840277 -0.25439574541090376 0.7960922144908483 -1.5809389379748644
Ni 5.3577330672161345 4.686237156697458 13.080275527060468 0.5254959480606821 -0.17407962485865502 1.1916330388159153
Ni 2.8217417846525494 1.7348536406854391 0.46149538443022864 -0.3572874372708234 -0.4030924114200799 0.30088283322884957
Ni 7.772527755010756 0.4553004138017109 4.602552680272373 -0.24876965747337798 0.6133821676507049 -0.9564598890800498
Ni 6.247670899489473 4.054189292844071 8.94514198483563 0.9561816957179985 -1.02019933622054 0.4077239966548204
Ni 2.177124415176083 3.5805976297137745 12.333674014750672 -0.6503867698995122 0.072900544814468 0.031589344770506886
Ni 2.0475481499917336 6.854215011978176 1.460132318642083 0.3520174471211357 0.9114396156156174 0.11809488196291919
Ni 2.541705544420506 1.3390919074623355 4.483959768811048 1.1038663755228924 -0.7125994959828309 -0.5389657004123428
Ni 2.7987631571853573 0.054769937336636855 7.0633364208578655 -0.2977131772516163 1.3626581931189627 -0.8420308860044918
Ni 5.577250504704915 2.5561829214328027 1.060090032797191 1.0887421182869443 1.5988402437353175 2.28467069915442
Ni 0.5258682744259264 1.1098854760557655 3.0893525448467787 -0.17160750916907866 0.2155954847142545 -0.551668749801308
Ni 4.24432177001461 2.6809988604548396 8.545136173002591 0.24042977014911496 0.9898569764832565 0.4108075206761506
Ni 0.3926249682037727 8.123211350508234 7.393491694299793 0.688310541528479 1.5748030002804556 0.5580391721040261
Ni 8.885770710619116 3.6105250240544393 8.90465302598593 -0.2390927965052463 -0.7132062763288942 1.6289419482167042
Ni 4.239402454569863 3.4575212204877883 11.270235854711618 -0.6303272801454757 -1.657035364018811 -0.5845428748215095
Ni 2.9570136070723567 5.627360185604066 11.144812015492038 -0.5901720480828287 -1.236398001736432 -1.2896046676663984
Ni 7.526749028988044 1.273092650630437 13.58769169241323 0.7296777916213563 -0.3613914321368679 -0.7276404494763533
Ni 4.880970970747875 7.451444222978345 2.6854178272754536 0.5110445485220424 1.0055669310193456 -1.8431148415518193
Ni 3.589800303473529 7.799527876092476 11.43714747956702 -0.5653773576366521 0.27647355114654965 -0.8715841741815764
P 3.8161729847284676 2.0442748412357234 6.041591797290725 0.18375340050299319 1.159954476765712 1.3925241274404598
P 7.187306910989779 5.216541232103315 0.662933870044027 -0.22418502615547845 -0.9428446122894601 0.1525790317827179
P 8.23230605519069 8.98453111194331 2.235998146461683 0.3570264702999529 0.6721151627155392 0.6975410589878115
P 2.3803314227492 0.04022335322492725 11.255863223579514 -1.934249649986127 1.9225249053500313 -0.8811715607596954
P 4.337620421871633 7.962996915367627 0.49727171390234765 -0.9380587608650425 -0.47485884263010475 0.1965433531788099
P 5.008686126096664 9.057058281665768 9.117679959827077 -0.19161789085273453 -0.3518778362194778 -0.023396524547069385
P 0.6337060285460747 3.2302320127811672 10.797737476705832 0.04835602270588446 -0.36921787015982216 0.6586114718021495
P 7.649301708813067 3.4727374300478706 7.210167699341755 -5.338388435756439 0.8099905697394953 0.49667388162266723
