# total energy = -340862.9979885622 ev
CRYSTAL
PRIMVEC
9.34358352296454 0.00000000000000 0.00000000000000
0.00000000000000 9.34358352296454 0.00000000000000
0.00000000000000 0.00000000000000 13.67527894975381
PRIMCOORD
 96 1
Ni 4.214591540643698 0.5522067216277737 8.592943398217642 -3.10119264225453 1.0641289477239544 -1.4727397178591022
Ni 7.314166539429592 9.213390047878299 12.396995630881262 0.5298660521039197 0.7727658810600819 1.7660264839082487
Ni 7.3734048590791375 6.953812553006247 12.730987630702208 -1.0650162354249142 -1.785945848539995 0.43570274125593345
Ni 4.576365751765265 2.9880967035589663 10.863381874597678 1.4856068036297574 1.1327108105584107 -2.406231685289069
Ni 3.242466421877455 5.462445809703014 9.41175058901899 0.3122615073794364 -0.2538576135192467 -0.4692186136251919
Ni 1.4923945374927372 5.108819203429142 1.217872578193154 1.1701609849850687 2.21663570996237 2.487296253971568
Ni 6.35260901364815 8.394182017343043 4.476206273639829 0.7463236277081534 -1.2615968695995625 -1.2491905255154099
Ni 1.8434703454599313 7.7662184547237 3.557842265851434 0.4916885125929339 -0.7110653187264915 -0.3937497938629154
Ni 0.4957976390744245 0.7950427204233288 10.09818162564575 1.279736259512751 -1.147240114522837 -0.7545817539518875
Ni 5.790106597316617 2.2202223209976224 8.732896264285577 -0.1650661085061351 0.2144084063846888 -0.25166369119172144
Ni 8.903042920566053 5.145530143161488 7.5057585886532285 -2.4884187976117857 0.40235964701911353 0.8115535433512411
Ni 8.378662325081546 8.684851557718074 8.056544151224426 1.3628857357487365 -0.23368216701263622 -1.555793034836856
Ni 5.864920670728906 2.028258397149057 5.009828607604678 0.03959344602190601 -1.513312497075142 -2.9305372125860756
Ni 2.2539806883310303 2.7781744121447187 5.207587421965333 -0.05925492900657538 1.9376183093480435 0.3356230649235123
Ni 0.251025649769187 2.4281918034518144 12.098204647692448 -0.42117369440182306 0.8344911259840209 -1.0359779392110353
Ni 7.856206507806472 1.3946699972380696 9.084036542979202 0.9037095939612114 0.12899610225645525 0.7539747164955078
Ni 1.6728565100024084 4.441136067177275 7.3486023165697185 2.6735713924551505 -0.5256967512175784 0.063553042161297
Ni 7.373834663922021 2.0772281184871115 2.018963400242532 0.6242818452823442 0.24663718451140745 -1.104195219617221
Ni 9.347040666847873 3.6724581364314095 5.66197616750303 -0.613346429316763 0.24488240660382987 0.05774132057552637
Ni 3.871794147693775 1.0965909951150743 1.1331748621112618 -0.6402244846545296 0.13277819500670682 1.756665354408323
Ni 4.111204788763222 5.0268853193586605 0.689484519727939 -0.6766475033682541 -0.20046531394103542 1.3610551102979012
Ni 0.8905434877952533 7.894935661583658 5.717005202767383 0.8408692615962229 0.9357694506102335 2.2441094899026064
Ni 8.598927963475612 -0.02707116459315887 2.146580867319722 0.5360719238043156 -2.088133259512881 -1.5088588321791627
Ni 5.186025234227911 5.849634568055932 3.2800836892132703 -0.42636372324319477 0.5735573223442832 -0.3830843437292693
P 3.5148599128464126 1.347522274690498 4.270338163123995 1.9014200050506154 1.0959206383132545 -2.9929489420540776
P 7.2060799650280245 3.2595091182561253 11.379883026082112 0.5018592824783487 0.9201479420228926 -0.02740924525088828
P 2.8679008448883434 1.5625741934687205 10.699729943236509 -0.03621501646797634 -0.9127071694741313 -0.38385747444986795
P 4.044201951191157 4.726984318445182 12.154026953199427 -1.0664246857366666 0.7136893866128999 0.24702310709591652
P 7.251732714209046 6.624554012607143 8.498201329829241 0.23557655582187173 -0.3693680225844413 -0.5332280265976171
P 1.1960627854918975 9.478224579762639 7.424924444365515 -0.7394197014994685 -0.89702858239661 1.7766237998081211
P 4.889497266972712 6.216024509446722 5.464394881229653 0.9768528509141048 0.9576189423851572 -0.31862215949014155
P 1.3800846633306658 2.8957073495061745 1.8475852596513604 0.21337610846543256 0.22328796826250574 -0.22260225504939082
Ni 4.841583370574782 0.3819647607951801 12.753236571829888 1.0666967084511307 -2.2324654779057744 -0.3378300998771602
Ni 7.391484693230852 4.9009805311445245 2.1018905072434166 1.0011212365431663 0.4608537866002644 -0.9370663150447861
Ni 4.458720691401319 6.959680323469956 12.721537530308902 -1.591591275482388 0.07713489461078973 0.5205987678693809
Ni 7.717005800213581 8.03536037862041 10.24364533728613 0.42727826463766416 -0.37693246519526047 0.8011634583661685
Ni 0.05652961478102733 1.3677231023060052 6.154710045534381 -0.8722698873946914 -0.7481010313235503 -0.23982633223716116
Ni 6.279131072682216 1.3502132267502878 11.029413616686726 -0.05404664533275853 0.015499895407812016 -1.6945351607364816
Ni 5.5709435017803814 0.6730398126958884 2.8702629028074926 -0.5921389420012124 0.20872344018476957 -0.23928382947012983
Ni 9.220687386623771 5.010496673827856 11.928440143978797 0.4979686891746908 0.06818282762382451 -0.6543118159855312
Ni 5.694213399435974 7.325733895853274 0.9415837472459797 0.5423197044862402 -1.6593313591418393 1.356388043839535
Ni 3.7930744563613743 8.640432161564457 10.329785702666745 -0.025412269425517525 -0.2934176352000559 2.135482438220806
Ni 7.887628979254646 4.650852799753621 9.796996816353749 -0.31982466443867497 0.6567361091563078 -0.037294622685400285
Ni 3.9708454768112555 8.667995733010224 4.862231755841901 0.8735857779926375 -2.0301839366916066 -1.4484201672771313
Ni 0.4534936302344748 2.0981016841175664 3.65038298595759 0.39735833714978014 -0.5197726724236598 -0.11032989330551966
Ni 8.34581028535161 3.5783402194235436 13.56356539492619 0.01224924968099826 1.4615970709787216 1.7714031748391301
Ni 6.16527950723589 9.124607317072309 8.738010941915887 1.8527863032033125 0.291244281697821 0.6238591559226287
Ni 4.532273381035581 4.135030926792613 5.827091304046711 -0.17734826830759778 0.864439335606679 -0.32234614530894806
Ni 2.7247384578740954 5.421726472631606 4.7250417874270205 -0.3665475224165107 -0.54542251178128 -0.780465820807501
Ni 8.898016072621028 6.867907645930866 4.005024305404006 0.4162482320757476 -0.2754888186357772 0.043906985795595356
Ni 5.566131556256799 8.29220614657725 6.56898865564754 -1.3221980282213874 -1.6740077302070913 1.4213431085546813
Ni 1.0041829538952 6.935629939435582 8.010021514415742 -0.5393109995669034 0.466861426246925 -0.22760742157346606
Ni 5.06315711066458 7.1606327746849034 8.859625156568024 0.025740342188897602 -1.1712812146324407 -0.4039218492999108
Ni 6.9312758295055055 5.025315597323782 4.624254420487634 0.1888902075089263 0.2745843045436368 0.6720223458914167
Ni 0.4637930623716504 4.5276389635992755 3.2666139791806543 -0.0069602333679170455 -0.12537007546809378 0.7882588344893586
Ni 1.2479383613111836 7.850105147754239 1.0516614393001211 0.12941313518921582 -0.5123136450424531 -0.43305167678633155
P 2.902070329897553 7.56732159188776 8.615508152469005 1.1199085165874196 0.6097371146989499 0.8619391948926446
P 0.14249992694119534 -0.28883165749252926 4.175431647665274 1.2882491820797686 0.6067014131964196 -0.7892057717836601
P 1.1999403726613866 5.286786439133384 10.11773681163858 -1.4065255839258743 1.1067688938816682 -0.21889163896702302
P 3.1275029699897576 8.759674974713905 13.885467732003514 -0.6451622882757793 -2.7745221585386153 -0.6436245114750141
P 7.16397777759256 6.903151643047283 2.9129574734394534 -1.8193483352598405 0.08295510083699262 -0.8601371086868993
P 3.128100959336377 6.0647332047518585 2.68261104276307 -0.9503720310147566 0.27094747912199785 -1.2904569883643646
P 0.7164809356527703 5.76701860238696 5.6650660905800185 -0.09861671863364951 -0.6682667355037265 0.10698771630616412
P 8.411654518564596 3.0800375656017938 7.986663489921752 0.5806291415894 0.6837272930331709 -0.6148219854210251
Ni 0.227649872466469 7.353559087638185 12.445460798708107 -0.7013738024703404 2.8016753219146393 -0.5127548463449298
Ni 7.760117094671468 6.84961290935771 6.184358170468131 -0.4142833950398929 0.42582070625553115 0.9866166151690879
Ni 5.438722451092572 5.678376025334084 10.787087777552506 0.49871199509861847 0.5307170872503054 0.23390970964241006
Ni 4.433324831337051 2.0510193666547814 6.646704846107643 -0.8195234489305951 -1.9459455982668163 1.1677857998846726
Ni 3.2652554221338024 3.3669509853933683 2.952643410171232 -0.04591167493044997 -0.19484565376141283 -0.4047587433789094
Ni 2.1122291824314643 6.315963479000593 12.709817873473504 1.3456626870022308 -1.6157485894548818 0.0955049124775452
Ni 1.3715352843907078 7.69586127066044 10.348138369457855 -0.08389072527738456 -0.6744520383788319 0.1411589628712343
Ni 6.779508002050053 3.2136508102372034 6.535155539645804 1.4040622099870463 1.0741325959038854 1.6028251965249944
Ni 6.021874187049577 4.864419088748835 13.008048241649863 1.4866666123528396 -0.36941815909608633 0.22617840243642337
Ni 0.10604593575622681 1.5822144060717716 0.7419113669761405 -1.0294995305755432 0.5969322496247977 0.557001217757815
Ni 7.808974693007031 0.8431864689763645 3.9744464939079327 -2.434895885992981 1.3985757329511783 2.7235729211842576
Ni 2.0690711700558726 2.0190175930270695 8.579172824795007 1.083090833538438 -0.08052283724641617 -0.7994991832898682
Ni 3.860778062699009 8.32459100713014 2.3330573045546945 -0.1561988879234923 -0.9150993238553916 -0.11072018676540285
Ni 2.7075275769916884 0.6622180742387744 5.978749811574734 -2.456338115027157 -1.1615699008819478 3.669451178093719
Ni 3.1370894867027594 6.734266370544833 6.619149683887064 0.1507967430713145 0.6050461369811838 0.6665852340362456
Ni 3.7575221209881065 2.336559279665838 12.773722378743393 -0.34613964818411996 0.9689225403234345 0.8154647054801891
Ni 1.7578924638084827 1.0200203279970896 13.097881191245854 2.759921120795989 -1.0855611494558013 0.060849784297521005
Ni 6.40860510980899 2.495063830854306 13.240405411504257 -0.5815146295181469 -1.892153235036709 0.1317852349658182
Ni 1.933383649874375 3.6813158536282184 13.423420985395666 -0.39437585748268855 -1.8483123265923587 -0.49283625304413187
Ni 2.316498605803445 3.80568829414164 11.17123987125462 0.14677013841042463 -0.4006048691115359 -0.4067300081726673
Ni 5.727121500667156 4.527498809846161 8.792000970690486 0.023274911367540563 0.9859740964890825 -0.9132599566538079
Ni 5.77767963120717 3.4028396897741104 2.9754258699191007 -1.050188169273146 0.36348019634509654 0.2703334996870828
Ni 0.3888743408237036 3.1378743477201985 9.851233515733828 -0.6131474259320795 1.0281831257569647 -1.006893363140253
Ni 1.8852828818056278 0.49676563432926557 2.334370078042196 -0.4546815963512814 0.8440260620576495 0.35127645519005307
P 9.431693533728769 0.3332351695541276 12.069104056754197 -1.3103709536794723 -2.6125927958892494 0.18704518388038754
P 4.003006091359163 3.51702762422791 8.053836380714262 -1.6498928394367585 1.0514364398579505 0.1886683213061073
P 7.941027559191104 3.1701003673528922 4.098590950982956 -1.1407359948557323 -0.17362016872373326 -0.9806971643608594
P 5.767850181322104 7.883368305159978 11.476334970258506 0.6602981154759532 1.162923586696365 -2.0429417505779077
P 6.546721961711131 -0.1669791814600981 0.9580321917114465 0.8256673570448038 1.9764697349976026 -0.027657356705952367
P 9.14105202410436 5.927578741954434 0.3825683562919247 -1.4822116619052796 0.03046217314459915 -0.48482983779988753
P 4.90253156601232 2.82352816665243 1.0146113274852406 0.8540168547217744 2.754267779164953 1.0873112993776888
P 6.795896647580859 0.5925607245827297 6.526608963780909 0.9665175304263677 0.9232790314527066 0.09787264137877338
