# total energy = -340867.07117380877 ev
CRYSTAL
PRIMVEC
9.32222564079145 0.00000000000000 0.00000000000000
0.00000000000000 9.32222564079145 0.00000000000000
0.00000000000000 0.00000000000000 13.64401953030721
PRIMCOORD
 96 1
Ni 3.1161869021472755 3.972442629165836 12.615055442365069 0.9765296632467312 0.5974367000650421 -0.6158792230409458
Ni 7.9705213782356585 1.6892525016151412 8.784961330911921 1.1664488262408041 -1.0197447651816243 1.0556607623519432
Ni 1.5750459179992373 2.26611181058193 2.5445685483114033 -0.8967143935903008 0.6907510326491717 0.2546718818904259
Ni 8.0544493736886 1.0734635792959717 3.4836317392874654 -0.37378800602900786 -0.4880524585022433 0.21040365610066988
Ni 8.57969152050689 5.720667528785565 0.6774601045827409 0.9205492912263695 0.03155180666435212 -0.12362172531841936
Ni 7.393699358170548 2.963610038704169 10.832122965285512 -0.4338764866804721 0.8627971720175657 1.1063261499172947
Ni 9.369489102508897 5.030860136634523 6.458246665099509 0.39469081761994607 0.11197205689463298 -0.36617625512002094
Ni 6.457561481531166 2.2116420474550242 7.276464915738347 -2.2885628351199747 0.5179045088666694 -0.6729831671427894
Ni 3.3408152458587126 3.4497174832108466 8.446357594774986 -0.5140198291002825 -0.10904099929076705 0.08489885482692475
Ni 8.965566397301691 7.278355463053449 7.664132456481345 -1.8306763586781505 0.7695034082587263 -0.6366861324839681
Ni 5.741847624938968 1.2803796947101094 9.984393345635745 2.170626847332423 0.49719992932946633 1.3163415694406104
Ni 5.965664935038896 2.6374440157221066 13.681403366998236 0.06788920764280566 1.1796023329036265 0.9180820606327994
Ni 8.365895602733064 3.174469455470811 1.897609833079154 -0.6727327416948802 -1.9693326097321893 -1.633574561892709
Ni 4.83670614781986 5.883461551288588 2.3253498920109776 0.10445235147882011 1.372218068893256 0.8140547125065399
Ni 6.529417195065684 4.593451997719999 1.519875123520775 -0.051421291894769496 -0.08696010823132766 -1.0074165826335746
Ni 4.748657728731442 5.284424668048496 9.469331068975691 -0.42673704742221347 0.07528858543067034 0.3572416716345525
Ni 6.143831307258892 2.797226959414588 3.4281421246996517 0.45980400517951137 -0.7073122794419625 -0.9539903444936345
Ni 7.094922033471362 7.593735671224998 0.2049845503071902 -0.43405055036449114 0.14896020408320798 0.622351975249483
Ni 3.45972955331153 6.1629325471437175 4.504286776026309 -0.2625075758847608 0.16147427738981868 -0.9931194492846123
Ni 1.601558327092669 3.887740889003066 0.5230635427377223 -1.4956513323499534 -0.6024043284829625 1.566062535083664
Ni 3.9436835637462733 0.8086433929103355 8.83330173082542 -1.8036134410230875 -0.5809412735131801 -1.0900765208276517
Ni 0.3110071522271997 8.48813794466069 12.761415313675824 -0.4019181886063207 -0.2994748971377294 0.022599996787703015
Ni 5.122348456902785 0.8175498470762513 4.943746736755694 0.046198867153565595 -0.2937403086467973 -0.18741079474992237
Ni 7.9451369584180025 8.277903116997162 10.041725031966479 -1.5394660155420583 0.1715458026932078 0.6836846127206935
P 3.3392864008898933 5.757303874684717 7.8020594426775 -0.8676565569923961 -2.1939079293475507 -0.9990242448048213
P 1.4806210967237912 5.93045488962895 1.1998533793127917 -0.8781353450365329 -0.31665732245428696 1.8963865563917663
P 0.932092030807262 3.631053412073516 8.008888861395235 0.08783531174742937 0.32650079090726997 -1.3861668177638644
P 9.271465902221474 2.529753667674525 13.586154460995695 -0.31132716849062514 -1.3947872124430236 0.47566231236800666
P 2.9467274884692163 2.0812520805106405 10.323678536450855 0.24837165070401093 1.699244907507325 -1.1545268779922375
P 8.729714094185017 3.027131682713537 4.061114705134828 0.3364108509321303 0.6393569944479117 0.9654178696042857
P 6.134854004179787 3.613294572649118 9.361856996557846 -0.6318231479647118 -0.077457310947215 -1.0197776753020888
P 5.65908490766348 8.424290022761635 9.468403507546439 0.5347411208080338 -0.46657166292064806 1.9878859472543442
Ni 1.8215535247705494 8.206811825947055 8.226579604949384 -0.345613857587637 1.980088819807429 0.26883094699962734
Ni 5.8929142878640945 7.927070485554757 11.774296982884103 -0.025452635745149714 1.0287814214625959 -1.261479627295408
Ni 2.366335056068387 7.847654447204917 0.9921849603072896 0.02943193210787189 0.43414131030608455 -0.8037800700534093
Ni 0.47854525524627267 0.7317956276636043 1.0511014249593598 -1.2233123721970676 -0.5307926776832471 0.3724474328407134
Ni 0.8832165351546766 7.335174426986102 10.622414843358193 -2.060636339644193 -0.33852738305450086 0.18623811459805992
Ni 1.3152448177795306 1.7815704999457507 5.028912723744362 0.2952775712269302 0.15312539120449112 -0.928502227524859
Ni 2.7954930254865364 4.617922839446532 2.7116396078369527 -0.33955890964280877 -0.014566842070581365 -0.5490603656441835
Ni 8.784146568410245 1.269183701981132 11.242972083979504 -0.38554488945461984 -1.9544500361934016 0.9542669951937888
Ni 2.9394188637402254 4.213888267534288 6.06155987126302 -1.2029106686122637 0.9807393304527046 -0.530684434240157
Ni 7.461266848012037 0.5079317064365767 0.6796265897702631 -0.29946795515919394 0.9899647057057144 0.07793656457647868
Ni 1.9325346183912608 6.908440236177056 6.28706823305407 0.2864028944451196 -0.41194214850122607 0.24061129003230172
Ni 1.1201679286483248 5.988998465264235 8.722512675048351 0.9973584270666241 -2.2605658356864167 -0.1065943375224874
Ni 3.5075339252634 2.4793483948305783 3.8326866223423486 0.6706918000054514 -0.4752313954781751 -0.060236576193554325
Ni 7.107050248742302 3.909732018767976 5.419376932113247 -0.0935436749861163 -0.4305096270907683 1.0894779680117042
Ni 5.522700749774274 0.5478904934752845 2.276013878422663 2.8928412406971984 -1.9937092388043407 2.3454364083785673
Ni 2.877789631491042 8.592453647106366 4.252049729512091 0.08977829440641312 0.2632542242427982 1.3473853261202924
Ni 0.3468650923038118 2.9847621681813123 9.936175066875244 -0.785580516326247 -0.23205928669723258 -0.28425705174671045
Ni 2.137548999819794 4.277521778248692 10.35797966488239 1.8215129470113276 0.3541877152995771 0.2872228192432537
Ni 4.021598723803552 7.596495049949209 8.373743984313851 -1.6258016028155098 1.6620698411189245 0.7370702274306855
Ni 5.013287741718517 3.3381118004870194 11.635878715408333 1.0993977982285776 0.3636043806277867 -1.8932518674175267
Ni 6.6277107398902775 5.5059766773714545 12.647828658050326 1.118595968423583 -1.120792718964586 -0.7242316809051205
Ni 4.719665607676388 6.42053360216439 13.296206215991443 -1.8696879640546575 0.1828655985814012 0.05459351897516404
Ni 7.533038661517779 5.118386511099441 3.63741396647733 -1.1231697038371946 1.0654219555037652 -0.3989681048390613
Ni 1.3945117005226562 7.188843454574149 3.0967556554825957 -0.07872692168825797 -0.5925634311331408 -0.659827860707754
P 7.178066961989055 0.9229954032427857 5.5694200146872985 0.5287203685352507 -0.8107652431219908 0.23860248713238907
P 8.061040187060279 7.038261547370842 11.930084420761732 0.04536402995709606 -0.021183061835518355 -0.021080731929699177
P 4.829294978611253 3.976180841559108 4.551726648964271 -0.7535635971000183 1.2815630283088446 1.2463324872413246
P 2.8244292131890725 -0.28148459654576913 6.262536796862309 0.22798280263501378 1.2565891319723264 2.4752678620521245
P 1.2370872798613413 5.6953017534187484 4.565015481299956 0.18432778494922447 -0.9946304866124999 1.3084601098100046
P 1.0074342566487227 0.11341046556506737 3.323546755491388 0.18577660158060907 1.1509923824764177 0.4522398196790083
P 7.412278553431873 6.263491392745281 6.1567136905662805 1.3249449948389054 0.6629715485430583 0.49654275536144166
P 4.454560161192911 1.9758363554654488 1.4874850513002658 -2.105956146626915 2.0278899984511076 -0.4459933245486642
Ni 0.21868356056133853 4.7987460459111215 2.813956625152658 3.0493023811431423 0.866958759594423 0.23679243050684384
Ni 4.906716060721291 7.900632654264681 6.1105425725079305 -1.5664494861094376 0.6875168419825901 -1.3874181736724622
Ni 7.071178325327562 6.0163591968708525 9.930539781609077 0.6087999475966612 -0.446918664576411 0.938415629983829
Ni 4.49986617673232 8.859283705292473 0.3567811434826737 0.606809913749826 -0.044616610268110264 -1.283809658251176
Ni 8.78123803407932 4.1840198572897895 12.356978953847994 -0.12038753465183782 0.006434956992066337 0.5249020232304251
Ni 5.672145345476385 5.972470159595228 5.056965164477116 0.011735800379689465 -0.6917303658433054 -0.45988782314256926
Ni 5.973821882281075 6.827914853002281 7.892301381407157 3.087833961559437 -1.320849484613293 -0.7769886608921779
Ni 6.824745296359606 8.151708151491615 4.343314316370282 -0.10010410181245341 0.013153506662822508 -0.09031668340838639
Ni 3.696644590126042 2.0371859209520427 6.527476307733317 0.5697335777228187 -1.4394004802770242 -0.6409865596315347
Ni 8.591959569159124 2.502290391588291 6.59547821327936 1.838751165266485 0.870265712480469 -0.27738269322438036
Ni 7.2808351750150715 4.64375472608433 7.7999041441604815 0.5512164927552377 -0.07025950764719513 0.2771975737967678
Ni 9.162209420303395 7.630297439320792 5.04614485743255 -0.15006423578066413 -0.9511433619631424 -0.1503066908087734
Ni 5.140088651876344 4.047589088273485 6.861140196620389 -0.5890266216244759 1.1357061457413085 0.0375483905674192
Ni 4.076329509242208 1.1111626588929608 11.839666291971644 -0.19010093998757585 -1.1356120433656054 0.988456239480988
Ni 2.436773791339122 1.3508557188825225 0.3326645463220873 2.2594540906794767 1.6939684895997342 -0.8200065592146006
Ni 5.939833048401098 -0.013874268092037362 7.6257649733217665 0.6731032376604215 0.6894323138377482 -0.8040981155144603
Ni 0.14250326665465293 0.36132386392966004 6.380215909447027 -0.9821495805366698 -1.995535236269486 1.050301812032875
Ni 1.7078410191018862 0.36178344964284787 10.454920554798594 -0.5272178158477953 -0.4658093308333268 -0.1740598273643131
Ni 3.0609527165359594 7.696662362083148 10.716285924443714 1.6946534314819006 1.2862352369735333 0.34759540679404005
Ni 3.130580418195186 0.39058539729934094 2.305702369716563 -0.8201037469140974 0.8892659077320555 0.21412352815441832
Ni 1.7284431372792715 1.6126517753420302 7.7483839331563455 -0.6373391926869346 -0.32171931035822654 0.4420831908609805
Ni 8.742159265120225 8.409710062205331 2.3417635343073226 -1.204220645672939 -1.0402081752422987 -0.47515477660396876
Ni 1.8324512062860985 6.072190004909025 12.8268787772401 -0.599484069512374 0.6955294278744215 -1.969860200100885
Ni 1.4758294728581007 2.292997108692147 12.015837707951835 0.07560817355361818 0.3999428100475047 -0.07914883971702497
P 6.217430276946881 0.883083227331176 12.570657411581532 -0.025550851885910834 -1.255959468808127 -1.2155962344997324
P -0.022494529937570493 -0.05357576170916343 8.844230175684853 1.4246906848706753 0.7643992542629416 -0.9719003920048359
P 0.2467080346178343 5.137012317487866 10.683580761004022 -0.6843469288950407 1.2888855301121869 -0.8291504304973978
P 2.450048640336677 8.977424268035461 12.69923886679451 0.43019312429161394 -0.7141940941634604 -1.0203903691854233
P 3.4760341255704654 5.763689599097164 11.256752197594803 1.3140849121959497 -0.7465321441745336 1.295248753326053
P 7.301269493134903 6.76041261873873 2.2762730362893286 -0.5940420725611963 -0.226445540054881 0.0070857032021877965
P 4.291766138689889 4.5576546521086145 0.6819823161338041 0.7288177576139061 -0.7187706577905493 0.7568561518083611
P 4.243365144311163 7.929289175204628 2.735162379238308 0.9860517438045535 -0.6048743872900099 -0.6984597141473391
