# total energy = -340861.28382321825 ev
CRYSTAL
PRIMVEC
9.37013630728377 0.00000000000000 0.00000000000000

0.00000000000000 9.37013630728377 0.00000000000000

0.00000000000000 0.00000000000000 13.71414163360500

PRIMCOORD
 96 1
Ni 0.8713589371868321 4.351050792525873 2.6095950754802617 -0.12371068548779984 -0.6494909975581202 0.2919675330170907
Ni 8.382982861061476 6.212400211573208 8.583858901024804 1.7324774443082098 0.5768215949178517 -1.6931925306656581
Ni 2.2502381761829655 7.152215488828986 5.697100822802146 -0.3224232784037866 0.289236764349489 0.06839365808304995
Ni 4.358631232603042 3.681517090085825 1.5505897934412953 0.24574398327317676 -0.5461647892639432 0.04131428536775465
Ni 3.2099649925784015 1.9126040633268304 3.2100418276941407 1.1994044552312182 1.2392269865447947 1.3692582149339836
Ni 8.734316112845697 9.004747609838478 3.3100455418691572 0.5804635625458132 -0.6544617112998341 0.5200467520206528
Ni 7.80621350567207 8.00921750353592 1.4379963644483753 0.28056803293089744 0.19633972180843606 2.261452352056428
Ni 3.0022478162734925 0.9998497390288548 10.623097542239035 -0.3633992065955161 0.030187836437289943 1.034397996318425
Ni 8.895538673992498 7.4895872378752815 6.017875249835228 0.4784331902449244 -0.620984405477995 -0.6715934858841144
Ni 6.674910127777211 0.40567067082933705 2.9846225903338706 -2.473213550626257 -0.9024651800311491 -0.6695564008494276
Ni 6.4630232409230555 1.5536341506490483 5.80846020487521 -0.10379980549648575 -1.267165879046908 -4.08651804941602
Ni 7.3973101379000585 3.186024294930484 6.925572511698533 0.5409662757821394 2.374768324573465 1.2713554916482233
Ni 3.712654052232217 6.14382955584426 10.00077714439334 1.7123099682213996 0.017068011225880284 1.9222968484996248
Ni 6.4510013563507345 7.446999969456578 13.522691769858127 -1.283811715133705 -1.1685627872600133 -0.41138139090174963
Ni 0.9689751406923033 6.670543644370585 1.138523067733497 -0.9798453578835254 0.06905905958119075 -0.1250864827894039
Ni 0.7170271741027632 4.743640753407464 5.619959303613881 1.4558262299332154 -1.1401405273635783 -1.7086572019601605
Ni 2.191018916247607 7.861216204377853 11.180371392530105 1.9160369836328421 -0.7382681043935285 1.6660087711620146
Ni 3.478728605351485 8.802146527825453 2.7885646743355386 0.0383433756648888 0.8008212445354014 0.9502571027034472
Ni 0.1913494226253074 6.6021135406826215 3.5711209580003165 -0.22785270481505274 -0.06088912217588868 0.5999985472549473
Ni 5.7356570586853755 4.958207499176416 3.133379122458835 0.1509890615877787 1.2009856836754091 -1.4712397362748082
Ni 1.2642187579871151 0.9780735428121187 8.772140541102193 1.4261526141281826 1.187771241867664 -0.26731913834079124
Ni 4.390283552233049 1.6782757005952726 13.484552505029821 -2.3727137560372813 0.3616768245877707 -1.138302445713575
Ni 4.34704974442581 8.4290089694163 6.601411717491299 -1.0536810129177532 0.011319024557245023 0.2607538264184477
Ni 7.086127919157454 7.530103706223461 11.223117953261925 -0.8647388691249689 -0.6457628979742556 -0.03354261184213578
P 8.343066081421505 0.9132087758971631 13.57376369648434 -0.22258939953358436 -1.9927646155028844 -0.42995941101425306
P 1.3205051653339028 8.23544069857063 2.6882189501941225 -0.1909092948214841 1.4887121820279585 -1.0446818947429364
P 8.481406770295813 5.898809867861714 0.5141065704498966 -1.1949667311748389 0.5889466603161599 -0.48773004216581806
P 8.925298226137228 6.565120243495155 10.877028229620084 1.6611732974465843 1.4030983034118805 0.24827189190135304
P 3.0151879741802534 0.01490507543974284 12.653174064408208 0.05541755753835617 0.08528194919795636 -0.012786096021074753
P 3.465254349688978 4.607942442903688 3.299458225128499 0.43362477568098223 -0.5048569316540917 0.64846692716898
P 2.5327946292447905 5.933104565862254 12.547890278560157 0.19322611588011884 0.5426079251506204 0.794632085005554
P 8.741268753806462 2.6069124055246458 10.543363306401389 -0.042590066756384715 -0.5364053958843342 -0.03789086150850249
Ni 6.4229752793781625 8.082613779338716 5.606971358013186 0.7058369804480166 0.5691743627852391 -1.1335829287507186
Ni 6.6206945205009475 7.435427851415413 8.040052747300997 -1.25290962623821 -1.2291058389503928 -1.3390860622259777
Ni 5.8977791528944845 3.2237578328671437 12.903717447601498 1.0297646113114716 0.7775715299788415 -0.2973660783248427
Ni 7.1728297881735745 4.1847402474953865 0.8983627323146343 -0.30371104670626403 -0.006546028648633888 0.26590271760923884
Ni 9.219220654246772 1.9995964065609868 6.155070908082306 0.3358290102867313 -0.8528086933462861 1.0057991016348096
Ni 8.697154153209045 7.99660530039146 13.182128552467848 1.3517394893239298 0.08110930587750548 -2.7607724130526905
Ni 5.626429382567262 2.541087199662954 3.515016331293204 0.49434266238632923 -0.5291106619951339 0.713093919120746
Ni -0.05499707662414448 3.262859410669398 8.056001655898461 2.314814569727652 1.9951526561190862 1.4261050487196987
Ni 2.070603297667023 4.672680712981756 10.883446772825103 -1.6617271130675253 -1.0980268860229798 -1.3586079343089894
Ni 3.816090984261714 4.057859235029454 7.569273686018995 1.423820109340264 -0.47978301940459955 2.716595204314844
Ni 3.0816503492944145 8.428118806490057 8.925025555177715 -1.4007974231928455 2.1054810067627097 -0.0029135741023691756
Ni 2.4883708141572063 6.5069785492073535 3.082719481819513 1.0192935365768188 -0.8834079062893817 0.3918978282558412
Ni 7.485679891135876 6.122250132484904 4.47953222423183 -2.1581839935833798 1.320537609799829 -3.491078068066033
Ni 4.333678560260026 2.5603521994140768 5.577870526433875 -0.5227381828098868 -0.3597094164487547 0.23857137678413748
Ni 8.924379952802788 2.365668882376586 1.2592572709403156 0.44366416219485527 0.793174012402789 1.502578912707722
Ni 0.45136695039464664 8.742927267890094 10.382894104194273 -1.0005815619896123 -0.3796753180477203 -0.9896708286143795
Ni 4.99971720194756 5.418328030683658 13.514929549141282 0.6953463653293379 -0.42883403916055823 0.9333626409409538
Ni 4.6411033544402756 1.329144430786498 9.056421099200112 0.0831870143421406 -0.5909438932518467 0.41514368615765923
Ni 6.2739713756610636 4.081500088323269 5.139662058116321 -0.04906847539187678 0.7752261696751165 1.1707831919501
Ni 2.239640552292635 2.4991464706327853 6.922693068885537 -1.0143930139514077 -0.9006962610561843 -0.6564358043070695
Ni 1.3438461742736143 1.1910942161302263 2.338110375193693 -1.0085275563095661 -0.19609289590495263 -0.09797394284332805
Ni 1.6037175279203284 2.455219272756684 12.30350494878926 -0.20397846930061644 -0.6560365119861217 -0.14933841335823314
Ni 8.262014404453016 1.426359592468356 8.802271150635127 -0.373566376936505 -1.712972798616379 0.3240528435874096
Ni 0.17934534131151186 8.465355727215233 8.040724586056909 -0.2871045484978346 -0.1693163991420568 -0.4339371647150784
P 8.192263111579786 5.3611983110909565 6.0972937120874615 -1.0272788687751404 -1.6574320852365971 3.8708621437774755
P 5.582605256187883 2.3080238053002686 7.508643283592139 -1.3951841907711262 1.3832517009995984 0.4644417610618388
P 7.865029849756602 3.7139658712814176 2.89291613164505 0.3721116467678495 0.13762112492130493 0.7307124035334577
P 2.225463536425198 9.3970283562299 6.770753501539048 0.0037484112988387056 -0.29089512588851835 0.8256174776434748
P 5.449802317728416 1.9574776449455698 11.24434787054603 -0.26065149651262853 -0.8676915239953895 -0.8536952097162974
P 1.2189797410618128 5.847142937595327 7.244084050871745 0.6414773832250242 1.7139742432976999 1.569595487937587
P 8.186931504158391 0.16290450057059733 6.036704538259294 0.002166154413383366 -1.2346450236010673 -0.259478816360766
P 6.265107226942891 7.339805612864727 2.767596183847667 0.10531984168543797 0.06859343279868188 0.5188643016767774
Ni 4.393891054618351 7.295344317232879 12.321977235029225 -1.5239486366327495 -0.6918645774283246 -0.3844809669664798
Ni 1.0431585079246186 0.24426258098843545 0.18748705253901707 0.3443784425186392 0.11435444108388047 -0.43111203656145747
Ni 5.335599099359405 9.351705008080005 0.820986022711121 0.5494444884564795 -1.3744477295547233 1.3158885410635919
Ni 4.391389228288803 3.5502883344853986 10.132693667980988 -0.8326288759643015 0.9766255653946471 0.31978661211188797
Ni 5.414073988909821 9.217580880435271 12.047214861146866 0.439670724764746 2.3669074337681497 -0.1405609242759192
Ni 4.654146583843759 6.9563234242390175 4.263218885100228 -0.08062362449033857 0.10799096075969788 0.2510419984473225
Ni 1.253902238178756 9.31006412340394 4.591233616271294 0.671494755522721 0.7983295884617994 1.5697374128320902
Ni 6.436768119666905 0.20230311168613557 7.581506398652794 -0.31556460361074035 0.7573685726684053 1.0902140748467806
Ni 6.631863722691287 3.0700407507089857 9.440211565302382 0.41545144720606514 -0.49396008223592996 0.17985303700732252
Ni 8.489718080986108 2.8789274555125344 12.74080732494926 -0.5974654964204484 -0.3062291851424274 -1.7954057084013142
Ni 5.183868486047181 8.35835814348076 9.80600855911765 0.2694284713743102 -0.12533382291351963 -0.03980556203271209
Ni 6.232827108196481 5.422844436267336 9.160580468720276 -1.2040450393270232 -0.7485111222777755 1.1997795791824497
Ni 3.5663674879741762 3.911094793832062 12.420651326896515 0.46606901225261665 -0.9049110704684803 0.9086224578817965
Ni 3.494273661084517 4.826866301943199 5.582012126574924 -0.2918837150540328 1.1179285100429135 -2.1820980811968163
Ni 3.3162035952915496 6.533121228830716 7.935111908432951 0.12748455070793527 -1.5904797875857641 -3.4462495988974324
Ni 0.6386244346000536 4.591657146421464 13.278346731672311 0.32232943313839973 0.5705504171971593 -0.08503538040478903
Ni 2.7698028508911445 5.002322099773831 0.9001908458610565 -1.3679724062430247 1.850971361481761 -0.15111761674584295
Ni 8.051139492293958 0.4236856944292928 11.245197741887191 -0.765677606754733 2.031472573596043 1.4751172169523434
Ni 2.8292376239560144 7.936983124605275 0.6135405803521177 -0.33967332373348597 0.954219686895621 -1.2841953237253692
Ni 8.198138186892994 1.758109259875218 4.045328552068765 0.48694688414289033 1.5909505565745956 -0.32578962377285825
Ni 1.397649495562986 6.430818083265171 9.340029818542117 -1.1709163750938545 0.019649141689495192 0.14320890342172754
Ni 4.468927104232647 6.91834626276465 1.6399237336782755 1.8754462066946733 -1.1156772521148914 0.23085626752806693
Ni 7.520433725803636 5.085397726132515 12.22785796630348 -0.07972939481084333 1.1393368005153606 0.6438973055204266
Ni 8.601719317379674 4.695169039539487 10.13495655584086 0.3120324220877658 -2.661121853837888 -0.017207365017221976
P 2.3963935585360856 2.9068973116687125 9.23614499400868 0.1591253175416679 -0.14684727150526322 -0.1283096177123919
P 5.677927650384467 2.148890784496124 1.4863799990373339 1.5053886142423751 -2.3660499708638607 -1.3839973209163712
P 4.681310608298285 0.06634524841333952 4.615480717368561 0.4291608263723577 0.47758524042233236 -0.12662425959016904
P 5.515196497331085 5.4347819896150655 11.413127446429833 -0.4090905379850438 0.08045598856422273 -0.8078912640083054
P 7.413126927578996 8.79128654012528 9.436824261114625 0.36837017744754624 0.4296063985502085 -0.17869218393000194
P 1.8513889644094734 3.027078676847654 0.6528904667601142 -0.3031438613488844 -0.823586049035743 0.9789351873644302
P 5.281542784396259 5.790322432492793 7.132573809608021 -0.5390662305459489 0.06752848186927725 -0.25265459435008103
P 1.166328946508525 2.748139096307197 4.7941204874343235 1.6962362025879882 -0.33549399554481574 -2.065189249122198
