# total energy = -340875.2070160813 ev
CRYSTAL
PRIMVEC
9.21006905086022 0.00000000000000 0.00000000000000

0.00000000000000 9.21006905086022 0.00000000000000

0.00000000000000 0.00000000000000 13.47986702398081

PRIMCOORD
 96 1
Ni 9.21467399068498 0.7428896880490204 8.103866915021676 -0.7082185933063158 -0.15142949155930693 -1.0199244852925984
Ni 0.9556459649649818 5.6796561138447 5.880416275945203 0.2676839778793777 -0.5013610026856915 -2.0107746789270595
Ni 4.756005928433582 5.579036110498141 12.099784272637418 0.3821484621785612 0.22647227952775834 -1.1301474207066085
Ni 6.882767421594005 4.345071071745544 12.368127920738566 0.6130304407382411 2.3052778338818105 1.644807454494051
Ni 5.734861267168205 2.7224871733857965 8.196015496942318 1.7645391007294449 2.202278412799433 1.3110337840744517
Ni 5.0744716928013025 2.80661194323179 12.255975990051938 -1.6308373654672041 -0.08460086397053172 1.6565890205100113
Ni 2.74265722439989 0.5684150627495329 11.890267176973355 0.357664618104584 -0.4046042200789161 -0.8082800148062919
Ni 8.456105081244914 3.1721411599657285 8.60613986756221 -0.02580256288540072 0.46728591537885333 -0.049861146496501224
Ni 9.07505855537784 7.624417434361519 4.466352022781562 -0.1422398546402389 -0.4124766808484574 -0.17537726062415604
Ni 0.2254818291927524 2.4378684124321355 5.830959126657267 1.06076877300247 -0.015802000029263106 0.7001558709028393
Ni 2.4470969015262547 5.087559200788073 4.002428876367778 0.24124635251313936 1.1646986763189167 -0.9596516565444698
Ni 4.873922441279898 2.2367389265664896 1.8249585855482715 1.3093245146928287 -1.212464630849286 -1.6524978811597733
Ni 2.8898433363890317 7.812440992102483 4.243192051972669 -1.5185061254609395 -0.2834756934959956 0.11124314914840842
Ni 3.980582592803656 5.0305212437422835 7.714123505994975 0.7343888239437804 1.2737070225995353 0.08372694600601065
Ni 4.824344640088637 8.129893648885021 3.051450574349803 1.5556937902548305 1.1155214432633176 -0.03400001109452854
Ni 4.754403376435201 6.021570713774925 4.541407637726379 -0.5024038421279089 0.19371642525297605 -0.096556236560195
Ni 7.8949724200190525 3.2235886051551006 4.176696275115751 -1.0877190763390687 -0.6053942643492219 1.220565919800182
Ni 7.047931588185663 1.9276582224651433 6.057164867269977 -0.07330497934173827 -0.6429755650371055 0.6697014110677241
Ni 6.778002887217151 0.722305183931898 11.932256802351597 -0.324127662689403 -0.7509372152207648 0.24418846586059878
Ni 0.23225675591693815 0.9607851834425452 11.905971265550582 -0.9378654139073138 -3.1597867977486547 -0.11996355974054179
Ni 1.3619297368301357 4.780173149374669 7.920298267634831 -0.06164219829182933 -1.2645436109327124 0.5534314981286855
Ni 6.369766580733282 0.2609442787017313 1.244474648438525 -1.744324059234151 -0.12010856995883831 0.7915524176389659
Ni 7.5931768804620665 8.625772971556156 9.738799673837907 0.48342344437066426 -0.7149181168136785 0.7720475148368188
Ni 3.4573125250567625 8.705744000302902 0.9144014341652962 0.3433327748629442 0.3777480191180204 -0.6736639952598978
P 7.211345841675642 1.3406821077481665 8.97583940351952 -0.7728193600058368 0.5898162074053068 0.09081881985578552
P 6.365852301426894 7.5966582865275125 4.65864168446304 -0.45114324418071977 1.240273425531438 0.5239278322426139
P 8.73736216702956 0.22874311461014524 5.884474232327308 -0.6630098579801614 -0.02490961875748613 0.2132619514850714
P 7.966930688773898 2.4911210311369234 12.193901046293998 -0.04961689169617907 0.9800659585347637 1.0689631358878042
P 7.453441714258495 6.790915403893754 8.451620698670137 -1.1555553192567518 0.6233660183362941 0.28325072196938317
P 8.225088921616376 4.146474354842854 6.560502503781848 0.6060437250077627 -0.12755268494170938 -1.0536434748115984
P 2.953005989290699 6.6622323204376315 0.12779154878116167 1.6181890805755743 0.14164695825124637 -0.5477334193026439
P 4.924218627849744 0.8541325849296696 13.221700533475696 -0.5034356258265329 -0.3689589600714807 0.2368698207119985
Ni 0.361060491276387 6.569192203842029 9.40827332417203 0.45982765932859515 -0.04694628684255141 0.7405437878015827
Ni 7.564027012215671 5.9800056725755635 5.443695989200472 1.0551755951854085 0.10153903448676706 -0.3777806721281687
Ni 0.23333986002618812 6.146634240131259 1.0440967041997058 0.4598441143888274 -0.40121447767107676 0.2495805834104476
Ni 5.243117265458407 7.418176360225179 9.097521913562028 0.38659904175074716 -0.7195432742905156 0.32610586946169645
Ni 5.243808020630122 2.7372140736467716 4.129907282804429 -0.2800054755592081 -1.820747529600213 0.3201313970458164
Ni 0.9558946368267994 2.9898094248397014 12.355309346765317 0.1669350433940738 2.178646889423422 -0.6054554566044605
Ni 2.956487395356145 3.0060744066163627 2.521328215299491 -1.0362484192636026 1.6677290962872313 0.556033711638223
Ni 2.5936751489642873 7.0994342937887716 11.269991136938316 -0.02744524069514628 1.3625815742447565 0.605656259761357
Ni 1.136983012643739 8.782583605604534 9.913942950143614 -0.3418461630150887 -0.39222975767396323 1.6701150800209041
Ni 5.282048226936293 7.031196892892235 0.6694817544404691 0.9000252031310887 -0.03282193162602735 -0.39888248710379043
Ni 4.435440268343845 4.528204082870761 0.7496369845663375 -0.10512289518328348 -0.23561409392802649 0.8040310097219507
Ni 5.123183747510681 0.3983575865214424 5.321042737889978 2.2209145398433816 0.6794266087752879 -1.6577863832522222
Ni 4.897094974773715 8.071593912392231 11.661729446900932 -1.0442067548787308 1.3132446756828415 1.0510721145399964
Ni 1.2146238939445628 7.869478949148272 13.171433819126513 0.2080994334475255 -0.6924111939604141 -0.9250965442774196
Ni 6.040331624238718 4.28376885277303 5.6081638745790405 -1.0522841325702263 -0.7998480819888547 0.32904618303694294
Ni 7.262111741762254 7.624362173947783 2.709103101178637 0.1305246230858397 -1.4689087741487865 -0.6777787887592198
Ni 2.852772808840299 1.3983923998277588 5.615550349881918 -0.2250905686888833 0.4294673018691829 0.6670153795951287
Ni 8.394176577583378 1.1357120231277824 0.7993805669988109 0.11683658407578588 1.2121501849326608 -1.1474362896940433
Ni 2.415147172317173 0.46809070261646707 8.157422544995125 1.1525628122873313 0.9234047583972935 0.33403386605952146
Ni 0.14686007554809238 2.337497080947393 2.572133718682615 0.11098166795690564 0.647849091079323 -0.17553358369636218
Ni 6.7645930268169145 6.948693095182533 11.711267644795683 1.9306897005490105 -0.4219627659620217 0.41532263493768473
Ni 0.06630144440194206 5.813321844606131 11.987120262116825 0.019890568276339938 -0.7984977386085473 -0.419648001785916
Ni 7.980386599518916 7.986409984616275 0.4266619704376573 -0.8168484732015933 -0.7651883258231402 -1.645395208676721
Ni 5.0566502093710435 0.6088933158120622 8.061189297492406 -0.0015097517763070774 -1.3766840750844098 -0.5121688919344728
P 1.3259275772803232 0.6041602613754674 0.3407430791589946 0.5554349017119595 1.831045569092111 -0.09500971800868153
P 1.12981757899581 6.592493678301233 2.9572941973967084 1.1294838189806804 1.1350006350338517 0.44142704533422045
P 3.0434120261648254 6.5781351807985065 6.315102058457508 -0.16456242939683918 -1.3966486911317948 -0.34700251040504754
P 4.780440241374398 2.4584252863423894 6.412749972551899 -0.8096632683070637 -0.18169420398111932 -1.5244240336072714
P 1.6603820213560194 2.3300461351618216 7.512639432474515 0.1045683082313941 1.1020010401793796 0.667965916433856
P 3.211652355787856 2.9509060935686837 11.10511892953257 -0.909529285966782 -0.4879568134646435 0.0661151464615184
P 7.192096797557169 5.81560594170727 0.8700448210653082 0.14193697868783944 1.054548760234687 -2.0900505311402524
P 1.741384577825859 3.896724914957393 0.8616866834875504 -1.049937486714921 0.6322070136666919 -0.37018640472067854
Ni 6.982061175010871 4.7241114596382365 2.579359017778759 -1.7686654641929926 -0.66270312537302 0.5283326461785288
Ni 1.0982638827518454 1.9697942879397896 9.997559324183225 1.0007836506980892 1.5820990197212366 -0.7622313000773453
Ni 0.4444963479644563 8.569444189819995 1.9312197561305084 -0.8133913678909283 -1.344379449414433 1.7696275709959457
Ni 2.895387797900668 3.9514787749020424 5.935751291240988 -0.19007934272102103 -1.280780127396233 0.7102682767464928
Ni 8.632523952101057 3.979468174459955 0.6033645114176511 0.10934053280905685 -1.0020938848690808 0.27781695254832156
Ni 6.661882337817295 4.923933115712102 7.713219998230371 -0.491942794695585 0.14937389458185887 1.8887038430355279
Ni 2.4799492174930444 4.998414943360946 12.415779896511083 -0.692607112021304 -1.9542939702315116 0.24997884729013076
Ni 6.447600873482187 3.081329880057529 10.61791549181818 1.3179109708102592 -0.5207846586279419 -3.442427139827549
Ni 0.8806096911649731 0.6625152582819943 4.218645376190587 0.25019533417631107 -0.1479973259493064 1.07490932616891
Ni 4.708804325033022 1.288175504628831 10.279355199001808 0.433320357066686 1.0892709942072207 1.0401994334915505
Ni 2.617298975836958 5.343930680253048 9.861142545824574 0.1307663067830006 -1.3586570423793698 0.013339911642015735
Ni 2.672108096195345 7.429237653041584 8.647119148375957 -0.016379469799287918 -1.375877005802082 -1.2271890815436541
Ni 3.50770081231617 6.449553408100902 2.1816360050083996 -0.8351362157671874 -0.8752258846992217 0.804601280403124
Ni 3.7803280634888496 8.545323019223689 6.547170928967739 -0.6056241209718408 -1.4331832957227189 1.3629860087720267
Ni 1.4706177605823332 8.347453897768542 6.184320000286266 0.1660446703693205 0.6335468155240379 0.34617872895217155
Ni 6.9412974098107 8.511853628636834 6.996819389506298 1.3575648377564555 1.5048828782505503 0.018364875660432888
Ni 9.03395401762629 7.067005640993967 7.162607998773185 -0.1761236518718773 1.195015582134903 0.12941802028522228
Ni 2.866072148413062 2.2498080144153474 0.03506089050248834 1.7489368754158137 -0.3289183992098271 0.8639228009815766
Ni 5.567035390648202 6.805559413534122 6.728043789171103 -1.4537369515043546 -0.931385462609925 -0.3354777975948997
Ni 3.511357209691784 2.9559532113566847 8.801584898868086 -1.4299359924300148 -0.30387842552206373 0.5357299670838644
Ni 9.10929238168806 4.910827187587419 3.3195252884374296 1.5006600984184542 0.5000399698814227 0.20177811921518796
Ni 7.626812052290134 5.38714432379557 10.054794376704676 -0.5450008508628291 -1.376544464182752 0.4973279702668983
Ni 7.738336777280843 0.48306535373236387 3.73748190169768 -0.6435010985232724 0.5004441472983768 0.21711294980004542
Ni 2.009830457692421 0.8785208475257054 2.362683856521932 1.485375918565874 0.6315722082961703 -1.3013258127580685
P 1.442886242955194 3.1822630257486 4.113907551013707 -0.5700343967926892 0.08065653461080302 0.5712929517901387
P 6.921873374382059 2.1836981394476944 2.5458748910815734 0.7615265607008369 -0.4309654836812643 -0.704022038726465
P 4.748195789958718 4.457968097010728 3.046867644037194 -1.1515965917193198 0.7911623812893989 -1.3675363471468707
P 3.637608834943468 0.727547555181771 3.638485633508099 1.2107939280150826 0.1512006633779525 -0.05598037202036166
P 0.6714388940936631 4.389868847148533 10.118190044350937 -1.4477660786329 -0.08445971040697713 0.5181729320367076
P 8.813713638676514 7.891914677125592 11.72833298156464 -0.9642282201715588 0.7012976978167664 -1.6266161282970049
P 3.6906404119933076 8.721180075873503 10.033671083553616 -1.5414889595093582 -0.4098731817873392 -0.7804565648361204
P 4.747919487890032 5.161681835747626 9.840046882880383 1.4930822860711963 0.023938255983152322 -0.13542180327714098
