# total energy = -381168.54188271036 ev
CRYSTAL
PRIMVEC
9.22033751749103 0.00000000000000 0.00000000000000

0.00000000000000 9.22033751749103 0.00000000000000

0.00000000000000 0.00000000000000 13.49489596284438

PRIMCOORD
 96 1
Ni 0.1863374915005019 0.34452529218628236 0.2761813834977923 -0.2907755695915185 1.7839113346084696 -0.260308511350913
Ni 7.993341208500629 6.249268242218729 2.3909045466349665 -0.1866078392326528 2.103966884111028 0.6869026054373589
Ni 4.444110539072259 6.955665969827068 6.915689351921602 1.1694996972519858 -0.052452304262445154 0.36783821620347623
Ni 5.0323865211753915 0.982399314522152 2.44350749490456 -1.0064678455670601 -1.6190375446187988 0.5708232112425718
Ni 6.252430818029227 6.613084324815284 0.7025851179942253 -0.13807929550464607 0.009300965685951722 -0.7978675612237163
Ni 3.8953160427433295 1.6209169164252892 7.628772746352658 -0.6220686396811093 1.5720591189867315 -1.3293498087748203
Ni 1.3271938405675203 1.25495249515863 8.316864415610668 0.7666481981981184 -0.6338134389218633 1.5860497768388686
Ni 6.1792489981810625 8.090071770681188 12.410513609124056 -1.3592684507111237 -0.837768511183712 -0.1396954909518304
Ni 2.708096147887662 6.270318273050701 11.062414497025511 -0.10941483769041803 -0.20630146100683827 -1.4116207390605946
Ni 3.252492543162343 3.9268219364589876 11.60322233689073 1.7833881151151478 -1.609620622180273 0.274938602559262
Ni 1.9675831710115643 2.682583473637962 0.09919423639794847 -0.2243583185085491 -0.17566625261948457 0.14812948065179649
Ni 2.0909789496468143 8.15373820208494 9.794689990168042 -0.35819786490023475 0.17530758372848518 0.18108099587715265
Ni 3.0383594218124927 7.6354261419936345 5.127048039589547 -0.7838437361407985 -0.642580643591532 0.8160681433921428
Ni 9.226146452648136 2.14684497540718 6.747326908650153 -0.08800474744575812 1.4833735434238644 -1.929285878222948
Ni 2.9059277122901066 6.333164094404498 3.219747436067878 -1.8835007015680336 0.7906874985355093 -0.09332821654120056
Ni 6.489070783558158 2.520102683747028 0.9780233422782388 -0.06773545567376077 0.00657482500404029 -0.15581656488340906
Ni 4.7836033709746655 0.7215605728572114 0.15952013947475105 -0.11791027675593886 0.31229390327926865 -0.813155083510406
Ni 1.8006858393911012 0.3300309214163046 4.291323090142189 -1.71262672813087 -0.3482700642635615 -0.022418991125148485
Ni 3.1002463280517363 6.067323319569892 8.727769684568134 -0.3449844515337543 0.20979996107839996 -0.11936603536585895
Ni 0.015771387533108777 6.1693740165686926 9.849303894076906 0.07383771191675671 -0.3529381591631922 -0.002815100851291926
Ni 8.856152743832824 2.4262488669101296 12.088080245923056 -1.6563270250978765 -1.3124628032114944 0.4283285602790494
Ni 7.111618760668928 1.6062289185648726 10.205083530386492 0.8401812343902627 0.10023008586735642 -0.549145212048506
Ni 6.074496742253762 2.6342043620412228 12.00010716043291 -0.3668604256712391 1.922505107855689 1.5651536501161496
Ni 3.9666261340505864 4.180252136830241 7.5167244372508755 0.7068325115920665 -0.7461171681243022 0.523930146235459
P 1.8172363454547844 4.564777097766088 4.211230627232894 -1.3426583529582683 0.1865880417383109 -0.691393808439493
Ni 5.972888621461679 7.83745296002225 2.701354237005342 0.1446451216476219 -0.49254546127659043 -1.7106755179417699
P 9.065048713403192 3.449697124605272 0.4251064329904941 -0.32350185617994603 0.31745076488985974 0.4467070627862371
Ni 5.060250381523274 6.508894509484018 4.450644070323917 0.3504950969393383 0.31718645548487956 0.902077457674427
P 3.395859573125692 8.601929594424538 3.035433808679342 -0.6043671086362882 -0.5555783692683592 -0.55481192341598
P 5.112668001006305 0.4969559140496874 8.909911000408702 1.0498084173362243 -0.5255861937816432 0.49597659844532643
P 0.7313332087217785 6.533973827864641 12.040187046119943 -0.2746185002156819 -0.9470928460428527 0.17962960814260678
Ni 8.49812703327415 3.0641210451784713 8.980934339215358 0.9749301799700952 0.5952533192604781 -0.9349024746242479
Ni 2.115348302029162 3.2976721975980245 5.9685357000618655 0.6390188943822026 0.2779192824541407 0.5270969739992148
Ni 5.052745026684367 2.393138634445123 5.432734503535132 -0.6524925033886053 0.06328281921904585 0.8416778735404471
Ni 3.092362939369592 1.0570840494056253 9.835633821491939 0.5807695238220062 -0.5786434786179389 1.4099186687678236
Ni 5.255758420840456 0.7739763482727138 11.13758053353379 -1.7402753430860738 -1.877197385057825 -0.009752194290757398
Ni 3.1016939210612064 2.4211131388446856 3.911657247142587 -0.8945906623790786 -1.133199577269371 -0.34445403295158095
Ni 0.8076794484479681 8.069252248290214 2.1266063342875228 0.7212134629040869 -0.1472740746300367 0.2676652088263003
Ni 0.4529693713046136 5.670406224845972 0.8817528749459138 0.5980905315989571 -0.4755178163703423 -0.7772691682470744
Ni 3.730189015949734 2.6273167698241915 1.7280756804766133 1.042723742575301 0.8274087652159428 -1.274201959958083
Ni 1.025347647248969 4.219705961591522 12.014384853268348 -1.4085156177727096 2.6758861566312557 -0.017190138626041365
Ni 5.878988702936581 5.865185857489598 9.411475239210828 0.3727554509994354 0.8998704227207792 -2.3727842042639007
Ni 8.151202609233957 0.8557257058559053 8.070662959949123 -3.114638740457107 -1.039934609865938 0.35361615906682325
Ni 2.986199971783381 8.629037387085946 7.425526077654277 -0.6897403319964702 0.2279298379098913 0.38614344227056724
Ni 0.5284571975965252 7.15680763544225 4.244292913942173 0.80589325974167 -1.2261729815743139 1.470299483848726
Ni 0.5790215292139287 1.3792703075578732 2.1582652856080036 -2.035964547929126 0.31603948636462986 1.7321892236438297
Ni 7.087387713351179 3.3049931456841324 4.850376134129311 1.018141939470879 -0.9846780033854783 1.2602185011947975
Ni 9.10084206412142 8.526691639282669 11.546867633235445 1.1789402738395955 -0.09607929692377647 -0.9162020700012672
Ni 0.9574859622190477 4.72345910854937 7.721900922617292 -0.454318813695224 0.15997043915078257 0.9131373150330145
Ni 2.4980107547617436 0.7615325805938576 1.5175689179205498 1.463002178856364 -2.166659892264875 -0.6077113425181728
Ni 6.092651587066794 5.3389443070279485 6.676127461394574 0.6434519904528918 -0.9936856062007272 -0.46189045539489487
Ni 9.05964559554619 4.127539466542732 5.579910454977537 0.9635116537205084 2.565411510217756 -0.04245842627452688
Ni 4.801638351398378 2.7382835333208093 9.605545827889944 0.05510131184951802 0.9929816381551673 0.35890594671085285
Ni 8.690620022183072 8.988519910991732 5.811455261926641 1.4720977133997293 0.2878347417956397 0.2148928022202751
Ni 7.21901725349889 0.7476965419313711 12.795401851362918 0.9593035291764318 1.0040150131511936 -0.08661043820139278
Ni 3.89101014506548 7.726292569435193 1.1935072430923392 0.382731845485857 -0.11048853037057102 -0.6151881105111922
P 7.161860380468934 -0.16810519585129452 1.2212641475235995 -0.08973998496930996 0.025286799591246776 1.1834211924290843
Ni 4.677053149207577 4.478456296781017 0.16148038325700123 1.8054245260898971 -0.6220228740448385 -0.325681123219452
P 2.0929152205512005 1.2751081532395276 6.381790311049986 0.06529213633959079 -2.1340495624290217 -1.9255395238066386
Ni 0.35913122904170336 2.209967406890175 4.358406578675299 -0.354517330724854 -0.06504351066389444 -0.6049916295941645
P 2.457496591171869 4.1589715975572705 9.731736290863859 -0.27520136930234546 1.0256847848151431 -2.5686626701652018
P 6.715052038775324 5.171825687304128 3.9698071505363646 -0.7721650142512896 2.1455315949266924 0.5764472422975685
P 4.759003510151318 6.538537894996409 12.173665263964462 -0.3326634680745561 -1.4150996987481308 0.3309392862945978
Ni 1.2390935144179418 2.4937509587720936 10.477370243265176 0.5133575129259352 -0.13857500419414198 -0.9488825909534239
Ni 7.556306424705352 6.16958608433441 11.669346910309287 -0.19339992245382176 1.5054014697581817 0.13311140997640947
Ni 7.041120059073985 7.389759465915207 7.773748725234174 0.2773649526125675 -0.050484124792480795 -0.13055007700713644
Ni 7.557624932987863 4.150369022539211 10.79209817030048 1.0708477545050268 -1.008064500630219 -0.6519885671689932
Ni 0.09427979643586312 8.172271080741208 8.410100469825691 0.7154246241364517 -1.4738501773144617 -0.4880120921826112
Ni 7.277428092447878 8.338735056492594 10.358331074164795 -1.2634681184803465 -0.268038533005319 -2.2185653228849147
Ni 6.233270956413443 9.054039630261109 4.478753191653023 0.370713223758426 1.0351729268112364 1.031334784012069
Ni 7.354556216805935 4.676942505155897 0.024920728573216255 -0.08531871597316275 -0.8110845741346224 -0.04215529321181127
Ni 8.468999986669596 7.604501129549291 13.429945487743241 -1.6794430422900497 -1.9799420098169191 2.0438809745627253
Ni 4.759953204928232 5.686689341118097 2.189142352296618 1.5400167458392058 -1.0391103141924296 0.5279994312088262
Ni 1.7356455776789999 7.754681989028553 0.13099886905314018 0.23267069502898638 -0.4258302193372279 -1.1330103440767003
Ni 0.8339878378359946 3.644402994547779 2.3223098447626707 0.4220152164665119 -0.2602164658577389 1.2152306236301975
Ni 4.748529206592353 7.789387339905268 9.957856773179387 -0.7147245127456336 0.7584486931064616 -0.2540069946129174
Ni 2.7392608891106422 4.576551468932285 1.7029751553194183 0.1641435966918657 0.9151422612781852 0.2299808069016491
Ni 7.001177556417787 1.5328903529768299 3.1323681403217423 2.924805709418937 0.7051810920315726 0.12173427848771938
Ni 7.81599723433412 4.045100427704074 2.590898280213976 -0.34588202364735915 -2.3366920865270338 -1.047336558756964
Ni 3.918578954608886 4.434124913408209 4.3967318341094535 0.6863971265558502 1.0976463627551094 1.0544243188416809
Ni 6.2570686478621145 2.8014705071672834 7.637342128155212 0.5176222017395602 0.01675716485368082 -0.4084343924582837
Ni 7.368137774149559 7.236305386573768 5.141461271388293 -0.2146233506089723 -2.664886977307275 0.0006620590640311179
Ni 8.28818916555047 8.725509779812587 3.391955682168944 -0.29694930250239826 0.9200152730997704 -0.9001357605670239
Ni 5.422139413553082 4.704004196129106 11.061752476782964 -1.4683657571611228 -0.15175447899889347 2.8838184683732977
Ni 5.649992397311155 9.340017622501332 6.657963396243903 -0.40369816332487896 -0.4810531443662747 2.3582307319297575
Ni 2.7547971580339325 5.4885350648982545 13.168536007178389 -0.9095043462661174 1.8917305456769935 1.547015288644226
Ni 4.080137710735826 0.3188263671162556 4.735277737336238 0.47860905370115636 1.618126345658439 1.2454040618897841
Ni 3.450268785538948 8.310096687782956 12.150574772412773 1.2069249319779796 0.3244331097449638 -0.3670262618251421
P 7.479473351151774 4.916809588858806 8.400910559299968 0.7084582201209476 -0.358522338119189 0.037368156235813056
Ni 1.6841223309470434 0.6188579979872678 12.094908827979193 1.1826696589750407 1.0500485583714882 -0.5052315413846912
P 9.201150117306272 6.8435374437878185 6.451721039846309 -0.05984988227809693 -0.2233735859977766 0.5019119900931549
Ni 5.5260710594304285 3.340279377832164 3.2306643158335606 -0.9561904374687469 0.22669416573057732 -1.8748671942627517
P 3.562461853941677 1.8834936917353575 12.232070570710865 0.4387551549290122 -0.9538214230159379 -0.20874760855448565
P 9.158238665930014 0.7180439360813403 9.972742086265297 0.28453601643970994 0.36493184118995864 0.28940722848908224
P 7.241348911262813 1.295752489215342 5.871211348137296 -0.22558859137122442 1.8084206326037435 0.05390214933509427
Ni 2.6540649693176435 5.559504003712833 6.244992771655092 -0.8690557513327678 1.1291858281242875 -0.6301257056576309
