# total energy = -340896.9460950035 ev
CRYSTAL
PRIMVEC
9.04387789953619 0.00000000000000 0.00000000000000

0.00000000000000 9.04387789953619 0.00000000000000

0.00000000000000 0.00000000000000 13.23662947516612

PRIMCOORD
 96 1
Ni 6.423902490805114 2.0012744721665787 11.494847211567118 -0.10051573542857528 0.1789526366802402 -0.3482911473094841
Ni 4.6331242716140055 0.5785594648108839 6.052713714843887 -0.956968453285352 -1.5053999270962848 -0.5397663419367672
Ni 2.6558160752964066 1.6179858922588046 4.805756521911392 0.6322851752027949 -0.25558205240952114 -0.4249048793094811
Ni 3.6136350725091324 4.367903514803752 5.0082643177331265 -0.7602286678250197 -0.30254916518767894 0.04167372558970242
Ni 5.137555593030112 4.623275488821727 2.765740790931881 0.22350239826615703 -0.540483936829082 -0.222756521239068
Ni 7.328769584208112 6.000404830737127 2.635849906544787 -0.6631612959563611 0.2496258348260862 -0.4470945280326429
Ni 5.102293513960236 4.2575410754886205 11.591462052422612 0.8962487668077919 1.2135465510595551 -0.5274093630333111
Ni 5.796393038057398 7.936084058098932 12.51979981717779 -0.8546274917225798 0.2078783185756549 -0.12211608730717034
Ni 2.011991467216028 6.457943646388343 0.4122298928678945 0.9349893779110995 0.08594400826198746 -0.4676777515006333
Ni 2.847003649427511 1.578635980478084 0.24316726109035355 -0.0755508379531215 -0.13205211547395967 1.4743199178620285
Ni 0.5200591420451768 9.144445598649122 4.7633859549859325 0.2609230050064603 -0.4847511620431523 -0.2890303047656377
Ni 8.612647503376785 2.405083610527686 1.418371232906538 0.2181172226948437 0.403052302210764 0.13061743990996216
Ni 6.733727652327505 0.462492147455928 4.667341782811973 -0.18116198562673316 1.1260660515483834 -0.15946598871053827
Ni 0.862664742602366 7.487516769105146 2.325199038990314 -0.15736668297934833 -0.45675133439611665 1.0806189749591775
Ni 7.558637823171702 3.7800605095555175 3.9432446208417993 0.5559306104014554 0.6436687344493882 -0.5507246407204838
Ni 7.805924570544777 3.9114590083516774 12.753359767009888 -0.03822664758136642 -0.37231502102790714 -0.7133376597004359
Ni 7.990917088465862 8.916295696444516 6.675814277223156 -0.08559459534236871 0.21436829717537279 1.0717674381058186
Ni 6.732741869660511 1.0088716867098915 0.5693021516188026 0.6347387789496101 -1.2931175659156635 -1.0183728245347623
Ni 2.020574107133266 6.429202203124925 9.392486605420613 0.12140903393781671 0.5309304888126921 -1.5213456517922639
Ni 0.2194677796329004 5.0093586269322685 1.4103493134053893 -0.24026496243647652 -0.5183860764887782 0.42836121328919774
Ni 6.401139050687423 1.8216449737090572 6.95154673305955 0.8970679202749776 0.7571430869211605 0.754964591212603
Ni 3.305112229372495 4.229875853668987 0.3788480359674536 0.4774584850364809 -0.5253828195215855 -0.054883539411757096
Ni 5.978835182473046 5.6063359486361515 4.994299666209199 -0.2416459019444032 0.5387235024945496 -0.20859025704101494
Ni 5.438002253399526 2.937903663977735 9.129303434251405 0.17293394128998604 -0.12299566169864623 0.8326517587824369
P 0.4367496540308203 5.569274137908182 12.485212411382756 -1.0085640659744566 -0.1026813756213264 -0.2960913253774772
P 4.116519890842153 5.954859862746387 12.742876104004555 -0.10498971203952885 1.006265499748267 -1.6368984840596195
P 2.6965135248512775 8.307127227629529 1.488379890018595 -1.1431101515148636 1.0759102566295986 -0.29218247724137425
P 6.158799304404685 7.743675560481182 5.971373983387986 -0.3676394699291088 0.39909486022491264 -0.6819648018161093
P 4.734270999574378 0.9520580471312918 12.591833398502143 0.6325674823299041 0.5380241624346798 0.013052719418900101
P 3.931138486180877 6.088682120760481 8.133696402933099 -0.015864220725766227 0.22605961747037193 0.9170757308554721
P 4.678560713072598 1.132971776219211 3.693257371593817 -0.12516618698740378 -0.6203308310543962 1.109031978884232
P 0.10069724723973308 5.755966904832894 3.740592122977204 0.7421067614133284 -0.7534612671941991 -0.26438730940597693
Ni 1.4348654570172432 1.081304103039883 2.6020031943316524 0.36739187269467694 -0.3111523334756577 -0.51159527881919
Ni 1.9307050946384325 6.391624891369261 4.7924674480500755 -0.2769564043202391 0.07642706991048773 -0.9947253603191515
Ni 5.881034689253851 5.454887173025958 9.161534005523327 -0.22214948378268837 1.0052051768045527 0.4126353179135087
Ni 8.556331277070523 2.3232184297786436 10.217102850240247 0.41925205189907794 0.6163430500512417 0.022307662358264806
Ni 2.1748807480899788 5.2972704728387825 6.991402197602519 -0.0969717268310588 -0.6971602786096252 0.24013075085145744
Ni 0.6050914887573561 8.892519342026793 8.954923906786464 0.24495979680898458 -0.33249300393496284 0.20543268524863975
Ni 1.2832358038534732 1.1257638057091597 11.482418210473059 0.7909440946310056 -0.2664902146815927 -1.079378160573541
Ni 4.376712251662961 6.796166583822356 1.5347080578163241 -0.42204349860128604 0.1605466233692267 0.3410900015753545
Ni 5.461823827205644 8.029706279830494 8.179310104394197 -0.04573915390832768 -0.5776124662502633 -0.6190105695810758
Ni 5.328254797766558 2.7980581834295197 4.963404875670444 -0.23165690905249137 -0.11739888433715912 -0.2705656703025469
Ni 0.5886877034234395 7.211777982554377 6.701122664519679 0.1981202107476265 0.32093666655593117 0.5061178006443864
Ni 5.091269027069705 4.358850593247213 7.096024487754877 -0.15334753451762623 0.6599255626278828 0.09906511902497778
Ni 8.09330282766824 7.084177912383338 9.259829198851556 -0.054640313052699445 0.2976152182211713 0.2946052277502539
Ni 4.542857328501302 0.3830534390881236 10.367550468591391 0.20933279163399432 -0.5705085082156304 0.15615003696342789
Ni 7.928975570243349 7.363208670409212 4.641741278266424 0.2533220527307508 -0.4006408645557939 0.08737457006092694
Ni 7.270328046647318 6.375065551339268 7.129910088642031 -0.13134943297998025 -0.8673796491819256 -0.014836807902516383
Ni 2.5291475245262904 5.083862091250719 2.4497558443224166 -0.4777567330031901 0.3827536998627279 0.9859265310805989
Ni 2.416126185173575 4.970298119237271 11.302387163846596 0.7348153699582377 1.057601945238714 0.616183641655242
Ni 1.1139977208489624 3.3062517579600317 3.6842433387112976 -0.8246653981428508 0.7229854672028452 0.2915749255643624
Ni 3.7335478466531398 2.6867642247134658 2.4806108417993835 -0.3588984905116851 -0.2147195098672044 0.37497765546173484
Ni 0.9686806943050368 3.350548670831089 8.203917591170608 0.5930629964773786 -0.030337217530960657 0.24753449951469628
Ni 3.4481863742520633 2.671606685723696 7.064759802619058 -0.14282760882290885 0.09056119531902468 -0.18586993262536375
Ni 3.9625116978488433 6.923404898886241 6.098406098040791 0.9820570208228635 0.18512534114985538 -0.49469516062974156
Ni 0.7234957441045295 7.325350998445503 11.178135137192271 -0.06250660317465365 0.1201409658586705 1.057019847482999
P 0.20350352675417635 5.535802746618721 8.15633141998775 0.6777479355212844 0.6081301752231462 -0.8115599711091442
P 8.540251262557508 1.5291659695747188 8.111102083328003 -0.01375308792003438 0.8072374324743905 -0.9679385791436105
P 1.752893415594362 3.045869475707968 10.465315690687635 -0.5907952834891245 0.8948907101180007 -1.3333856694070907
P 3.932757340285393 6.073027168498374 3.7996540705467683 0.40556735532313376 1.4760816377481418 0.1055782375531472
P 7.103812170824145 4.029725796758132 10.408636804886452 -1.3122997952710689 -0.13528784880243797 0.3044967758323531
P 6.184366346602823 7.7316924225566925 10.209332350538569 0.48693582839929694 -0.32013731058308736 0.6523845170558313
P 2.2982754151403473 8.396444563585954 5.821350522899981 -0.02506362783684716 0.9948783409572479 0.3305381942014372
P 6.889680279021771 4.056305753256303 1.5753702362482476 0.8579300737332515 -0.442086019074458 0.07770542240227908
Ni 5.250206133397994 2.901927118571229 0.5030530344578481 0.14703701891856613 0.10865764780941932 -0.35187860755042627
Ni 1.3498349190805998 1.2630589127519363 6.909626551242496 0.3907585724450754 -0.8500735538033101 0.13168933281790227
Ni 6.884299171802849 0.7589061427683388 9.221086131263087 -0.6662304217999881 -0.48529237925860286 -0.057158194378546724
Ni 2.6162400665737144 1.5201130480181797 9.157272530361048 -0.09086869925711448 0.04573118348852769 0.35848017202734395
Ni 6.331808684401279 2.157082396817982 2.670688732139292 0.32466399480884733 -0.3001151018248896 0.06455140151882433
Ni 4.159758670024784 6.777346274372648 10.60211609762138 0.24496031102961685 0.24149703507136472 0.2465752209252205
Ni 8.245637903290959 7.327892328073263 0.2936691784368768 0.022904158291683133 -0.288304996563839 -0.1038010910480664
Ni 7.68092913714525 3.9256036330414146 8.111604922926947 -0.5308710963296662 -0.3227148415022764 0.2994371019212585
Ni 2.9799938706951505 8.441012792787376 12.416580232453422 0.8723038259564203 -0.4112911451807884 -0.0492916471462764
Ni 0.16112391595103748 4.935406839152229 10.269546488124421 -0.2259943114500753 -0.9725241416317638 0.27677539865768463
Ni 8.566903570077109 2.2736851117315267 5.69580069979874 0.035475824309106646 0.6422561703725779 0.4032970712317183
Ni 3.5999155100703013 2.5902931815130645 11.428135047869004 0.32559370571196833 -0.5789602385274094 -0.3625571703101949
Ni 1.310295085868623 3.3859644958215056 12.66254295613431 -1.7329528412827315 -0.3335211880891611 0.2843215864360587
Ni 3.08695581200303 8.505730781457299 7.943963084332756 -0.7122770796464056 -0.5184583244876103 0.08459237933009948
Ni 5.595609909709023 7.670962783943145 3.531982422885543 -0.06477303061132715 -0.1400328196865911 0.47832803212562786
Ni 3.2431707111499817 8.41351940464364 3.7092207200847733 -0.4445136546793442 -0.10203782850005652 0.17263389355106398
Ni 3.365353498591383 4.1884277622667705 9.088640351431714 -0.12133807149056522 -0.15211674743431863 0.4236406678850768
Ni 7.220767596967164 6.070377312338468 11.447301737833811 0.37494860199601227 -0.11152417072393694 -0.6595350120576835
Ni 0.7465115084094609 0.17315317765168944 0.29412408548412344 -0.22923415854361165 -0.7460590611928571 0.9954362703432469
Ni 4.7030244021939165 0.2981250969692512 1.6851945648414863 -0.5624434718193088 -0.22098657382283876 -0.4591830837660608
Ni 6.152568072683949 5.656610864652935 0.26944967401288916 0.10963338145912732 0.03180043234004846 0.8613357569806909
Ni 7.850538019134594 8.757638950324273 11.235859495253132 0.3273996485724555 0.5503397465772393 0.7270447248738834
Ni -0.20797301110306907 4.874885209725297 5.915343543616375 1.049917946330895 -0.17221197552229695 -0.4394964039704109
Ni 8.06202005477706 8.985942598449418 2.432984877554738 -0.19595328500329479 -0.5687799555602978 -0.13984435782486881
P 8.460556612451393 1.6463384487820314 3.599503109248145 -0.12955171764960913 0.7740264929400605 0.1305117675700333
P 1.7718946025976476 3.1352229871751063 1.5960463493976578 -0.15038408101392808 -0.45673925021125855 -0.21592072926415715
P 4.637076446159668 1.1529044826234192 8.211978399345778 0.2898065208100299 -0.16611100483088165 0.013546371225866993
P 8.455356382786048 1.605342551263758 12.431127309699868 -0.7630026310257312 0.1780859178045707 0.6490798781626305
P 6.466824734268983 7.79843623982668 1.4996178124223467 -0.127314086568342 -0.08375368547888802 -0.642670632202177
P 1.7538882421390367 3.379624737568625 5.805678387270284 -0.46875915749027014 -0.16854995328967748 0.9263705258938368
P 6.872397428777469 3.9058156286800685 6.064692330829536 0.5073570723681261 -0.32405644313183546 -0.23558221224882653
P 2.3662491997746606 8.575106367131836 10.314881638153011 0.13605095222070762 -0.7011753133062892 -1.0028392476755374
