# total energy = -381170.9524790699 ev
CRYSTAL
PRIMVEC
9.20182662606204 0.00000000000000 0.00000000000000

0.00000000000000 9.20182662606204 0.00000000000000

0.00000000000000 0.00000000000000 13.46780340212880

PRIMCOORD
 96 1
Ni 6.156104739592825 4.021915919474556 10.82882719917595 -0.028602237117724937 1.2473167055314647 0.40564217442512723
Ni 5.9014902005589205 7.969931970391783 8.028291794369405 -0.17482087390005377 -0.005488791028713127 -0.9244319141102274
Ni 0.4054251137767477 7.713845139119156 3.351516850399199 1.0194897117480248 -0.14669197687432156 -0.8324219021598179
Ni 4.348387521584563 1.7414640672657937 1.4514786273792535 -0.3922384994247116 0.28745756096187913 -0.3793531588216112
Ni 4.714721436057956 3.602763520937028 9.034862110859997 0.3825341276527541 1.425989091967125 -1.5220845868408173
Ni 3.746164784988505 3.4790173582724835 11.219851454492703 -0.24947645373241548 0.5020397739202709 -1.2731177257549686
Ni 7.750735261525623 5.687740972976031 3.081944742402533 -0.1496813985199487 0.1623181134473527 1.1437382720171656
Ni 8.042313537577929 4.209559565299615 9.405254030816366 0.14998144625887072 -0.9803248686231051 -0.09226866492843463
Ni 0.8430557000928797 2.439348992072783 5.529825667998707 0.9791691577521071 0.7388332328683792 -1.139440158862444
Ni 2.3118852915054666 4.339148887786585 8.508648301453237 1.4307412619401296 -0.651632212270839 0.3896517125341418
Ni 0.6104353667401763 3.1209098766829473 2.139441222679909 -1.0124888549501596 -0.6167235733191121 -0.7728741245031722
Ni 7.6017944979259555 7.764676028661017 4.202601144106357 -3.270359660302916 -0.30891290262217763 -0.08846883156637021
Ni 3.1435279662003066 1.9806195377931222 9.424323896038405 -0.5970793167256233 0.44796381801147367 1.5551476879433732
Ni 5.119417765176536 6.218732370697443 9.496161635278876 2.0003555404762645 -0.24823589645709504 -0.454128809171605
Ni 1.9119002975507946 9.011882389561501 5.237225069023137 0.24809859954828242 0.18695056728405224 -1.2374678377618429
Ni 5.790424154800365 9.011155445268633 3.125554038513464 -0.06446989754861154 1.0320109841434872 0.500960424813163
Ni 8.147324781504743 3.4622424285775497 3.7711330209919236 0.744455464151163 -0.3989405940352355 -0.5371363605130879
Ni 7.322822724167701 7.540436718877236 1.9042802650327617 -0.7803454931795529 1.0251229987744024 -1.3864105583435542
Ni 1.0412878876622942 3.085317211811854 10.16260207859737 2.0785039639532332 0.7160866832004829 -0.10087157610609726
Ni 0.4181825260252698 0.6929232999624977 6.748702365678241 -1.3619693945820543 -1.4315671002755346 2.0949680230465275
Ni 8.789823912656326 6.102016403472794 5.382892742939597 -0.14953176031596183 -0.6495755868521265 -0.03603503924668632
Ni 8.146735864609253 5.459103190129069 11.791586699555436 -0.2730822660768136 0.47777884449037716 -0.3640476388127924
Ni 2.048510613651169 7.509352948987228 1.4414587585121041 0.046814132140061304 1.8811334868874379 0.47179203077932297
Ni 1.351840329941125 4.549760292535701 4.440361617737497 0.13630831964715237 0.14704858888279193 0.296268988605922
P 1.607163409614914 6.9010294014269675 4.955652859098242 0.9537676869598671 0.34872669218500585 -1.5493516500868865
Ni 5.325004972661014 6.088425305744095 2.900991744619814 0.9875882350537378 0.9043500557586877 0.21222708246265387
P 6.9879406526439976 2.198555596429877 4.979935559028006 -0.9373959304700631 -0.6624244177903366 0.9228797391317589
Ni 4.111228847406 6.011424421658959 6.524100503930675 1.5308103967495896 -0.8311196384086266 -0.7409826751112142
P 1.3256335280918816 5.0590353797359695 11.551469638159693 -0.4527805226738266 -0.07048885004918183 -0.6947601538085647
P 2.72909610465318 3.7102684598431757 1.485552990879165 0.08159344460277561 -1.1746961538512608 -0.7872892714872377
P 3.2423555827244894 4.026866502127257 6.619384497072785 0.2794521741588994 -1.362374600440273 -1.0326900124883829
Ni 6.517451264107549 3.417549157305859 13.025991479440236 0.40893035825809576 -0.053148301888205234 1.080867600634874
Ni 1.0251018748628493 5.980092202453667 9.399812990811641 -0.6630314552467161 -0.8267937573397631 2.2933144908723473
Ni 5.374593615626454 3.4356767554951184 6.439468545135716 -0.9891990311842835 -1.353508665409211 0.14736843411605588
Ni 6.495946595595723 0.8984608175839185 0.4249320657571588 -1.4408932627724669 -1.322645657281767 1.2148683551947723
Ni 6.011663669147751 5.870314412403993 0.505477493407017 1.245628004975132 0.30644387225639486 -0.08659141203799925
Ni 3.2718290329783963 0.13562940139632573 13.230756043636326 0.11463366288719613 -0.6494717142844105 0.6908970713087327
Ni 4.741149081743007 1.7432492216052435 12.36394122754108 0.5162237787301367 -0.04861159036011628 0.49934500069692717
Ni 2.0443881953827487 5.613758287980274 0.12531415389878303 -0.34260669533019705 -2.003419781223885 -0.4069657783325572
Ni 4.231938407328181 4.693962115491982 13.150690031146704 -0.5114965484577966 -1.3811243702439504 -0.7372643457193625
Ni 1.6796185914129975 5.682091051509937 6.570564206619427 0.2185226856633785 -1.080729789505429 1.6340571579560828
Ni 3.801799027959195 6.940422420639261 13.179888346788498 2.500708413612416 1.1524077747667054 1.0009371455568181
Ni 3.161416316900773 5.635465396674924 2.222537396633352 0.8948917385592654 0.4828714285219361 0.9388380622332282
Ni 4.715025096332192 1.501250386691884 7.786490798725625 2.1520881650982875 -0.13155666389477988 -1.087358093455224
Ni 9.099373355847527 6.805100360247768 0.4474121278771382 -0.4889094071858999 -0.1595248669729317 -0.1603843867597496
Ni 8.628212233977163 1.9474653569424116 0.09945426090828854 -0.7788647948689683 -1.2847465682431487 1.245839863875622
Ni 3.5188060560239327 1.7056045494264325 5.382326830610338 0.3754576804219469 -0.13384417437737595 -0.2142906498599019
Ni 0.643141418640726 0.8797746685265947 9.1561799115133 0.027668412449545897 1.001061072729192 0.49264367741735154
Ni 2.3092627709552436 2.6274343255694586 3.499676378929694 1.5181168604423212 -1.2737705288476193 0.06359546536345823
Ni 3.3447259024480958 0.22289860366389525 2.9237653450048886 -0.5423605850265047 -0.07399609187149192 -0.039486231020080385
Ni 3.8296805622299837 8.336229077559207 6.5700249795869965 0.23852869647166017 1.347994420459201 0.6049738889823517
Ni 8.111428456359413 8.616949198350943 8.816670241446765 0.4314758476587795 2.8482115178029654 -1.843830379561605
Ni 1.5436247976875883 1.2514115956073326 0.9799365498921188 -0.39622525198660147 -1.9056389282279698 1.8120474307230532
Ni 5.938996845340351 0.30475161085826785 5.718900197843274 -0.18192586037595118 0.609145503861538 -0.27732150096914177
Ni 3.962002827185081 4.4856419655393776 4.334289403216156 -0.14648963105552837 0.08476901411727981 0.49011268346538167
Ni 0.8889001198587205 5.4407823535834785 2.3758149810587033 -0.6891420362908389 1.1154419961756339 -0.42186249293873157
P 9.164099003392323 8.929930922823663 -0.053806760229376714 -0.3059265663003441 -0.22101896972267096 -0.3491771494588632
Ni 7.754820872488075 8.02569503893336 6.383401816319902 0.9939339747661076 0.9772164049011106 2.054053544220353
P 2.9255274947781085 0.8680193351830525 11.168350671982225 0.14187964308734274 -0.6022618893678272 0.8610935590628976
Ni 8.67220616643546 2.962988130427079 11.58907198193664 -2.5453360796241196 0.6217166556583293 -0.6518918936901289
P 5.9025024014730425 6.358305674928244 11.514110222602133 0.3348267942744621 -0.3336780253819995 0.5750187373811582
P 1.1184636064507782 0.5603047361943575 3.016612694491914 -0.026280530963083772 0.6237568260168096 0.8530169527023502
P 8.803369001252564 5.385046890521377 7.525445103156454 -0.3775431021960659 -0.2915540996287559 1.1209367007416178
Ni 9.192762692914933 7.925082268069728 10.980676660129742 -2.0039676833075553 -0.7080499289389354 -0.2889166620059089
Ni 2.069849649286139 8.273997124993747 10.009796547871058 -0.1288634333333329 -0.22708008831508633 1.2381862039851061
Ni 6.94380869278832 7.8901337310530755 12.785376599231276 0.3434050228617763 -0.12098505902652068 -0.10162079556729596
Ni 3.1696427497846296 6.7993676223432455 8.48994190837763 -0.8730401899018125 0.43856720728792215 -0.8167767394233933
Ni 8.037620606067005 0.7042755933056898 2.237634833358792 1.5809260824590579 -0.5915609580105554 0.34562285644870155
Ni 6.603976038611915 2.543578080747775 1.9745279286554118 1.449831188692045 0.5987191663218915 0.40669478405935766
Ni 7.063708491979205 0.9503554382682555 11.783573749046194 1.4975750317352272 0.2515582759621087 0.995612390909795
Ni 4.972529008884587 4.02459365098373 1.7964698254870792 -0.8178303774988884 0.22331059397032507 0.7314680507525595
Ni 2.300778686929611 2.4322083747149836 12.785052694938756 0.5197618737903823 1.5645795227802344 -0.6862495452343923
Ni 6.502038204733433 5.16774575791257 7.446671947288957 0.06163499920297772 0.9825175053990498 0.37694274960790564
Ni 0.3543071272483362 3.127599604542638 7.897169447588866 0.4655802455416562 -0.5749968830042871 -0.15164597844548722
Ni 5.0345769249202075 2.3456651965576336 3.849179232566552 1.198630038959039 -0.12250200989167935 -0.5392024990134973
Ni 7.348532627386377 1.928574007154316 7.491964257465278 -0.17079349790821555 -0.532387790084509 0.4232074370024002
Ni 2.5340817958080213 1.794954284663845 7.357609309038095 -2.457134899896839 0.5766837837884068 -0.7762414983135083
Ni 0.4450352960942521 7.421972404619105 7.8477289540299475 0.5861367016711905 0.6424063227971969 -1.5041439432019967
Ni 8.583022064074903 0.5602071968335421 4.652075401300355 0.2757436149590606 1.2841935239531561 -0.4707509911093183
Ni 4.592907656956733 8.286769260164656 11.338987502084752 -0.43855332333085123 -0.14508683717073076 0.5402031723638697
Ni 0.2927073401628766 4.068513968830092 13.356114366302272 0.6713633721511792 0.9654775191976274 -0.13634637197393937
Ni 6.51649427415238 4.672402236021203 4.956232574167239 -1.0794905177816894 2.0155268489000644 -1.4546430082583914
Ni 3.8956300526982166 7.486320777277728 4.29205393980048 -0.35485748767309205 -0.5205113503618971 0.2831260234660608
Ni 8.24008839437069 3.806510363123104 6.149103069815055 -0.13229225650922377 -0.25863035231754167 0.04311380047033865
Ni 6.6948532770470015 8.494914575413912 10.325751382483348 -1.8461024634252337 -1.2044533305090352 1.1352101799414964
Ni 7.567260043101444 6.506372265011169 9.17659784431642 0.42074380595325606 -0.936691962424503 0.7068271122754278
Ni 3.2755281672281837 5.842524896398124 10.619308971414087 -1.612863297487287 -0.27942929134076394 1.930083177313263
Ni 0.6833644426025981 0.8970602995918345 11.662511759169368 0.6648253139223453 -0.2506900144245424 -0.03174798183555823
P 4.970320570526505 8.20235170392696 1.38816730056628 -0.3163665306867455 -0.5576558206226784 -0.9815474281762967
Ni 1.7737348727732714 7.565520897894454 12.42217682686106 -0.825515919068604 0.8590459325052496 -0.6207249811690213
P 8.206271682012556 4.582242740052494 1.4421185294715815 -1.238835921753963 -0.9196434915826484 -0.8016951624999226
Ni 5.6885139264013596 1.7288575649717406 10.212487020375853 -2.3916170206996874 -0.16701037671669947 -1.6625290401435306
P 5.921899851718198 7.139218680172635 5.840676249455878 -0.9709277436789214 -0.3710186708139868 -0.5389744421630911
P 2.116116432887963 8.86800263053244 7.88991012666932 0.4959069215496556 0.2238016746741307 -0.7001008492951879
P 7.706318045048692 1.848619336765245 9.956248358966107 1.972543403360003 0.3029919091520524 -2.0824459793201164
Ni 4.105284467492162 9.015885184085526 9.170024979653178 0.6118197082595915 -0.47291765974333394 -0.25504083519407045
