# total energy = -340869.3528161004 ev
CRYSTAL
PRIMVEC
9.25185585414005 0.00000000000000 0.00000000000000

0.00000000000000 9.25185585414005 0.00000000000000

0.00000000000000 0.00000000000000 13.54102623445137

PRIMCOORD
 96 1
Ni 3.7253985815997948 8.714434154425703 13.531303789995395 -0.12455169333185646 0.3761665335635134 0.052111118872942515
Ni 1.8849638821764012 0.5249762125737296 1.9710727560012073 0.11395283477008761 -0.3787494637993412 -0.015392937516302524
Ni 5.101464126496083 7.6400068695120265 2.570655935065744 -0.19777645425496262 0.5987510480010914 -0.6058079548478728
Ni 1.1010078670972197 5.528964635008076 5.407066806759114 -0.15439268795268896 -0.15790892863606354 -0.27112694212265565
Ni 6.346255087124258 6.211899634820253 12.335360778484056 -1.011952008610083 0.5911724643228852 0.37836894053147097
Ni 9.253706334834451 3.0561285730459162 10.978887888961971 -0.5958081633226835 -0.13177340789127628 -4.599501723942304
Ni 4.174474418219 4.204533698244872 -0.20103912934754922 1.9131933435364599 2.3628121806528535 3.605420682075372
Ni 6.231717110294374 8.755780698727218 13.511059803961352 -0.5537361738532979 0.2721008760001507 -1.4146135031403315
Ni 4.6252155889116615 7.263918924589991 8.38774464405034 0.4516443521868544 0.18418637427535375 -0.32147042757221417
Ni 3.151450445039317 0.76738316549151 5.769045671336597 1.1709683113777125 -0.3245341540992024 1.035425923362307
Ni 8.654685668612505 2.2639384061590935 4.547455589908446 1.4532191313276712 0.4717238965455489 -0.43009490815085283
Ni 5.689549098969006 8.580430272648316 4.746291852351051 0.669969062906814 -0.4494725413465162 -0.2226559911054617
Ni 7.448585969624279 4.086942608946986 12.311176426995095 0.033509701721671316 0.16564846337216632 -1.245087816200946
Ni 2.493902537991372 8.247409717237034 7.761066479610682 0.25468216630307106 0.449939967901238 -1.3415954589113928
Ni 2.576956448976984 7.432089910441106 4.504218891433559 -0.7577084725063273 -0.08476721434506691 -0.746730633338585
Ni 0.25411055071178723 4.735340430446889 8.30641805457314 -0.1377036573327822 0.05489228116250546 1.504426250329106
Ni 2.9978881397547914 7.448706243751807 10.061415564914688 -0.27306272569278783 -0.8643948555219888 1.7815662314150609
Ni 8.704321875857442 4.699730036842832 0.9070010734676345 -1.4394714427242759 -0.9979636647507909 0.24060820470850824
Ni 5.387661038875375 1.8648410954554804 9.940684395702743 1.446824026434605 -0.30621581540598874 -1.8164648430644588
Ni 8.057589388430996 5.839281135884583 10.533212109409405 0.8249546472484953 -0.27512500753845526 -0.2267011077091128
Ni 7.830622857930937 8.101387674562876 11.759515086265434 0.8673845342779319 -0.6643805130754428 0.6597067617488573
Ni 0.5717397185419567 1.722667824862198 7.438573611100425 0.6466779535893572 -0.46699898026605385 0.7538014241424372
Ni 3.7092448410872763 3.7120481534442598 9.831001792882576 -1.8028714206507401 0.4023658176667006 -1.6957376656850152
Ni 7.3923439372213 1.8783303014504702 13.00737488751675 -0.667551711714573 0.0052669048258941545 1.1099264656740433
P 5.1220032467353676 7.0329648441696015 0.544158085543148 0.2200877161576532 -1.1946587130161166 -1.0944265702662312
P 4.190202573357191 3.8800896133118843 7.25971025531213 0.5161736422184917 -1.006520038961234 0.3244053418308219
P 5.114453732269036 6.600024244350988 10.483936724547048 -0.6245001319407373 -0.12100922739623675 0.6444544635754772
P 0.522398645502259 7.5742354254664965 5.599025239478349 -0.8060490685932441 -0.33533818669324184 1.2770692542035489
P 7.3832031035292225 2.8789370276302497 9.867143243018946 -0.4325148304462551 2.5168986502190327 1.1011219800085361
P 4.552773556716347 0.36243868181887545 8.359945592436384 1.672269921580378 -3.220194095192119 0.17849266632468613
P 8.002910919685874 8.505915824717146 9.66209065855437 2.5501635829197498 -0.3726382086952808 -1.8688302440400522
P 6.860362219311901 1.6186307045510469 5.625199665185089 1.3253998229881367 -0.1962638742651781 0.26249009238326404
Ni 0.7936538105002707 7.289898136135895 9.140002875412488 -1.5967771905587016 -0.7341615384243227 0.5731508309344838
Ni 8.870651742371793 8.728765279313384 7.488607648151801 0.3902255827597409 -0.3985137909104621 -0.25881752862768326
Ni 3.4257402187934027 5.741701811036054 6.095533491251953 -0.49390634617985907 -0.5766058793626198 1.4232686077121681
Ni 5.985099637727541 8.57015146067271 10.109459527748282 -1.2007288304695967 0.9489273281484303 0.29992946817664473
Ni 5.537272801663427 1.552415171419263 3.9121787505361794 -0.040662510716368686 2.3517829194218853 0.1616920498275796
Ni 2.074386381176002 3.7970542060382 7.090880537316403 -0.9068774501662316 0.15870905593985568 0.3584945702050471
Ni 8.830424672641879 0.5078982116504434 2.5806627424760187 -0.3831740752295982 -0.8673343977662868 0.1472452782746303
Ni 4.133405429596395 3.765135302963636 2.3909793411382436 0.29671944587977933 -1.1625775162108558 -1.1173438411840368
Ni 1.3492999255934726 0.5199968636940976 9.52001823319109 -0.7344227625055093 -0.15133873161771355 0.2666650496965601
Ni 6.129160286937406 4.122210683880388 8.214771944954094 0.8890591910378882 -0.31242065866512003 0.6622238717437563
Ni 5.815032021403878 4.62859251633839 10.34611645218466 1.3125502207189783 0.11996535951275468 1.3107275656879427
Ni 5.918366000661792 3.9610896122735677 6.007151436416881 0.2963502354658186 -0.4835591986175802 -2.3268745862159794
Ni 8.097113317107672 1.1120638349737715 11.014798967884845 -0.606616309681781 -1.212355873185564 -2.087334674870986
Ni 0.40127889833983976 1.2385644615646447 12.82782041808797 1.0027816549647246 -0.9633902976512956 -0.6966051774371035
Ni 1.8048798169551183 2.583617785270806 3.3018032814900544 0.5048348201669048 -0.7877317583412949 0.3990179842403902
Ni 8.207016114099773 3.17635644129344 6.763323202851649 -1.0866872926404447 0.2911640632791888 -0.2727163980969626
Ni 1.0877314537893938 0.12925953003923124 4.938994134289763 0.1401955705167005 1.353640820111701 -1.4744605572049507
Ni 3.7946857309115076 9.332902221883225 3.6737889534778123 -1.3215552524310659 0.09358738373985818 -1.7069055093763763
Ni 7.830345302252028 7.172741884068301 0.6977564730659315 0.6029460599190455 -0.04778652335565963 -0.400157240051156
Ni 1.6896757064958516 5.1157212365360545 10.406563453123113 -0.34645537965232587 -1.881262299155818 0.45734937299143175
Ni 4.717660133700369 2.998387739976828 11.674924442004263 1.3293521227676655 -1.567785688422358 0.5444604049783268
Ni 3.3616063532534386 6.16080163433306 1.488145303596633 1.6662345140195756 -0.3579736647045706 0.6488749612406761
Ni 1.4632272799297568 5.840030536217638 0.5023600506706074 -1.1504023143009026 0.7304547789966968 -0.8800806416883618
Ni 5.018909815732507 6.080116198474141 4.324949379168459 -0.01821472323581379 0.7208036290601779 -0.5083842280810599
P 7.090381862279962 7.2417977369809226 3.1837523749507755 0.5338661744022483 0.6269941020071846 1.4209502439916368
P 8.789873787953237 5.81958393453799 12.550229582126056 -0.18209529607427993 0.6228230013486306 0.9370403469028573
P 0.5171944765227106 4.229421190787069 3.1432246199020426 -0.7920249864000102 0.06458534008055329 -0.4301157340864592
P 2.6187655860766808 5.815550125337841 8.680691710540705 -0.28592621191901724 0.49741590199501434 -1.7515264905198609
P 6.469378786288402 3.648571169677714 0.6270658172045341 0.21606985324751174 0.023793759985488053 0.7046167348876703
P 1.5502317334118436 2.7414914554343883 9.34917161059529 -0.2696495862461808 0.47521262642509765 -0.5415190629618158
P 5.442543048451699 4.105742380265106 3.91984298801646 1.92137536512662 -1.4389613358570768 -0.05633364159472234
P 4.151280015318151 7.785316519276983 5.993298632482519 -0.056923452659921325 0.3014453906005389 0.7934853729956205
Ni 2.7955222942620557 1.7127220797012832 13.033441066508715 -0.3251345066873626 -1.0687875295418883 0.1550002396297008
Ni 6.319702260508606 0.537707691565297 1.9929820761087074 0.46158526544965023 0.33905420209224835 1.046286777336211
Ni 8.036430393842148 0.010371330535242373 4.656826405182636 -1.2866900651227646 -1.5277155598743497 0.7318843123543718
Ni 0.26566519362477936 2.3101329229855567 1.5065342925099674 -0.27896443588920344 1.0896062660594525 -0.913568231922846
Ni 3.657175395723901 6.377221049034567 12.498055590790292 0.24334848645780668 0.25783896676449786 -0.7056045527222363
Ni 7.48651857907521 3.191575744353631 2.634243941103853 -1.0170754458795772 0.041371620968251324 -0.19426124201285255
Ni 5.1838056445724945 1.8848713636167647 0.19427694782372346 -1.3491465317857734 0.3555989938248069 2.4430108017906313
Ni 0.6702312763885011 3.5550996688770415 12.784854798992816 1.76880044710896 1.6195653920978108 3.231206387142222
Ni 3.280171517061464 1.8950946644565887 8.16679644585463 -2.3892840016911365 1.3791813875849666 0.3250267774649047
Ni 3.632426681021159 0.37284239384999057 10.283258417582081 0.4732084515108753 1.0711696566208198 1.4340361306413174
Ni 2.240299914171989 3.595576538717974 0.9555418609664772 -0.18789056259981834 0.17622161090232233 1.314503487790607
Ni 1.2720839357209188 6.809588033783436 11.782818661066656 -0.459905306644066 1.7932130716253698 0.08919671087133026
Ni 6.414506028568043 5.46541363639382 1.9378021567703554 -1.1778791795649326 -0.29800833989453196 0.3866872305891792
Ni 8.094800353116762 4.890429291965415 4.459818309478446 -0.8829731327448084 -0.6168989225547117 0.2854829537340116
Ni 2.6328654145652712 5.128016953111735 3.5988933290809393 -1.1850307030080494 1.4177749315874486 -1.1380016266437045
Ni 7.3990237772270495 6.5366952902798605 8.33827959614073 0.4688920835237086 0.6591997402054519 -0.0937028262717999
Ni 7.487952616749575 7.025563359398689 5.758808492712827 3.294924494126474 1.5874952510361433 -2.162120866743941
Ni 5.802356978733689 6.264514939685483 6.592421994305663 -2.539118895069814 -1.0388974268506752 1.2855880903078374
Ni 6.393356285835158 9.001491489409615 6.951840870338005 0.9997773209207621 -1.9204600524012023 0.9909872334329578
Ni 7.412596249925713 1.4441221973648366 8.47738680166766 0.27606088908916326 -1.826084882652726 -1.4090807462475605
Ni 5.1782082717144915 1.6130703391168981 6.8445693011819655 -0.4741556459154931 3.0642397191792647 -0.9854308223911028
Ni 3.2834096666487387 3.5482347917520194 4.963029530897708 1.4190579120649305 -1.5674583869899263 1.284643467006381
Ni 1.2063217435313534 8.328048893816133 0.15788384720514237 -0.28875391117579946 -0.19410157650653667 -0.1787258653814148
Ni 8.933897429739249 6.206163484122795 2.6033297895869407 1.4849172337619008 1.2980306869465643 0.6575107825388031
P 8.503602860726236 5.312545220306569 6.566897048887571 -1.0771307593002613 -0.12323323163074906 0.5317388436466004
P 3.760296582294651 1.5130115168701128 1.9183297755236788 0.771414252128194 0.4565137644640138 0.3074707708590124
P 5.403056127198876 0.8000708977966526 11.989820611582772 -0.4637938430651948 -0.596112839047296 -2.2024429634017553
P 1.5153707401408414 2.142498544780332 5.56882810679862 0.3394043863428155 1.4916704933253342 -0.47762380696975165
P 2.7479862583208647 3.6058646025495436 12.077024905153673 -2.4095139555847664 1.2969906757178244 -1.9190050651222303
P 1.821366624282328 7.5404661511992055 2.205291816391165 -0.2998821598784771 -0.4019521271680497 0.22561841616789532
P 8.218275622807525 0.20392478322260904 0.5266757785142505 0.8674169301777642 -1.08527832810806 0.7534327279491089
P 2.0672624520839977 9.091327010816576 11.652215761541504 -0.9573705738197769 -0.47031133246873846 1.3070814842949232
