# total energy = -340857.72252818465 ev
CRYSTAL
PRIMVEC
9.28967352700776 0.00000000000000 0.00000000000000
0.00000000000000 9.28967352700776 0.00000000000000
0.00000000000000 0.00000000000000 13.59637622136900
PRIMCOORD
 96 1
Ni 9.106629883969372 5.046485134742962 11.502235122802563 -1.393818163661535 -3.9029510538922194 -0.8286205261358569
Ni 1.1348358182177452 0.0367963971804462 6.842336039588354 2.2279231099507304 0.5877341280652975 1.225297006727264
Ni 4.768435913837147 4.657452183184586 11.519434953496729 1.0511916708369962 -0.38327074870846245 -1.1213935857733783
Ni 8.990973447489557 8.191225446160445 0.575806484381264 0.3373775857207738 2.7323797208426104 -1.5437649000277285
Ni 1.861557695276348 5.077085319623646 7.974111839318031 -0.8696103382846572 0.2969338758834305 0.1410499480971958
Ni 1.4625290549105598 6.836791033408853 9.821628192928577 0.33914881868858365 -2.8103659077101018 0.9898803735220242
Ni 4.604110877299678 9.276621621410673 9.801791023895726 -1.992248595098414 -1.5512509239921284 1.068709368005785
Ni 1.0162624242234972 8.85360704377654 9.273190944945451 -1.6235765701397327 0.8179005686151914 -3.0059116728623327
Ni 2.571762532651327 7.57109328413553 13.353232317115838 -1.9634175297993346 0.6542012585495959 0.2759706433682021
Ni 4.0910329139890935 4.229867086132939 2.113720311692633 -0.5922482138855671 -0.845030592062764 -1.942723491785093
Ni 5.522971073692582 0.9575423973167565 6.852070688567245 -0.7561264727311882 -1.2113639415859394 1.3856016892890137
Ni 6.658624383188257 6.162983137248967 12.04761328126498 -0.9559965762903858 2.9231455481076947 -0.9044696120556874
Ni 2.1861760500033136 1.2980368042480603 9.919386215258541 1.065055830413598 1.4977012729004464 -0.21421994452296655
Ni 2.0906224672216753 2.4901620396361692 0.9565149594151767 -0.9383513524047967 0.676413532980577 0.24073547431499187
Ni 7.447652101168156 2.972556211003554 8.470977464239493 1.0126729459365076 -0.17341165225735294 -1.1019892131048377
Ni 4.634144392089979 7.954598879894268 12.549115382286608 2.1419297365080467 1.0737803547707894 0.24969885415586673
Ni 3.5892883524861703 7.015654409150411 8.257160762562275 -0.2845136478422068 0.5612265686930722 -0.4596258277304342
Ni 6.364838455182296 8.049465026828557 8.818432623608896 0.12664997062178188 -0.6579118746319637 0.6535985919685905
Ni 8.116917346931364 8.354955943586692 3.538810124008738 0.05667662675643788 1.4421664730579355 0.4326364436257839
Ni 3.908741648684399 4.69597645965702 7.061603921741584 -1.9180293314725225 -0.2728464959169236 -6.468645642568034
Ni 0.6407747457599989 9.207543608425619 11.45078612343259 1.2521971735522175 0.6943338649044236 1.9079359517922627
Ni 2.6131666079437403 6.047178065991345 1.5683830277941118 -0.812640862878149 0.07830397521822643 0.11564282087800083
Ni 6.80753785120203 5.39190306868907 9.693917475968743 -1.2157101343697774 -0.43209882595475907 0.2317319852648009
Ni 1.2578775452197672 4.340776499396596 5.922349934753575 1.7780944708163762 -0.6400002844588655 -0.5883139118281674
P 8.357259782642675 4.92033136708064 7.051977961943963 -0.43255005455956475 -2.467001508278274 0.5885908196386379
P 1.9223678987459771 0.5793551397013676 -0.42263370101600606 -0.6084546484421005 1.192402055771456 0.715370888080381
P 4.425535481440118 5.13345505910634 8.792952906823606 2.3353713108330814 0.7571618559742379 5.75690566637202
P 1.003879289297586 5.898292466998411 13.60602941823988 1.5111142038722425 -2.1230719803715954 2.3509977045164283
P 4.26176782531942 7.528583737683189 1.2139671159866108 -0.7143563307729375 0.4096024446244559 1.117637461165056
P 1.80808633396086 2.276527415561764 4.816190410011294 0.22969721422295927 1.669332950439241 1.432649791816752
P 6.572722771290356 3.09845915747833 1.8918132332659958 0.12144631493365536 -1.4817084970166159 -0.17248785489150292
P 0.9882076099127305 4.329331621505581 2.460278088591035 0.6532273246721008 0.6034880484654446 -1.3165822246965067
Ni 8.276606836336027 4.124420000953629 3.310241420634336 -0.7386653398319472 2.5681541059598993 -2.844118578680515
Ni -0.06611553606992014 3.8881743113055784 0.1710275360491302 0.36924126719858985 0.5685912365882595 0.9206194823426727
Ni 7.768935463068114 1.9056093275484196 3.9187614906432047 -2.300048724272387 -1.8083280728899374 0.03628135092953752
Ni 5.579145730029405 6.308886751012181 5.139919742973512 3.4249513516402885 -0.5475179608577281 3.975534067466269
Ni 6.325180838529096 7.564692699016286 2.1467859759501637 -0.5294803866297267 -0.3293894253089747 0.3496144941065979
Ni 8.594480888020072 3.5508662624234777 5.330853191640229 -0.2809367291242258 -1.5253948821609729 2.6809373459019183
Ni 7.716773945732035 2.691413528784664 10.755726240948617 2.244477928985618 -0.1905873927056911 1.2486361956738365
Ni 7.744949525799769 8.320101088191327 12.160136310835187 -0.9607106939366035 1.9206986507745698 2.048761442583478
Ni 5.7006267918644715 2.6180715556113183 13.345821944474878 1.8767106752293936 2.2748313444664956 -0.21317221998474253
Ni 7.066710455326561 0.6707933970725194 1.067685412507355 -1.2009604868644284 -0.11293879168327646 0.45749052655498634
Ni 8.346390864515657 6.8056613371322365 7.862567012379256 0.9476489756566387 1.9503059321180412 0.6960572753534335
Ni 4.597933244347141 5.729805656682392 0.05522710962831423 0.08013408644842973 -0.4823818904800274 0.19517938295174772
Ni 6.310205884665203 0.5625686994829718 11.051447207968131 0.5292993809671722 0.20837788391989273 0.69995326797373
Ni 0.5903949878228628 2.4034429364603387 7.628831392541394 -0.22562664369801144 0.16945215338897268 0.7047871990272636
Ni 6.299792160545214 4.075416972645915 5.344559176088609 0.07587016896575322 -0.16083535825423914 0.10181671362818594
Ni 2.5642471866985423 5.072133923588003 11.654188172022454 -1.8048614544975754 1.349366103995747 0.9496215260019775
Ni 6.6426461445741785 8.11353590573629 6.46348642824437 -1.8795298898457438 -1.5578347478572332 -0.4542103131418177
Ni 1.3830744764999674 2.9512364100620934 12.006959811600483 -0.9967102519596641 -0.6705095087913162 0.5121676063828922
Ni 2.503158293020528 5.267393573256219 3.7378478839352938 -1.6048967343420424 0.23275477010236045 1.1622319599459792
Ni 6.961049707654156 4.729447153684071 0.5207549495842325 -1.0920693828879644 -0.3903690503161406 -0.0890010499207564
Ni 5.389432015508055 3.1898416768078044 7.534418581679412 0.7546249484849972 -0.21771998725642505 0.6539320640486093
Ni 4.124150600418857 1.4142970695127117 0.867283928494435 -0.21080937617952084 -0.747822323740867 1.7923383823299002
Ni 8.627394201630354 6.051349129443509 5.267453956134702 1.8197512271252143 0.812747306549026 1.5916308704710718
Ni 2.9571725115006964 2.0199001820071496 6.860079316188873 -1.3049852638875266 2.319469294890844 0.44794324918618333
P 4.461133510724508 1.6354841982343538 8.709199996432355 -1.1972889515501122 1.57987064461135 -1.0204546467644555
P 5.373583832324556 0.1713415270172441 2.570884658494914 -0.7172063986272229 1.307647384100722 0.25828993825898744
P 8.990694757281172 0.7168060794442609 2.1526737710859796 -0.3745747635963614 -1.2825505890330946 -0.8324766666571534
P 7.5089825263601035 6.366640651863187 3.6822659087749687 -2.341437571631819 -0.9854904719844447 -1.921091258227298
P 6.884539955778833 4.236137615821603 12.06587306371837 0.765671693217462 -3.725926744582945 -1.0954005041437263
P 4.301666973486554 8.137679767456053 5.609266567751667 0.5724916000839302 -0.03543957175453251 0.7172452222849582
P 2.8439778385282812 7.794788624732638 11.210388878646961 -0.07149158028208333 0.018374388742129648 -1.1397386639394693
P 4.34282022759142 4.438048671796609 4.307032688965328 0.8677969392250022 -0.5791021634219123 0.4000556814762852
Ni 0.43260709460674757 2.386424254401622 3.1072889922473315 3.0653540352893662 0.558112962764755 -0.5294050533071012
Ni 7.770338203783652 0.2976448584247332 7.746358769286836 1.3560316889413808 1.644081374961304 1.6755902442028627
Ni 4.438522445150864 6.653468614333133 3.6126658161328735 -3.8769764842053296 1.8494796074275826 -5.266596807735434
Ni 9.041815831172613 1.463894636931647 13.6077972431284 1.2495152558446805 -0.5448494128866294 -0.29987470367930935
Ni 2.983443708477799 9.285149541787257 2.6444412231287164 1.2956853266428394 -0.33033559127232787 -1.4828881191470138
Ni 6.119618940824245 0.394420962253821 4.743164285740786 -0.7715638903321809 -0.45991481972576276 -1.6073999603798703
Ni 6.110375715579473 4.946881254266128 2.8066723672338516 0.03097279423243053 1.2515842225585672 1.1408046433101386
Ni 3.6635407136735743 2.3690246957247787 3.380521517384891 -1.8326496803544372 -0.9380608177475716 -2.0864144770495616
Ni 8.250140556213056 7.211601494665975 10.433423801853332 0.02279205819385107 -0.9184168182643989 -3.5309324810588096
Ni 5.546325313155253 2.709834951558919 10.226460092400304 -1.2771461301880715 0.6506832180940084 -0.4364820426241192
Ni 3.412385097876921 9.329247622427392 7.650178133536331 0.05184320992353652 -2.183294158387447 -0.04751090109676979
Ni 0.44437246623740523 6.918205732951754 12.081114631214952 1.4669382806859768 4.26253860005113 -0.9759316246514159
Ni 8.713035702667094 8.710490332097178 5.860241963880232 -1.580228285061085 -1.428838645600778 -1.995513896113247
Ni 3.0468178618645707 0.5157905480055326 4.856639506856308 3.6239940742021846 -0.9199893049578413 2.1086660893589104
Ni 2.6723046701630584 3.8800179778735076 9.650340546018287 1.0648887087081145 -1.1753960081317627 0.7354388624748496
Ni 4.806282044135844 7.017800323754976 10.46496781757308 0.0580303125708549 -1.6931866171283874 -0.9828571481266558
Ni 4.539241086461239 2.437861177195899 5.290254531050048 1.5161221986097955 0.7741679036139312 1.021467661410002
Ni 3.5944627006885206 2.377989230761166 11.771280792042818 0.7894646818720016 -0.5058681465274255 -0.5000929346065451
Ni 6.258109395044415 5.761669237174421 7.342287694084001 -0.27506870037922304 -0.6243960022627053 0.7376975766020393
Ni 9.034151850442022 4.683676931793625 9.117349238351226 0.5385846629238401 0.3618318621083962 -0.05885743645784057
Ni 2.4384464266335075 6.463634134054815 5.946266199469822 0.8296587375923841 0.8054386887027547 -0.901699248399402
Ni 0.9043599448506277 8.141460664616478 2.459652893556891 1.2296244304580242 -0.8993754853622318 -1.1733437535884244
Ni 8.561214566812504 6.163038875290645 1.2226408842389165 0.8588872954401983 -1.7565434841184782 3.25782604661228
Ni 1.0231553620442222 0.36771036371483157 4.290173789292751 -3.109907139309392 -0.4303916134556652 -0.8229761833658858
P 1.3176194362239202 7.087091999233125 7.627839255399543 -0.3733766295232021 2.0730660807671137 0.5403242713227662
P 1.0631752759683226 7.44337885130625 4.41736707143235 0.10780121334639499 -0.3831987578199465 1.3267329399772634
P 0.6398978005709471 2.9184531518823933 10.019455508383379 -0.3458190316199077 -0.35146080328671725 -0.9993507749063048
P 7.023123306735131 7.161232884337175 0.2246828329021525 -0.41575638004099363 0.8643187508684147 -0.4260289656115953
P 8.235267788758904 9.48977318245721 10.227044412870551 -0.20209436490402613 0.09953434535191245 -1.9208104937620858
P 4.883135513934842 0.8819439624228527 12.599490495386936 0.28993019087208777 -2.131037257965259 -1.0283433054839128
P 7.242452500734205 2.027954329029479 6.32193409760141 0.6607539720664491 0.2397923936754322 -0.4789306987066332
P 3.4131561407867865 3.819059139626073 13.330852564415151 0.2892071966631342 0.593497770021952 0.8043390278806729
