# total energy = -340861.50616947666 ev
CRYSTAL
PRIMVEC
9.36828364781253 0.00000000000000 0.00000000000000

0.00000000000000 9.36828364781253 0.00000000000000

0.00000000000000 0.00000000000000 13.71143007919910

PRIMCOORD
 96 1
Ni 8.157170472820486 5.708301187795788 10.530034874488623 0.036469298570627515 0.6828047812189015 -1.274388364937276
Ni 7.090919295792613 5.155787936751787 0.9794737045708902 0.07328775295055766 1.0356804625752745 0.15729932007652267
Ni 4.8940662029502 6.419531896478993 1.3350337860403372 3.126555803609667 1.6548350139333825 1.4148700992358278
Ni 9.043175876918461 5.501065390343487 12.68665119005796 -1.7083728379505225 -1.5099281539839415 0.7296636505539691
Ni 3.1405952276351363 0.6158390996249219 6.668800371135274 1.5423171118376082 1.3031140150067426 -0.641735007761785
Ni 5.217009668877406 7.449780760337968 6.1142148557995855 0.5840057713711168 -1.4358934955650302 -0.612122584211991
Ni 2.07043747642266 5.404159866685126 13.04849551604307 1.7663674121874353 1.5725648549785562 3.457077542750872
Ni 6.739880347899879 2.307792305058413 10.263087512197414 0.08924453339013018 0.24526498675422923 -0.1628199927844357
Ni 8.097756819394217 1.3072690044794046 12.26749264296018 -0.2500878620641693 0.32922487470665235 -0.3221450850417355
Ni 7.600891171843127 8.570471032298046 4.407950660619332 0.09747283483719342 -0.5207157530632194 1.8506090930463355
Ni 1.4670919195617358 6.519660109632567 6.646656559624131 1.1410388708081316 0.16351213375545387 2.0392938694126754
Ni 5.4168819955644825 1.234617966585883 4.166382914931262 -0.4374066113209176 -0.31802874888051674 -0.183613018270387
Ni 4.751612085321717 6.501682373756659 10.872259204514945 -0.28610336092682986 0.5054871090389229 3.3402900667454665
Ni 3.205751638795606 1.1622011357777695 8.924714869947502 -1.1132799555273085 0.10875534972954817 0.7123907224061344
Ni 8.648265257787125 2.0180875086922927 8.509560327181852 -0.012598662600617015 0.0237060853676882 1.2544561447897233
Ni 0.9772056431558004 1.6967179143790287 7.130766352475566 0.7770154003650553 0.3271584790959269 -0.7512809717134287
Ni 7.853862928933877 7.414546646409209 0.2880241263212331 -0.5848048702336446 -0.2015914571256786 -0.061313354197500856
Ni 1.7742873010661155 0.7338251346266741 11.554470718487774 0.9835369478024997 -0.26207511633303254 1.0667409314255047
Ni 5.946948839542992 5.0572710683458215 9.835085305554628 0.8141251607331592 -1.9212357542249623 -2.2601644864829398
Ni 0.136473405495508 7.500210229967991 12.133093375413043 0.9902768376294944 2.4245757350138955 -1.4592280565259126
Ni 8.552146669935736 9.164991666180802 10.421194157757874 -0.3054717381511126 -0.07369193036751179 -0.7772660829232807
Ni 6.451009328757812 7.729498966582297 9.594764478389271 0.8303969013099892 -2.3107375714448013 0.027912924360184183
Ni 1.0647147785475972 7.249374441496162 0.8326399144452797 -0.7379184343635937 0.9645043566510808 -0.9399932588835941
Ni 7.348228568105116 1.5343093530737948 5.520015554038009 1.5907140150837573 0.06467892823562409 -0.446471035516031
P 3.963514611207648 2.3095160692070147 5.525075363911161 1.3258754770729746 -1.212622753693705 -1.5129833958704975
P 2.6692862572437535 3.033740586988649 11.305265948158723 0.3136725287943501 -0.863519394895571 -0.0019447824311966508
P 1.3330505204411032 4.2177229817093504 6.974798486019049 0.0034509346630779278 -0.5276302207948654 0.08073829569133192
P 8.863098733090057 6.964269472287453 5.932386779800672 -1.4745955401209185 -0.002063053176615802 -0.07997262116990098
P 6.7210969396501685 3.3220026677086567 8.189082593449822 0.8378757261855376 2.448403176450796 0.5216855731756563
P 4.215390279138688 5.75362494296392 13.266631311250256 -0.125458521416842 0.5351015894712462 -2.5735824760643227
P 5.60493154858017 5.5053092227310785 5.060573388250072 0.36573453959691204 -0.30060541119774675 0.22235157249116547
P 7.222871567711407 6.764013045980306 2.9836895960086456 0.141152278003015 -0.5822309388588812 -0.5963375534635924
Ni 4.618526251109548 1.13626972728141 1.7867911489418709 0.4535636806967544 -0.7572161062509412 0.877332132408947
Ni 6.718080352390115 8.735305979008107 12.030120951414276 -0.4244693344339593 -0.5826721401613578 -0.24576558053973155
Ni 6.609417633044279 1.3343808166862199 7.684433776036457 -1.9591320150501035 -1.7181749116426086 1.0053098207032172
Ni 8.222785929868355 8.806917137442417 7.220425508911408 -0.7161496752279344 -0.34787308593545896 -0.8425191384948199
Ni 7.06695522681368 6.1193533592534335 7.757584143436067 0.5970564339074879 0.45361638831156076 -0.2640492093402678
Ni 0.8251256143170536 8.427689024749993 8.38058997987447 1.0027122351793698 0.3138144536888531 1.0029798870184599
Ni 4.410194364497539 1.6279078726861962 10.93301439612643 0.08040302383910022 1.1367962934816938 0.9128979453286988
Ni 0.688907962958811 2.378026325830525 12.855507004010304 0.8339668780494346 1.7711661191276595 0.21206458874286058
Ni 0.12958959084119984 1.5862658529006768 1.3678246516541221 1.8718533471370924 0.3974349560239865 -0.7619711044374232
Ni 3.8208824961942547 3.202500844450145 7.452491004730309 -3.313245661033165 -1.0762578697770044 0.49721432750716954
Ni 7.456254244178642 2.9298369556183017 0.27023281928530957 -0.3131973889301445 -0.7465650542949981 0.907395784563547
Ni 1.5309929807444194 3.1410823783727846 9.031732518725432 -0.4861632118993304 -0.40214187458135264 -0.4748375024738661
Ni 3.3482994392582524 5.435365618744872 5.516094927428281 0.2997533476100967 0.11374663229655248 0.4909372362492061
Ni 2.777058989665039 8.178117954539365 12.903785515767941 -0.1103795155965325 -1.1391452533298447 -1.0754189188154768
Ni 4.248263585646537 5.04034258021254 3.3241442572976267 0.809514144323709 1.368648606374443 0.2181753296262888
Ni 8.934634945257038 4.613804636267726 8.193100650207079 -1.208245964782248 -1.3770337451143446 -0.3607013480483788
Ni 7.870060690960685 4.458806387144797 5.945865865980067 0.0072890774622455115 0.4677816240683492 0.2824662783948748
Ni 2.259180282411155 0.15131182959860906 1.0262223756466429 -0.11755212208557175 0.5808263452018707 0.6319807565884986
Ni 5.50436302610603 3.683431041910083 6.3227790758403195 3.22827507242804 0.533233683024572 -1.5213855038912638
Ni 9.52613899187974 2.6534070168531 4.219761520180741 -1.1625070679842364 -0.2919719038924649 1.0946631117570695
Ni 2.235038216047312 3.3014486538932624 5.163669473589934 -0.7953401668161721 0.02704620548451471 0.20259752979268977
Ni 4.644232820803916 5.670959210098357 7.521568979328848 0.9072116935771988 -1.0922264772911188 0.0977811101062316
Ni 7.415155584831269 0.4026132217562296 0.7730351480373182 -0.7390551190711981 0.7317274750615334 -2.5554849951326633
Ni 0.6671276408442206 5.209552515278019 4.982925307982288 -0.8382536783502468 -0.7507598091026361 -0.8905825696609502
P 2.2756778295072855 6.28455366901673 3.8413119118402124 -0.25470479201089036 -0.7178697432428346 -0.38645171753960544
P 6.976719920947734 6.530742788914067 12.092192386845753 -0.7444091842942598 0.5491382700699704 0.6503577164337896
P 3.9392788620096413 8.493557425450103 2.76133151546573 0.9504116260034406 1.0394031628425002 -2.207132141347308
P 1.9841462178749842 7.17397849656166 10.877537295391695 0.9938527279062109 -0.13447075221778132 0.5882141530255096
P 0.04164576709888597 0.4662641497716975 4.4622473576436095 0.403896395378614 0.4335458428139307 -0.16620459298595247
P 7.758156545552804 3.775165273122638 12.029105429491947 -2.138095964584253 -0.8882359238056445 0.7781531135139244
P 2.3215636816803955 2.6526294493295457 1.4528080978368805 0.1524281080271504 -1.9589900901556003 -0.37441458386941323
P 0.94029460649552 0.758868429855167 9.691334617501326 0.3064060770399239 2.3319697413507003 -1.802353343363741
Ni 8.741592097180455 8.558545207509079 2.2332900943618275 1.8604353351081375 -0.7293409771072278 0.3502878660245387
Ni 4.784045082508999 8.773566048480337 7.988923597290205 1.0753579836705545 0.4552534096943514 1.1531690784127622
Ni 3.879556055230634 1.5673887618168025 13.397163351403137 -2.415241602097163 0.8896230339611582 -0.8208784202965926
Ni 6.855466228690372 3.453683259408378 4.085635806509361 -1.8230139570368862 -0.3187160047555285 0.0989519904858812
Ni 3.921535333219141 2.913283198821673 3.088746463067542 -0.1794393465086716 -1.3179415669378787 0.6524467377523344
Ni -0.13226517258489937 6.200979212659784 2.6349805402015503 0.670011228998659 -0.43669030198018344 0.10503753455832877
Ni 1.50274760624423 4.823260716889693 11.212398154652794 -0.16538183997434097 -0.6023081692247304 -4.1507935715656386
Ni 2.8099229278894713 5.989237270884238 1.6273682595614163 -2.398180789960134 -0.24579129157134444 0.8077858487786926
Ni 6.3802319475475535 8.590959468129528 2.4055053747472597 -2.5519708113318176 0.19724963521721514 -0.3463260531633132
Ni 8.454697785839228 3.954361798309908 2.678377239470945 1.0151262925730067 0.0012351579586817438 -1.983992268626893
Ni 3.54860270698248 8.483158630857993 4.798548122065795 -0.5048175937757242 -0.11439172207971911 0.35133970432782075
Ni 3.810614857569973 8.751737948120324 10.645498967594701 -0.2615159013954528 -0.9594174290464766 -0.1459404434202777
Ni 2.0055621137646797 1.2720629954008935 3.4924791946920215 0.38182141785644563 -0.0844126592191256 -0.24815773492099197
Ni 4.8966799540233525 4.104760220275427 11.757015816433524 -0.5614595106394846 -0.32672216288945666 0.5495061949323504
Ni 9.062483909039486 3.553867682262449 10.54558435130302 0.5764490420697814 -1.7169065864531463 -1.1812851199226884
Ni 0.9375684360213724 6.054065792125136 9.175908526845834 1.2887685449183481 0.4123553247792447 0.6699037568865173
Ni 3.627099553727782 3.9670745589058476 9.438824716783001 0.989160207526548 1.2137373269141225 2.459176098696584
Ni 1.7126533644701802 8.199702479530554 3.0973296843335696 -0.3934538598890514 -0.0705641833718075 -0.015248441518638255
Ni 3.9763023180709176 4.019227792684472 0.8025611668805177 0.5348501355820724 -0.9306609257390746 0.425588535640067
Ni 1.6539798054338006 4.069507369779834 2.9599138295263803 -0.3286453480540985 0.7869529711937415 -0.7058704047891134
Ni 1.2565584863468924 8.878172301106908 6.193686004020185 -1.524389066604278 -0.2661562283809416 -2.40277483708872
Ni 7.930233175343675 1.2502536316077126 2.8608348641154344 -1.7991284086685402 1.237065717227418 2.2930949186623732
Ni 4.942846854698951 8.619392208298043 0.22940865064203442 0.012700221175487806 0.18592392579175077 -0.058222888197635214
Ni 3.406176694204246 6.467872238907179 9.096121667474106 -1.604743753703946 0.8557474642596359 0.3401716035261432
P 2.866273152638605 7.991389329485378 7.624487067283799 -0.34745425323048545 -0.4709435667360986 -0.5738954224099923
P 0.18896577113380328 9.24520290879129 13.432594199283638 0.1429505075540183 0.8225568364402801 0.9369130772963735
P 5.833808080724158 0.20921344208148454 9.974255839845695 -0.6960490478233173 2.5918771606084525 -0.17898451835944013
P 5.790123775153882 1.1710635318896034 12.903730242895783 1.8571180978094468 -0.3024704894309436 0.30933713464378987
P 5.729539086300574 9.453534795403302 6.003577302309591 0.6920445546496146 0.29605430149195466 0.07346258796552509
P 0.5251981470870509 4.537584282392588 0.5394210749697 -0.012642628464675 -1.1056103547971927 3.1190037022940222
P 8.54430541671628 7.310877222124269 9.094010056392069 -1.2873330980234023 -0.3304343216337212 -0.6537279184576031
P 5.985892793704613 3.595434755780638 2.034611286981989 -0.2141132437417732 -0.23124733231889852 0.03165567923206806
