# total energy = -340861.22536568256 ev
CRYSTAL
PRIMVEC
9.31678902006472 0.00000000000000 0.00000000000000
0.00000000000000 9.31678902006472 0.00000000000000
0.00000000000000 0.00000000000000 13.63606248633332
PRIMCOORD
 96 1
Ni 0.4911541069953716 5.880897083623406 12.282451750545363 2.2257582410889283 -0.4748362169222854 -0.38395697614220975
Ni 6.349158907919269 4.386940621473272 11.344590211027079 -1.009516659695713 -0.9040800899267527 -0.2938665498120165
Ni 4.111172978470224 1.6617332017426503 6.741410639351314 0.04954232970450177 -0.25677555849699 -0.06686616569493001
Ni 2.355936480495316 2.212225007360344 8.951421045923057 -1.0128585795847524 0.946421531007441 -0.3399342907043565
Ni 8.105969943265963 6.208195887593036 0.721208923876103 0.5611949441241884 0.3766205903817965 0.12773883281058646
Ni 8.118743261234718 1.3504872255338989 -0.03211869902661269 0.7827127078601488 -0.07175974634180544 0.1979921698101945
Ni 1.138120332915517 6.840899040954198 5.051820237953976 -0.29218247724137425 -1.4660023991352686 1.5438512890939475
Ni 7.061921230722816 0.6892029579985948 9.673436803742335 0.41490097401923387 -0.6270797197424556 -1.8901760567056802
Ni 4.360937462865836 0.7541875625442301 8.931143985946981 0.44963194974251597 -2.1272178842191685 -0.033789437745619225
Ni 7.384356670739353 3.794737550687004 5.783108996046268 0.7439988362297186 0.804497407835408 1.3738928854925176
Ni 4.5669689388403425 7.57330115535376 2.733580418168638 0.07968260073330793 0.2100367596795544 1.042801904111404
Ni 0.05242370937023389 6.5162648386906685 2.771516520360598 1.2057563655911752 0.9016462836742795 0.48326275042308375
Ni 6.73648578458962 0.1013014487777339 11.89382425010518 0.030013772753270884 -1.5867609439732802 0.553258462885931
Ni 6.22100647271852 6.450478990275366 6.545677942138779 -1.8376507331134544 -1.272706349249163 0.0523664294168582
Ni 7.243701104456133 7.948460305352198 8.42434605823583 1.2519554898550567 -0.014553986554774934 0.015734380016121288
Ni 5.229793271627459 7.126896518479269 8.935725982866773 -1.0301279081881614 1.2719995529901256 0.6431177470419247
Ni 0.21469422655608794 6.705740380288459 9.341439542988137 0.49257657162484203 1.3002397787827413 -0.43460308043385154
Ni 7.546534020033386 5.0886625490959485 2.7959796137162214 -1.2664004616357933 -0.7857625504300662 -0.04915383601683148
Ni 1.8533050209064288 4.899000671714515 8.712462173620926 -0.42289941884367815 0.1185437965748797 3.0048438937194506
Ni 2.566579767114996 7.431406456109312 12.338440995135613 1.541220793449636 -0.2909298357811957 -2.9111171561882507
Ni 3.1845064928332363 7.517065015850183 0.9892361784266047 -1.4724265574940576 -0.27218983616953124 -0.6074645166146893
Ni 0.3803467382150697 3.8043338435446388 7.435377271658753 -2.153483502783917 0.10901400270757354 -0.1925494015280684
Ni 5.69307061371086 4.883963373974493 8.75855232970512 0.16066026612895556 -1.6421494480459138 0.08485411763191837
Ni 5.75945273663382 1.708251930129225 13.285220565259067 0.0015462614411973369 1.809521064756774 -0.2322914573126967
P 7.824798562537256 4.992746204465509 8.309857626049652 -0.2774749958278705 0.13387914138036944 -1.552521820284752
P 0.8989033855530395 2.9089158688246486 0.06018552643789968 0.6080157611324689 -0.5780364411615593 -0.34084728943692916
P 6.622243315637852 1.111809720265069 7.333133895494701 -1.0195725012698182 -2.0513852533595704 0.9238662714147444
P 6.008406660370584 6.1316025637264175 0.7500266844954729 -1.4528810312619624 0.18859298798348165 0.9393610246162338
P 8.009131236506489 8.394762457545685 13.748287347906953 -2.1340115101022343 -0.14899799929967888 -3.461728154149006
P 3.594389316113621 0.14938632942583122 1.679922369263001 1.000569477804754 0.6970682331164512 0.8834030211933753
P 4.358608265570293 3.2067270350327113 12.412403257737186 0.1744344370949125 0.5197400194135113 -0.47353215339888116
P 0.28679872139473767 8.672868614633458 3.967726102148026 -2.1706096209412427 -0.25868485970456095 -1.263668664526927
Ni 5.194743510724136 5.75390924707043 4.1944259432442585 0.35003152703935847 -1.571497075835674 0.02926506751270444
Ni 0.6068965790054689 9.111093110606003 9.773116199523455 0.3114942901961087 0.9167985659346856 -0.21174962860560306
Ni 3.666929836685996 0.7778754990398973 3.8388786344742885 -1.066751472948466 -0.20083426724467993 0.8080267611449052
Ni 3.8819799645888433 6.098024855513877 7.523452606513478 -1.3746228216800067 -0.5721061917200534 -0.874463038391268
Ni 0.4083427580285722 1.583090184255954 2.323189829877825 -0.5090935954432587 0.4266267470965943 1.2404621445034767
Ni 3.411174656846249 4.377279111091362 10.114140497316257 3.722154679135022 -1.1557198698590743 0.36529539517696447
Ni 5.209631739837244 8.577790781029414 7.194509389253194 -0.7235040587104765 0.9933642183055665 -1.4161746769798642
Ni 5.329324530460581 1.7779880971577673 10.836647249925436 -0.7309216913307864 1.5236249347447437 1.029359405453253
Ni 3.6397527626416064 5.555629339695489 13.502552374832629 0.7721791553186765 -1.2166789260409498 -1.6547720219059308
Ni 4.769646370709268 6.155965967437791 10.891027485023926 -0.8777753905939528 -0.8556628749656296 0.4728608383634694
Ni 7.7389350334343785 0.8285429936492921 3.910713874105573 0.9651155078725185 -0.9176629708175099 -0.07093622199924557
Ni 1.54417395584203 3.895694278264997 2.435360244915478 -0.0022564001343445012 -1.753336032924774 0.010943643495697283
Ni 2.911934508519672 0.9500236761166879 10.72768181036645 -0.8312394518159427 -0.787381831201044 0.4604799482006134
Ni 3.760377232183161 2.899794732215305 0.9138102482445115 -0.826703511618802 -0.26376073156557156 -0.4743219962900283
Ni 3.2157922709069626 3.7536225600260877 7.151733215081098 0.7294402216892534 1.0083475790882763 -0.1463875582600253
Ni 1.1435333874303577 5.565700788801415 1.0089598211252584 0.895686980767051 0.1011284293119097 -1.4911889257032254
Ni 8.434684899191284 6.440808163104275 6.656348354118103 2.7008459119003874 -1.109767828608992 2.0528201860338835
Ni 5.626325136009794 0.812291718278833 2.82031972545464 1.0279830939310166 0.674994026925231 -0.5437806053024828
Ni 8.90549952372306 8.780058274174323 1.8212459493305821 1.464127807820375 -0.10392733221328553 1.5850907553597087
Ni 5.550588956747935 9.090689342297052 0.6626761958391204 -0.026376433110999735 -1.434832915511 0.6073555018406508
Ni 8.799427878884055 4.796907295856296 10.126276546904952 -0.136659532338984 -2.4820347484623126 1.822608236958035
Ni 6.827119509753769 7.765292230030736 2.7633885534780727 0.4710505246276081 0.3228014876788118 -1.1529333082528725
Ni 3.6288893864551963 7.389974694616202 5.500991961215572 -0.4683994601580062 0.6128028981084672 -0.012242307702462787
Ni 1.970184141196751 2.4168123810116144 4.165025883301002 0.18208809698542835 -0.26762407117571974 0.400463201327349
P -0.020458737365127 8.229939140123916 7.7787056114163065 0.8648453127958461 0.5944089689823118 -0.4276137936002119
P 4.131138857687614 3.0240527495379053 3.0601916430966245 -1.413045130211947 -0.7422306885857024 0.5936072990166229
P 9.181388284985475 5.013681029757845 4.423374857249066 -0.798262996889922 -0.30485390206145563 -0.09999303015588586
P 1.09597117865538 7.523400432494057 0.013671456445916188 -2.224309167347227 0.8095532250917605 2.381276043784996
P 2.8599654584615277 9.233804540924364 6.786122842315466 1.284739112043981 -0.3364486461486012 0.3960149357480083
P 6.7314174512745195 7.416704562779848 10.475686886640625 0.213225184709865 1.2905927426112807 0.31901579538413444
P 1.5818696848730895 5.469299971133502 6.900502268068212 0.672606500529661 1.8778609867837528 -4.516697546860879
P 8.921226263862563 2.093352094185038 5.886702374962816 0.005208797894449094 0.36715018899751606 -0.6177908382413618
Ni 9.29630156275836 1.149244579199028 7.899917038676338 -0.16148224780961867 -0.587137375021563 0.32008743118175836
Ni 7.695910100991117 6.378916732567118 11.997716697954475 -2.590567183547777 -0.9007816216811391 -0.14559771536887828
Ni 3.3469447122243694 0.5990024635314163 12.877543025978103 1.7364644539804157 -0.42559367784638963 0.503035819284953
Ni 7.471012126922717 8.656051810159642 6.138082390602617 0.3462257801400231 0.3314437367348421 -0.8293908286429782
Ni 7.797239500136397 2.2162871274437705 11.217979704435981 -0.5658560970452835 1.1821040162795577 1.1127541649308255
Ni 1.680413364052901 3.6339111358243863 11.241787827512097 -1.8684564056404014 -1.1961916047208754 1.287438770363331
Ni 1.6661866269717276 2.1540882428636037 6.592668100057971 1.5450118850609522 -0.6048062530562358 -1.005811442929984
Ni 0.971852913170512 0.07458462411894333 5.796240078719618 -0.6190655911887274 -0.7418306249338062 0.3258107068187809
Ni 1.760435266338559 0.7958233617204294 0.8462523465267607 -0.4411941033878079 -0.2759004522518991 -1.2195791304068804
Ni 2.2186349583176774 8.02219337493989 3.4269060553803428 1.0036370609864844 0.16516998107385103 -1.65531863843802
Ni 8.839229202270284 8.213532274374115 11.571317070811938 0.1533634753572262 0.5379287745073961 0.5438801069948247
Ni 2.622610937256566 8.226203107661865 8.797005513696691 0.42854864670965553 -0.3334268286031419 -0.03553675945402912
Ni 4.431186053299397 5.024842543198085 1.9547974638623973 -0.39836440981679133 0.5929570670271337 1.4011452934505675
Ni 5.944595971261902 1.193816098646529 5.390881488266095 -0.4793040228856519 -0.0547783812924605 -1.4713680343225564
Ni 8.612588988624818 2.959720320235022 3.811715535613672 0.3452297347753409 1.4210664578545267 0.6045532565051653
Ni 7.861702364487831 6.750367800471053 4.506882170367773 -0.8371187934148552 0.6541912312472669 0.6278718766264477
Ni 8.097705951261378 4.29243111200934 12.806389775314953 1.0291930550787178 -1.5068664843394823 0.12599485353628626
Ni 5.44983719853195 7.314368950402893 12.659039164325426 -0.3515708465020203 0.8272421577310913 0.7893443542440535
Ni 7.6595094056563795 2.6900831245138415 8.092989792577363 -0.9556427924953929 2.367718616815535 1.5728111666614073
Ni 0.5489489453291264 0.964883954862249 11.958486493745111 1.5146826379497913 0.911109228859392 0.3751190661356056
Ni 6.016856988158813 3.3830659038836424 4.014293277838347 -0.7103479809444927 -0.6411418542624764 -0.526121754570139
Ni 8.573197603962603 3.4274976714934104 1.3410837902123347 0.6801948543998801 1.6440469221789424 0.1478515444000615
Ni 2.895015219364851 4.722810871490498 4.7633361093961835 0.20046145728629347 -0.00942360730674506 0.6971487086453994
Ni 6.156841745620916 3.915101150131457 0.7602816743482875 0.2956066724315748 -0.37340851120240204 -0.4580291726672757
P 3.9702006413548103 8.289398888684525 10.903327510102228 0.09536504446557124 1.1654800345696317 -0.984375384543395
P 0.24017937168499562 2.1607776974964015 10.136053585472721 1.4622568160499074 -0.3080428413123985 -1.427967298739418
P 5.657787933077983 7.674556020185583 4.7938262336737525 1.2778382711590897 2.2797429228354997 0.1262627624856922
P 1.9841220578132774 5.923456176607559 10.614488411876595 -0.7546131214104552 0.6539369491446158 1.0120134579756377
P 2.4298093019207414 5.744080034483241 2.957962242116346 0.5718372543293829 2.2773091165830266 -0.8143128512639332
P 7.098210124587368 2.031078675291414 1.7324206129466921 -0.9867202306264876 -0.7133335459353779 0.998471714735461
P 4.939361002451675 4.485344548815352 5.985535806286193 0.6059627352581822 -0.069417471361874 -0.06085646916574035
P 4.685077875302711 2.7875646897268855 8.896698884661582 -0.4165544504622568 1.7290285665276608 -0.14350817982970124
