# total energy = -340888.2830652304 ev
CRYSTAL
PRIMVEC
9.06872020424772 0.00000000000000 0.00000000000000

0.00000000000000 9.06872020424772 0.00000000000000

0.00000000000000 0.00000000000000 13.27298869920098

PRIMCOORD
 96 1
Ni 6.349255659462117 2.326153861255188 11.355572652718317 0.945302072691017 -0.5338929138751256 -1.4118014876128333
Ni 4.645787312900188 0.2891642959520817 5.98911774780591 -0.13268872061669407 -1.0249396791190026 -1.503566987652604
Ni 2.839434339039785 1.501625847682943 4.789318849675476 -0.19790346675113016 0.17183376624727179 -0.027525459113778405
Ni 3.4245300097354976 4.505403528803197 4.8185192208908445 0.1208485334486564 -0.2051308377375048 -0.7959484898241325
Ni 4.063929175209813 2.743478213747133 2.218407493216768 2.3606257145244958 0.4785699729331048 2.740503378391009
Ni 5.637950613877657 4.8732670829446905 2.385647384434225 -0.8922293612357538 -0.8102831612792497 0.24892675187653254
Ni 5.141293099675088 4.920623938277667 11.430418611820985 0.6931884384460707 -2.0210500927111386 -1.882667664143777
Ni 5.742875703154283 7.982985549970696 12.214109272798451 0.18045261826453438 0.25230235321698485 0.3053480680890548
Ni 2.160486486068895 6.525959666770247 0.17715472268730473 -1.4791538489155622 0.39618539988760154 -0.2904973762294674
Ni 3.1537561708745194 1.6019621646886988 13.870007649109684 -2.020185173607682 -0.11533480271927879 -2.693747610292709
Ni 7.962608136348866 9.016946580980662 6.706442609661919 -0.647613320919433 0.5525969180425322 0.4111985854669821
Ni 9.381409365158566 2.5992583611312132 1.0522045748386417 -2.118738643103564 -1.1793377663883302 0.6460865998622616
Ni 7.027151540924269 0.45158144192517335 4.465855748178613 -1.6008359340091076 0.7033334972998726 0.718186246041989
Ni 0.8109222131019154 7.485647881775408 2.4889772858799306 -0.02129156238892462 -0.4226114552896141 -0.4394809773514431
Ni 7.7564126519164835 4.02298390484819 3.595639523735525 -0.3814936022033817 -0.2608170755562153 -0.5415709992456738
Ni 8.102465934691487 3.848030160481321 12.397116947311092 -0.3323369379730728 -0.40565374438935303 -0.15303103171847193
Ni 8.235358956148676 7.613970268401535 9.018544489427553 -0.11883973054874372 -0.8827088233398281 -0.06909865456987455
Ni 7.247494228405185 0.7803941812927616 13.458146293487253 -1.0027880827226279 0.4947165007859803 -0.09308961816783322
Ni 1.944369822062734 6.396893645112084 9.17042741036143 -0.014000428044150082 -0.2000408248091071 -1.3897637910865033
Ni 0.32757485910084155 5.057824601688738 1.266554652207717 -1.3575113588107008 -0.4183416242696667 0.5445761046205847
Ni 6.303340730593702 1.9481696157020516 6.660571210649038 1.617196377645002 0.6229340730051981 0.32478406532647935
Ni 3.881366774844405 4.61976915549875 13.658170514025706 -0.3788579643527475 -1.2500526164053891 0.9588983233182132
Ni 6.15406053227196 5.62782085374611 4.731581030669642 -0.39666388218591686 0.5099284326397282 -0.5567711040248798
Ni 5.330566352768646 3.158453767784225 9.12212650128656 -0.3491743212453857 -0.3729472552952674 -0.16234459580991395
P 0.6153117385402058 5.383681845239969 12.423782611313598 0.17971419743661307 1.2943743211409 -1.127059525809904
P 4.079155555926793 6.305208886893701 12.484479553623752 0.42278217653952355 3.3438736703316674 0.16793237431033659
P 2.242268202153305 8.79643158782159 1.414807364564459 0.47935184540445186 -0.2608947228716862 -1.3994054279413253
P 6.206922100586002 7.627772860093757 5.67393710819637 1.0182360418465817 0.7345456612366188 0.38930281383515536
P 4.86874179171314 1.0431023006720945 12.53455883867158 0.3018847921308027 0.6482535256065933 0.11885798538118884
P 4.09378340113018 6.2857564827019665 7.962903776617701 -0.08675210598557963 0.11309691452769555 0.25176344999437933
P 4.758484295133605 1.044507952257045 3.85663909628515 1.1191960639014273 1.0201893089182108 -0.6412835220466633
P 0.25141393561225345 5.65206154204658 3.6462094265301013 -1.0838950746072882 0.08978960726032278 -0.3295627176620453
Ni 0.4280009564336363 9.108440896081085 4.4928533273295646 1.6271763716758492 0.6841024169844023 0.7944593068731157
Ni 1.8239100155924288 6.5330967493338346 4.791349336061737 -0.4974459839020014 -0.4762426103515089 0.09908543073995194
Ni 5.977800892239072 5.6777350880917075 9.092740221313182 0.0433678254626737 1.3720350063481725 -0.2187188608345846
Ni 8.873851249632702 2.46757147942111 10.357284338318426 -0.7281212457675138 0.5799753100554851 -0.5210921625660316
Ni 2.5217480121210727 5.273333661461404 6.86861217958166 -1.5638673272045582 0.43941541422083036 -0.9897752154027276
Ni 0.6286282468456335 0.4501893934200772 9.31992072360089 0.9210514276737686 -0.6512614591949817 -0.22634552414190695
Ni 1.8698430819006495 1.5459809567280576 11.573328941282924 -0.6012193070359259 -1.5683937543200022 -0.5895156454457524
Ni 4.0016180007569435 6.9605327245175195 1.4499277961324446 1.541160629635662 1.0922629869560092 0.11679673197678596
Ni 5.611805494397578 7.988345163433314 7.904011509568227 0.2007198531540027 -0.05244484806327742 -0.14907230418104003
Ni 5.412719886369075 3.224764247714276 4.569452269989464 0.18000627475573516 -1.2664354286387867 -0.7585649069693516
Ni 0.7251883488838192 7.679537113299547 7.181005094693047 0.7447459988083884 -0.8184502704710742 -0.7962253976346029
Ni 5.325959443057969 4.690396346102585 6.977676232621973 0.2456668501783382 0.518709521266468 -0.4386199149027285
Ni 0.8337055581139869 7.224341786493066 11.074622803254288 -0.8390743744793291 -0.016419064787971723 0.7507680366327522
Ni 4.616341179375451 0.6821264392968587 10.357151935007842 -0.2743858153795855 -0.6695252905011759 -0.9994718738652013
Ni 8.19327102707929 7.34111969268279 4.717445616956982 -0.4044718082661099 -1.6870666202735785 0.4301720412456914
Ni 7.335279437065319 6.178591419609322 6.9718758793720745 0.05052423400179686 1.1565485364079564 -0.8082329636184403
Ni 2.2243756177848706 5.5682302952641125 2.5371847871398 0.2748804956278169 -0.7478932861881185 -0.07886936080339321
Ni 2.7594572982160543 5.236523727375507 11.1920092205495 -1.8633293688264814 -0.4787990582247754 -0.10225200139339163
Ni 1.0513185609041278 3.5673351420465638 3.7047697784311286 0.8977394924207055 -0.14735197905582367 0.23129695460991134
Ni 1.4944071466402293 1.3984056777480627 2.707530714924003 0.6327963105112585 -0.4035539244375308 -0.47993805692522507
Ni 0.9119504734362629 3.5508663467028856 8.107274169984008 0.6594655922723287 0.5997851456925606 -0.49973118039175224
Ni 4.081141605585529 2.8819122230649987 6.713915234861913 -1.7156323477264133 -1.1247187934918694 -0.3195385006568239
Ni 4.081731072379218 6.902365955060278 5.634370283259989 0.16094283036638088 0.015312719097670404 0.3844642547959314
Ni 0.9009782292257366 8.678538229083808 -0.3665322660597467 -0.06637997008713084 1.0978373957199932 0.9514027862721162
P 0.13553383269291605 5.763262185496017 8.047757975005215 0.5220961783505138 -0.29523874756919477 -0.019927849272178583
P 8.542788560857202 1.9758292114059162 8.06188069251001 -0.2837999096046338 -1.6244831411144023 -1.0621330003398481
P 1.8632773286909454 3.3164308684928536 10.231151140676861 0.7706735173074275 -0.001622880315403657 -0.11874100018735033
P 4.056220763292343 6.052563419118632 3.4063399713542477 1.0124862838469981 0.2632315985349789 1.4396627327994753
P 6.899318865172901 4.23900081293542 10.314850891020734 1.4483129522753055 -1.0149303745121165 0.5222974957280425
P 6.3969661948713075 8.121047741772543 9.984737697219071 -1.793013554020054 -1.0429872806493325 0.06766937832251571
P 2.325056546146937 8.411210503785934 5.538247293521123 -0.2168326995554653 1.5522233152077267 1.8423723069588402
P 7.199729280676577 4.2579544375324945 1.0466853519057329 0.6520716138011028 -1.2417613229308744 1.5174396318696382
Ni 5.561111350140331 2.972889621130955 0.06903563026087463 0.04418235094416907 0.24778852450703134 1.6244353185956024
Ni 1.3804314749005022 0.9623272124969078 6.873404091178357 -0.2487200351823652 0.8035700109251321 -0.41600474860637393
Ni 6.85915350472293 1.210792000396736 9.150544241974307 -0.4853746545597641 -0.9235978482447061 -0.5263454405451709
Ni 2.7509689763869334 1.9571929920054436 8.590025709087461 0.8719770387446208 -0.8406810568448165 1.1332605124142936
Ni 6.644505973341039 1.9026809166690732 2.2508862066770363 0.14683235910692777 0.908525527292616 0.8050339970651683
Ni 4.331365725146521 7.070717671337832 10.129745621594552 -0.18340475891432284 0.6253856198694842 0.2552634927278378
Ni 8.308906274561249 6.988500656698083 0.008723201674605621 0.8982637403552917 0.34483147089565774 0.14414812740654528
Ni 7.600838761982126 4.1600576061806205 8.084908892959461 0.1961360904380622 -1.565876130104471 0.4931262734807249
Ni 3.3587001719603 8.559393386999425 12.273067741503217 -0.756214147348988 -0.5855224651259593 0.13994643062037188
Ni 0.09200579090294612 4.972533291001904 10.361398816538374 0.44634196613733457 -0.8635265939844224 -1.4262050646326727
Ni 8.714985414373588 2.3546931227896346 5.675741783457048 0.024732469749673535 -0.025996166953445553 0.60744189090687
Ni 3.800673305148344 2.8403774859096873 11.261334142975276 0.5154233943160285 0.5741317067905144 0.12970007030201536
Ni 1.6671481233507897 3.5287477388596975 12.836187183258216 0.9627518927363484 0.7509541845016293 -1.2168406484297947
Ni 3.0323441488144094 8.327306707244245 7.83450067838444 0.5390526036991942 0.3184074723761742 0.27734155557379975
Ni 5.414007644595288 7.792542432009663 3.561089514649432 0.36281505195727193 0.34515465856303135 -0.26331104562266267
Ni 2.920934924807205 8.338216377287441 3.39526978496877 0.824960046565134 -0.003165285101859065 0.6477223356934715
Ni 3.196587734975946 4.430967475840141 8.784594187732326 1.4023840509536751 -1.5639853408396613 1.8313088500558268
Ni 7.370547688767722 6.2479671268665555 11.277248839532886 -0.49273649424147403 0.44829960408433756 -1.2527702724468681
Ni 8.156932666428343 8.879491993412309 2.471271517141496 -0.452783093776988 1.3869965127540111 -0.6620526362732146
Ni 4.598103983650705 0.38464703406580214 1.838242220526982 1.27013704586009 -1.3522164289603484 -0.6037572429664312
Ni 6.1741024032573835 5.771931881723195 0.014170781720281468 -0.07099330048942613 1.1129583105218317 1.4965121376883517
Ni 7.9101274542707465 8.957637152815654 11.071543972847252 1.3260873359734646 -0.2676911769682293 0.8298687967206612
Ni 0.15350622179649587 4.785608836363197 5.85525890767906 0.2206872974148651 0.33224926335527294 0.07011141210510506
Ni 7.460708902042417 6.496812801002306 2.4600027257901447 0.32998437858049623 -0.9984526885720677 -0.12233180286240222
P 8.549399657666422 1.799279372336135 3.563451916184139 -0.12726060762258729 0.6041470222056822 -1.3800406502614684
P 2.3123149946833537 3.5912130815509165 1.6394268603515854 -1.8708259343138423 -0.3942925537402629 0.11443671638504163
P 4.769856469891849 1.0128037074764846 7.935946099834322 -0.44762134707039036 1.9158703761479907 2.0461126921067216
P 8.812673665167695 1.395666924337385 12.225417966517375 1.4062605031899458 1.7613876995846567 0.8020430327576445
P 6.7642040073395 7.998982771879423 1.0762666093570232 -2.0275552408195083 -0.5908042823501889 0.7012853565215922
P 1.9793750808879524 3.1933320645308028 5.930782300158474 -0.6717791195323591 0.2501565105185756 0.3798018163232556
P 7.113213692802851 3.967864225278326 5.764617959121502 -0.4767768855884241 -0.018048372861278594 0.6820810156789995
P 2.4462146440497654 8.234769489354989 10.11111030906607 -0.041100883805367916 2.158696414443424 0.36940890312470576
