# total energy = -340887.6267791695 ev
CRYSTAL
PRIMVEC
9.10657404287926 0.00000000000000 0.00000000000000
0.00000000000000 9.10657404287926 0.00000000000000
0.00000000000000 0.00000000000000 13.32839161836719
PRIMCOORD
 96 1
Ni 6.504033582920619 1.9346916601790858 11.312405772386306 0.5011951665317884 0.33870196095915217 -0.01837001786675546
Ni 4.832849749895885 0.5351669487545793 5.9576181938805455 -0.9976487046135336 0.6040652611251532 -0.12177747302082899
Ni 2.78988092408004 1.81831875019825 4.733204705815651 1.11918526526815 -1.1921328612704694 0.21313725298174907
Ni 3.781787184423775 4.248289654068369 4.897184053037806 -2.920830783931589 1.3529108839242119 -0.880219224148755
Ni 3.6867054446076777 2.4466450409837357 2.2890849178202313 0.23643016207141862 0.10369747559066657 1.1269186293566658
Ni 5.287741337607185 4.478895429124688 2.6275589733377758 0.14272116515203162 -0.7204907258054495 -0.3461543034721393
Ni 5.612454449054611 4.4824560995842315 11.188358752440617 0.18787693575306355 0.601745354742725 1.2960144278474839
Ni 5.959624372147137 7.988314089828546 12.457714094175316 -1.1930461171133584 -0.08007443685508789 0.27775576029308296
Ni 2.4925148545507962 6.6211714451229415 0.1460712693226857 -2.5058264515652713 -0.07053538701640111 0.8261800350151642
Ni 2.8334923072788993 2.052849458676726 -0.04718935614912687 0.528360928313303 -0.6150014484216828 0.40025571330223325
Ni 7.94742557227522 8.762017728992939 6.709378632177122 -0.5085230676517694 -0.19128287611081896 1.3519680603949684
Ni 9.022110590872792 2.5398052936720483 1.2358568090353863 -1.3079438322952184 0.6377734520108759 -0.6562247167375279
Ni 6.992865372173399 0.7464531269313035 4.734577977184703 -0.48982986211764035 -0.06239578862840222 -0.49880275504021193
Ni 0.817914234936751 7.371252631161873 2.323005084898768 0.2841477798623558 2.586928301243609 -1.9214483844564005
Ni 7.930323426180533 4.0127025829983145 3.6408638614202196 0.03438516234808917 -0.42935648732293147 0.04557486041632151
Ni 7.717111207588992 3.8594025151825715 12.575084174016306 0.6025082010506785 0.4493123616195681 -0.15439525905585022
Ni 8.311570149425519 7.391751529382928 9.176624565011444 -1.9351783324479832 -0.19539998360298608 -0.4313904870338247
Ni 7.543703824237003 0.45436067444329137 0.07110230898727356 -1.0800692731032946 1.3627926618142983 0.6083474334402749
Ni 1.9732215750494917 6.330170870865363 9.00050251193058 -0.5443621888375658 0.19389203159889187 0.014703367648445646
Ni 9.245904648528247 5.178435129101045 1.2478028128942846 -0.21251170358260818 -0.9344185930092941 0.2329044083063473
Ni 6.744201260745533 1.8539892008121428 6.782965214569417 -0.6553052902470521 1.5214824344804443 0.23041609466685478
Ni 3.7991169948700954 4.507553817708278 0.7857616538842949 -1.0341144036397352 0.503587835133681 -1.0123831826102307
Ni 5.771236674457682 5.491664850652091 4.617181488278924 1.2354402658088528 1.792719419818403 1.1755932117442336
Ni 5.619129567844496 3.3485054969694996 8.9761387836762 1.5332699140336754 -2.25420261247255 -0.010506041737646422
P 0.4060921892674231 5.715650146362916 12.522410838965037 -0.08563239055883962 1.0777853621651243 -1.1935572524218219
P 4.273305413025827 6.099282792013018 12.529261714634384 1.4519400075049316 -0.4837615444363733 -0.7467810269605462
P 2.4470821565388716 8.54624656308904 1.3508855886841795 0.6926477354512522 0.03248640266347953 0.43690884574889266
P 6.141391590491098 7.837445477288245 5.784562324287478 0.6761939607706031 -0.39944761557864106 0.23907711277596244
P 4.819007757316585 1.3264271520595197 12.587106673097352 0.10234687510004307 -1.0956308749869776 0.08414603582130024
P 3.948373743800833 6.2659422039826 7.975563064822273 0.39808981599916604 0.8964009761149401 -0.2975157165288295
P 5.172060527255314 1.1546498454652239 3.6851136154610584 -1.6840730848628933 0.6591891986824905 -0.823954231008439
P 0.23356814359977052 5.834582003656109 3.436179038783452 -0.6626383335733556 -1.9197630263341774 2.277624590940916
Ni 0.261507112832199 0.19789405035625182 4.8521074220718345 2.699352615184312 -0.3220666663953163 0.7817930242593567
Ni 1.936467442121825 6.802483334763637 4.459346346578647 -0.9667545861378383 0.41457752924154406 0.16962133197698528
Ni 5.964241405198259 5.640721254953391 9.19497795438271 0.9232672043781647 1.849374706418602 -0.6351172453349513
Ni -0.0016118636095631828 2.102744377980662 9.872619986361576 -0.6878132901770864 0.9498359560056286 -0.3350494518082294
Ni 2.28705233048885 5.656056725679404 6.466269530929107 1.8178516961096565 -0.2988262078101369 1.9337845374242502
Ni 0.7778780927159399 -0.0773257417035192 9.0183896447097 0.9002545455330755 0.570161923509489 -0.07791779552340129
Ni 1.6066910754940762 1.1803394909035163 11.234941610756994 -0.34451522520681954 1.07193404559067 1.3253496864764915
Ni 4.5190281010305915 6.961192707574186 1.3499658247035813 -0.16554099126002458 0.9669733870168638 0.8579910088781738
Ni 5.3026214796299325 8.219502685625047 7.981387629594457 1.8792141583775377 -0.6321234528139501 0.42244073403970467
Ni 5.493331353706045 2.964453948912392 5.031148132140637 1.0787770366544325 -1.4499242626264834 -0.550401195942794
Ni 0.9535038375102434 7.7218284129548325 6.93354970199888 -1.1329486376008293 -1.076632993728236 0.06465347431432736
Ni 5.146143217465388 4.771316628936459 6.921007217538704 1.0389107965871138 0.41175008709507793 -0.07201068601034695
Ni 0.5385045081495222 7.526210095457507 11.062938461125878 1.8020540669557676 -0.3352633675912484 1.2982764844087835
Ni 4.7157027811194965 0.28577066877186086 10.449126228085714 -0.5185961356170553 0.371696927827934 -0.256683513003816
Ni 8.025605510626068 7.462555142740858 4.627231503417421 -0.3115662810846247 -1.6473273927024275 0.3092957398828931
Ni 7.247885872298865 6.335334298360404 7.146217347461315 -0.30691129881111656 -0.45376088430922495 -1.013309551079242
Ni 2.296259076868897 5.39050902593442 2.4847050566323707 0.24993616697765345 -0.9872992430584094 0.055332454023717614
Ni 2.342311021917265 5.540758391438278 11.291280341869557 0.2941645406684095 -0.5073077071874296 0.16227928978961728
Ni 1.345359719541338 3.3425406909567097 3.841455279014622 -0.7430945792478943 0.6175144446515236 -0.7638109858596394
Ni 1.2961204735701057 1.1453520333445233 2.375985311496037 1.1162624351944002 -0.8340404115998473 0.9626806731787808
Ni 1.268345422670853 3.6193259030983103 8.220778516651599 -0.07687264208833858 0.7429475121470689 0.5732446761998709
Ni 3.623806337538452 3.0541810231780757 7.140565807596372 0.5559612065290748 -1.1599033118128026 0.07492091767860647
Ni 3.9608861765665946 7.340390451654474 5.534721643490371 1.577601388961199 -0.7544511419112943 0.966888026391909
Ni 0.7673472504667938 9.135624036597116 13.443282178969582 0.6263197016479795 1.1116748158237177 -0.3258575008963162
P 0.07611274603801742 5.770116565847647 8.090386946554597 0.3813871585325045 -0.06641673686233723 -0.790817082134838
P 8.616421822836465 1.4576164580446451 7.7826748982297325 1.7154793670883166 0.5200439238071753 -0.45632170305786574
P 2.1710983229150194 3.500995079693429 10.312910093216527 -0.8091950704213936 -0.4518171303192928 0.5523881444658357
P 3.987905381818425 6.337119186877208 3.51489717566156 0.006424158358788937 -0.5924096791640959 -0.04394349546048561
P 7.546089746642118 3.6497964999209005 10.161791960546836 -1.6678216560010373 0.9130609532691243 0.660897696733165
P 6.331928439659971 7.92635295988805 10.217998646335452 0.40070745612767117 -0.9577876067525376 -0.44584214368278047
P 2.3612526959731484 8.735672410221943 5.744803021918253 0.3345290605283851 1.5828538956093903 -0.9371825289076763
P 7.24124717980524 4.0715674777565996 1.4763723579895962 -0.13829269706703282 -1.328015920454745 0.761942822302649
Ni 5.497256287128203 3.0851524815742586 0.3376307867590948 0.41667117854577923 -0.46031951136334914 -0.5454909031253702
Ni 1.6705554794142263 1.4731249536778999 6.88815251962581 -0.7703112488720024 -1.0895964958674396 0.493262284837957
Ni 6.885325839035931 0.9000582649782356 8.892569574793493 -0.15344986442344538 -0.9533221147820162 2.3077008415010067
Ni 2.7009005888877136 1.6217624555721952 9.129535381177037 1.0346810747764825 -0.08121883487217625 -0.052701958379406014
Ni 6.716207652068712 1.870945641721785 2.0375513249043804 0.6808581990154919 0.7082435330069803 1.7010104840481801
Ni 4.1313066036251564 6.838554474636404 10.259449950166015 0.3192952742977662 1.088891756490931 0.4757772406793161
Ni 8.419911061080736 7.418770734634758 0.05635056965884756 -0.8306928352838533 -1.5333174794421593 0.6541956021226412
Ni 7.88133916428313 3.9205076271609274 7.979228460883568 0.2764023315889821 0.053117962870902063 -0.30565145826208645
Ni 3.047241813740295 8.825399484487628 12.608631882215569 1.8627321015621146 0.12129230585429435 -0.03916690000744867
Ni 0.07469029916901307 5.1828973503930555 10.325865105481864 0.07926608202117962 -1.5535942274133243 -0.5689856438132007
Ni 8.875658666754177 2.611774548510341 5.710642441284391 -0.003229048460258955 0.5703565560187983 0.20701699901662413
Ni 4.091711219589107 2.8086404666546176 11.181574354761949 -1.0444250415371237 -0.355801082533284 -0.4722175483525157
Ni 1.274692704794387 3.713934101063011 12.62012073605639 -0.48263077326603976 -0.23621907450187707 -0.8372486341245
Ni 3.0242932470956667 8.324128115061608 7.9822135958621825 -0.5181863017731463 0.87680197093709 -0.04606182735506906
Ni 5.646631421521789 7.976766953913709 3.482442256350135 0.05595414676811654 -0.08553057487365269 0.6433874557635435
Ni 3.2638143581619428 8.603800111181918 3.3852915029063952 0.023022171926786156 0.8341478837119891 0.06695152631988469
Ni 3.7468452597351085 4.47715607347821 9.16220339432159 -1.344352967051872 0.4785332061578985 0.7246255739094294
Ni 7.357793114693317 6.190922246832422 11.490179758002622 0.028304760481964158 0.28554928819557274 -0.37877286083810896
Ni 8.127835911083448 8.891649810812893 2.6498172616682516 -0.04863061652350979 0.25672207955123527 -0.5759093675162275
Ni 4.880604624294468 0.4900502488627212 1.3953356873544553 -0.7344754701203158 -0.6191429813938821 -0.5571056045461632
Ni 6.23408740790208 5.6060343143385545 0.5613811328590345 -0.33439870559810797 0.9541842056719956 -2.5605570103389317
Ni 8.035304012005643 0.051468535302424845 10.966707471662737 0.04970148099018537 0.36500408918879074 0.5037783538779324
Ni 0.1507456737904189 5.401500660831271 5.7621701693182406 -1.5798441622487889 -0.820245157587968 -0.7449807405270138
Ni 7.3069784314087824 6.18686982137335 2.6112181368349496 0.2491447814246096 0.46276977267605457 -0.14149037806872405
P 8.60884515321411 1.7072913991937626 3.6528991097049577 0.31788502421380094 1.8441674511860497 -1.8397821776341607
P 1.8971361487336704 3.391251755632153 1.4170348320373207 0.501714015149736 0.587631283938846 1.0451835169697032
P 4.9047006192713285 1.4404323527833698 8.218992717477388 -1.2925164419965547 -0.817895683519185 -0.7188609035115103
P 8.793071146555711 1.9303660374980547 12.310515430983344 0.23833432107266694 -1.0358072179611257 -0.1889961369591713
P 6.537928251591772 8.031160520805917 1.4718409267346884 0.22585135811430782 -0.8529161654584279 -1.4397691764703526
P 1.8257952475058852 3.5884272972946505 6.107975016958375 0.18048270017152143 -0.41372597987452614 -2.143525877350573
P 7.2157851987185815 4.173133098307211 5.821948453455278 -0.8375944474996929 0.22209240529250782 0.3932599987106905
P 2.518268246007546 8.530364697919108 10.528550124453885 -0.0032997537971943174 -1.11145550072406 -2.012435354458934
