# total energy = -340866.13173152966 ev
CRYSTAL
PRIMVEC
9.26634094564380 0.00000000000000 0.00000000000000

0.00000000000000 9.26634094564380 0.00000000000000

0.00000000000000 0.00000000000000 13.56222663004681

PRIMCOORD
 96 1
Ni 4.400029422817823 5.80957890401556 1.8618358852832577 -0.6022552044996079 0.8332449122817456 3.411254570879487
Ni 1.1195130037859813 2.932046394445693 5.213807840681403 0.5651372166013879 1.1016200026908771 1.0618491505508423
Ni 5.5555884936048185 4.716604701229811 0.4214424609956563 1.3651657900321648 -2.4137387922993914 -2.423703873931903
Ni 3.1541605913645356 5.1491853042653695 13.638582650399067 -0.41042699740828026 -1.5624336800818253 -2.3420119560780503
Ni 1.0623026136409277 2.465439786775759 7.6071888522832065 -0.08304843188174729 -0.4722427451634964 0.8572142786131495
Ni 7.067215988705683 5.128345303060927 2.400921033380397 2.2091160045465568 1.8218189082875205 -0.6625344610056396
Ni 0.06643503274132842 2.7620275673673897 10.402499263726238 0.2841048424395623 -0.6424263774018549 0.17971805409135502
Ni 3.3764323160826115 2.6863400930063928 4.240772524329489 0.45096532384195887 1.4902607574620013 1.1136985311219658
Ni 0.24878272669491394 9.018244113914792 10.182479259903083 0.1477659266647907 -0.37128760820465734 1.427639225976038
Ni 6.462735491342154 2.5184061926826473 8.060750304908405 -1.3998571707667633 -1.6247446223059048 -4.219894025907727
Ni 6.629474033659953 3.0242928204084416 10.117163601170425 0.688320568830808 -0.12015253582289628 3.8703895750164308
Ni 2.017977439883227 7.553096585928858 6.249188953433372 -0.418638329574479 -0.4645795721912837 1.3223345537992515
Ni 0.5874647151440012 4.213683302666054 12.860260033606433 0.33285578659102033 -0.4434011383414557 1.0070900525320914
Ni 1.1903449153941428 0.6877385724288518 5.766767481354536 -0.695982199141124 -0.2764866637726722 -0.8768770471493994
Ni 5.413655946495686 3.54859166796226 6.074941894896828 -0.5136431624871541 -0.43096908322569005 0.32933748902511667
Ni 7.43629435596799 7.328406346175496 7.990186190558939 -2.247440354048052 -2.937306412989109 2.752861899956362
Ni 1.6770965486836666 4.563793469632454 9.367443399547978 0.032856384408388575 -0.4537241175340186 0.3483888492296129
Ni 5.925278439381796 6.575840451191607 10.015704578854873 1.531101445627447 -0.26680054683315985 -0.41673031391848875
Ni 0.8150729257196307 2.5072958496661393 1.2676197139909433 -0.9837171821341057 -0.19586689593707557 -0.6181515640148902
Ni 2.5644043100587477 2.5693525362228975 12.985452935461755 0.014411547439639696 1.3344120537890762 0.0011533968781528522
Ni 4.069480501979736 0.8902822568782496 13.328007327869638 -1.8225269900981387 0.24179348326586095 0.14187887175639438
Ni 3.922377336519301 6.161060489469403 5.97402495353746 -0.36951328991305393 -1.0094760362657647 1.6304115907836954
Ni 0.5405649827758185 6.459649799745409 8.187421188174177 0.011780023354063583 -0.06085801182763713 1.3022740356039506
Ni -0.2804263550244156 8.459177954436086 7.1109735047962195 2.398253809289915 1.3796452145952627 0.024303866852687178
P 5.609361071190135 6.062179363256597 7.387154948948356 0.023667518820268917 0.3579592665268674 -0.03613274116681519
P 5.969163830979945 4.758071577792674 11.316607136921455 -0.9672695781010439 -0.29776125688073235 -0.4961169806779327
P 0.04794775555014014 4.9666754493419845 1.3331966835435072 -0.07114011047993554 0.44133962782673675 0.46939499130205614
P 7.0547064281783385 6.967797414707258 3.730779054214273 0.21527846769446796 0.1881196478914889 -0.2618848546990974
P 1.5064661430906934 1.732435137920184 3.5250264358310837 -0.9195797282242485 -0.7744954621566791 -0.8597216184160354
P 4.2293248864957995 8.282681954906959 5.678829904017873 -1.071092266415665 0.02301368728635391 -0.04895766084562536
P 2.8304872956459217 6.158892165644664 8.3664561651733 0.41197454440105824 0.45628313651044644 -0.09370462604401282
P 9.026324363381342 8.425596734176017 12.828035405687995 1.4271103500557616 0.6095249986881437 0.7098782403969258
Ni 1.7054793515690405 4.7415033598497915 6.891645696655579 0.4953186531463534 0.20820536289777045 -0.4386443403827607
Ni 8.564851308698184 8.674388727212062 2.930390499285518 -0.9471766640059106 1.4155792094877104 -0.6434339927307628
Ni 5.7087147808006415 5.409263700799419 4.707597817650123 0.910247137969413 0.6418869599586171 -0.7628954160239054
Ni 4.156491445203263 1.6472959956051938 9.014703444968495 -0.03178757682424203 -0.6071498135877479 -1.2163454539609309
Ni 4.046574106702999 4.092498093350049 8.349680381189074 0.1088921324177286 0.31582685613319156 -0.6589698835828328
Ni 8.981160216707064 5.086331712371313 10.797580837471385 -0.8144547761584359 1.3184077079410197 -0.9201988498654863
Ni 1.6256405563811913 5.426350833845657 4.502075931161105 0.5939788234234287 1.2614310334456598 1.386564310312599
Ni 6.506620882940303 1.6056159931963097 4.874155666315862 -0.2497559326460473 1.0546994268799383 1.1638867219405826
Ni 1.4434457570562733 8.117694751062988 4.151696113667781 -1.218345000889463 0.030506653229289395 -1.379673753840353
Ni 2.6539449644111373 1.0193067907913895 1.7971846232097173 0.1996623584237658 0.7604155870248452 0.06684353998711069
Ni 5.916234490437582 8.820454062465783 4.313371527191403 -1.1456339463779817 -1.6708889820724513 -1.115761841408898
Ni 2.767893161303545 0.3111609552889303 7.354062991500022 -0.23268020811068316 1.3664384860970016 -0.2463764746508531
Ni 5.4065023311422715 6.672599585285331 12.255723011562004 -1.2474835701266322 -1.049154071581677 -1.7155618994997939
Ni 5.782289529383687 9.066410555115631 0.41136531501529583 4.044611124769589 -0.45198759445888614 -0.69265519165042
Ni 8.167603264396524 9.04008487996142 5.105052501359013 0.2430039586341944 0.9096426716161948 -0.05636089528823196
Ni 5.790221517392137 2.2127188651000145 12.338222173288669 1.8813880261004048 -0.4402093708770354 1.8600262725951773
Ni 1.3358820692033768 6.56358108187481 13.617154236532782 -2.3164395069255845 1.0829843898675606 -2.344199964868305
Ni 2.328381335101725 8.307033899400189 8.99590667198352 -1.0887547166924345 -1.8810270432165606 2.3080867640855156
Ni 4.512624733905052 1.0221608238598503 6.1859758275034205 1.124739876537792 1.6831032647504562 -0.513553173876509
Ni 0.7025100468263624 3.8535284219132517 3.181223867272803 -0.8094048724393546 1.149771622695439 -1.4457665317043682
Ni 2.0283094102447 6.179991624400784 2.0535787225099353 -0.012514587527242962 -0.17432285121771268 2.7017285716156563
Ni 7.679498745301822 7.0275560486634365 12.247979130278521 0.11378339907175888 -1.3848861512792279 -1.7447112673702405
Ni 8.340040606510113 0.6480795590207187 0.848836692899989 0.23779567496037754 -0.157352027691329 -0.4587254274033519
Ni 1.5096352317576207 0.47690336593510796 13.476676504981276 -1.7961960655130937 -0.07086345977978119 -2.0284111610619
P 7.274985889553171 3.5459229617164265 4.4085238777329465 -0.131600886869154 2.4890487178863006 1.4896663184111119
P 8.380015602150827 7.27016739216486 9.789066554195697 0.24792736407774077 -0.9066254820564257 2.1379059600606345
P 5.918875397660022 6.777160978611665 0.6367449705488317 1.6112936390073216 2.042946121453282 2.249473839538313
P 8.49419545757152 1.9426050211206962 12.66621080407216 -0.10805498122841391 1.858100516327374 -0.21999618488511144
P 8.839329599350377 4.221513360922058 8.5879819494303 0.3506375360544735 -0.2695724531513422 0.6281277013909956
P 1.5591916241281658 1.220933107468782 9.325305639887205 0.8712998101719382 0.02028060462590701 -0.10844141803355517
P -0.008832676366418055 6.398278822432373 6.061962530874123 0.1053928610152185 0.055637386858646116 -0.7039019682088329
P 8.269560815864944 1.4956615893315206 6.564755127296155 -0.21607499545383432 -1.1530958019726658 0.6309500013311392
Ni 9.111750762271404 6.577165537973392 3.2085512339033144 0.47977967697048984 -2.204553839097171 0.2959697121979483
Ni 8.108836128941402 7.088139386980307 1.052860212028066 -0.07530221227742516 0.17203276963195532 -0.4203357718815599
Ni 4.64699594665099 8.04329529811925 8.873086880091943 0.2633233869178368 0.6381416339835719 -0.7303305947140067
Ni 1.5239331961233182 6.699749964800233 11.110570041865532 0.36791792040147603 0.5625396310775409 -0.17108943188207956
Ni 2.8360378339836103 3.6685444539077925 1.9177258218170916 1.040284537006189 -0.19922758487919237 0.36047971895587594
Ni 4.587283644400467 8.334202811597354 2.075739177325597 -0.8258208519035326 0.008063236624108693 1.4260353718240277
Ni 6.940693366898011 7.090307710805047 5.915192027060304 -0.05963442383318117 0.3942902397474177 -1.9356969239556145
Ni 7.565013100623795 4.100698805251309 12.580322014759641 -0.37709238781189247 -0.6122933054619003 0.08018010919501675
Ni 3.2461290270933434 0.3863665799110967 3.927376527559673 -0.5684153731320275 -1.8787248774459449 2.355667856298588
Ni 6.583698308471006 4.597893604995882 8.586381652316913 0.6544786805806986 2.785157012544642 -0.5280086871802068
Ni 2.965451554224267 0.8401615443328041 11.04157842560606 -1.0760817492104564 0.16032448005609162 -0.321268338863737
Ni 8.322138035444315 2.106359801594196 3.4172060703288483 2.0423216004954052 -1.7456731170628776 -1.364839517040998
Ni 6.596207868998349 0.09146342013714795 7.573567786756272 -0.8938440140210412 0.8387936100141168 -1.1400479676497721
Ni 8.547217461525195 3.6473893971048845 6.463567608775751 -1.4543948968033273 0.7153297504298003 -0.40843053580354177
Ni 4.280363893447364 2.8828328566970085 10.974852429753208 -1.624244799851351 1.5556385115368627 -0.3035578089578514
Ni 7.951465857507413 1.2002784330869674 9.12477460473154 3.717457273659353 -0.2789698352058421 -0.3786571611958511
Ni 6.916925201896058 2.6797702571442543 1.2343081442577957 -0.12974686437955074 0.08679555762900536 -0.43214664847355894
Ni 5.607164948342001 3.723994239237887 3.1261067435893253 -3.1186478616165 -1.9064321135532265 -0.2791143312035064
Ni 3.727283790339522 7.46064630046122 0.052744940353848316 0.5897670993349262 -0.18859658752790745 -1.0891766347212017
Ni 3.7230398061013563 5.317415727505319 10.627849266968154 0.8753086742210151 0.7226895332289811 -0.026187199918329095
Ni 4.747841537183646 1.4392110391592392 2.775835342287239 2.3104002427100405 0.9873159552289578 -1.6938288786980764
Ni 5.117670478077594 8.9676406249964 11.548276784814965 1.6453921233529276 0.8355761315180835 -1.3896678889385872
Ni 3.6133448597882456 7.202226578989685 3.8181198791820763 -0.015066921635451471 -0.7085137559492314 0.4703936077698995
Ni 7.437443382268279 0.37072499608135084 11.554528785176295 0.45919876749534466 0.04058383495963334 0.24799626964246319
P 6.772064490989414 0.7971008570953464 2.425116376708507 0.29743806921335875 -0.8817012080109201 0.1366633889937259
P 6.066766202116623 0.9027371459929185 9.696680206481865 -2.2894483230487217 -1.4670588654242411 0.7014853883475403
P 3.665106641348056 4.891553221790001 3.892359024424241 0.22638151958616495 0.3434808704050342 -0.6224360503228571
P 2.175968556173017 4.108695657647678 11.472735718643841 0.4011504572023607 -0.0329204048771046 -0.21854531137119781
P 4.662470736340371 2.7908088229214125 0.7964957650194682 -0.6439947503302392 -0.7574927569510954 0.038010932026134536
P 2.2871646497494087 8.283812448524985 1.17322998332451 -0.9550794637927551 -0.6104809348435098 2.3251270073972536
P 3.338746106701346 8.020490832594959 11.536165676956267 -2.002065838299152 -1.8166239943501425 -0.8326864686751143
P 3.1046597970407785 2.9067770821804584 6.586780293531299 0.4309325735607997 -0.46555067785530146 0.03471889153842408
