# total energy = -381173.2390494792 ev
CRYSTAL
PRIMVEC
9.20707783761399 0.00000000000000 0.00000000000000
0.00000000000000 9.20707783761399 0.00000000000000
0.00000000000000 0.00000000000000 13.47548908103792
PRIMCOORD
 96 1
Ni 4.091441342359333 8.944915706325654 7.2073117433919105 -0.7661368057793386 -0.08967622161091007 -0.7383696629683993
Ni 4.115628336387818 6.465136547715885 6.628714099831252 -0.5378161601889319 0.0938817750518254 0.6709846486555218
Ni 4.61838083312379 7.929890594153498 2.2275521762302737 0.23978416614531606 -0.5254967193916305 -0.25209769340534643
Ni 3.8416993503446233 2.7829222032949046 1.0721485864968325 -0.1444245209963835 0.8595730086533132 -0.4833571099091031
Ni 0.1749703904902618 4.06097512110305 3.4172898807073855 -0.4707815872369376 0.7721832690837347 0.2193384966964545
Ni 8.591861091549761 9.030329769364196 2.9393541421382867 0.5290764663230888 -0.8737698689789855 0.9963132736315616
Ni 3.5604507372543615 6.990262244105157 10.681629344812288 -0.048195585868620223 -0.854936024101934 0.16420864560184625
Ni 5.468488763324794 5.162666458928089 4.9670786585680196 0.6368689379187354 -0.2787232664126748 0.49002346618568504
Ni 5.7551327241503785 2.7665151902158187 2.4334574282493917 -1.006003504336132 0.17361579784835907 0.019544497790830853
Ni 9.039859095142454 5.264441499655486 13.465328625494328 -0.7202775813533788 -0.6832367265499975 -0.6250408349355558
Ni 6.404995913915329 7.688260037897864 10.992360863223452 -0.3337045077445608 0.23491681075068574 0.15147731407810686
Ni 0.8608811322233598 2.0226477335948236 2.6566250308981276 -0.4554670683670543 -0.8514902316451787 -1.3471870940665571
Ni 8.605156112249087 2.654087560188478 12.672040336042462 -0.524464164362058 0.7423103927837023 -0.1158294829675102
Ni 2.1212279182400406 3.223637408152716 7.460624240273102 0.21968790961607326 0.08870485883657626 0.6169030363197698
Ni 3.0106408646220872 8.455034704698862 12.710633645090502 -2.19962940521236 -0.9685253048850158 -0.9064071953980326
Ni 7.812850218024798 2.1022613374639927 3.1778165428380762 -0.6124048913391001 0.06000851934314826 -1.145938364992278
Ni 2.9371960030441575 2.4276302685536826 9.71784898763204 0.5681508066167312 -0.7638186991691231 -0.9583355088362076
Ni 2.378731477048056 7.997645481498614 8.65595340324793 -0.23931571114932976 -0.5978285361868221 -0.892825600058856
Ni 7.114410484485853 2.5554705472310744 8.737399215648376 -0.6725874743662675 -0.9030223380861996 1.119551390358317
Ni 5.780056284422593 4.518115753196041 0.8293542555761056 -0.3604928315819985 1.1736859674191915 -0.020912581782951082
Ni 5.253346970609302 0.6613987378495675 11.59323319070231 0.6351954068710544 -1.1457797279272266 -0.004128934566709018
Ni 4.244776020147831 0.5369963821147857 0.5053728311480419 1.2225340992701461 0.6157578669717331 0.5600603162991129
Ni 1.8325768144002919 7.90942325965585 6.261615008203039 -0.13821684952377486 0.2704034336930698 -0.176227010218961
Ni 4.745751550820804 3.306740494601556 7.7338120565335435 0.4345794262847677 2.7805519096724627 2.661666156377132
P 7.206020911049774 7.156063305568785 8.909144366698905 0.26679669017841795 -0.6773064771084916 0.4654820294008951
Ni 6.0115130194367055 2.7597848161637355 12.957181701730839 0.062093426896635 -1.603507824414316 -0.4904320144780135
P 7.262211708368327 7.658880251851084 1.8602781501191734 0.14814053639539004 -0.45782862662069546 -0.09998197441229233
Ni 1.627525979223901 2.1061006890094354 4.900954344744962 1.0457563587540377 -0.780867427121294 0.056489707556612395
P 8.62392013730811 3.530610597305249 1.3191330586365784 -0.47587442837881266 -0.6412680954276955 0.5701608950682245
P 4.741682022324196 1.2522362709654085 8.469209922059447 -0.17537031864562055 0.9160645159821384 1.6244749135842864
P 1.4144926073810853 7.620431493928377 10.769759495874586 0.5670853414666943 0.7324851791631642 0.7924975551610545
Ni 6.698931880553841 8.151882452935679 7.091220617009817 -0.5360284721608898 -1.0355534500791068 -1.5691108349916847
Ni 7.0255161459456845 6.629620997018845 -0.0607943363418666 0.2782396419080369 2.554964089632187 1.615036650989522
Ni 7.137741220256 4.871483408625519 12.230489128498018 1.4829341418936008 -3.5411590438828244 -2.408319163945717
Ni 3.3049543214605106 0.2807753692786653 5.00815235444182 -0.21068262079366942 -0.7384660793369475 -0.774989113963646
Ni 1.781054005651377 5.840427095174316 7.205478614152827 1.043455992755635 -1.2623602301281485 1.2416281397871196
Ni 3.461124779287368 1.806014394235778 12.002752973722547 -0.42767215764197314 1.771397261301859 0.3858207688238259
Ni 2.508772247378591 3.8127062615758 3.308704364348901 0.09603764505256364 -0.2580014604842912 -0.7350498545665469
Ni 8.780587777349487 6.387134182504876 11.057447539350656 -0.3753831184302696 -1.4484942150481763 0.1994283880360888
Ni 2.0637481299949587 5.988292768603117 12.335233451895451 -1.3665950662795239 -0.19859149395709025 -0.9737045350931103
Ni 8.725124339196615 6.041334745229725 7.198862407868522 -1.2768116296667882 -0.6496298371288296 0.6489430954744502
Ni 7.371702280498796 1.3786678667016667 10.939510393820214 -0.5657612233386321 2.11001694695985 0.1904009877264979
Ni 0.6406763672900281 1.2621430869435775 9.105846223502617 0.15824162938513392 1.3815393462941818 1.7471589575797843
Ni 1.5743274822705 1.906159782148921 -0.09129186166350811 0.07180114110270215 -0.8524680221774158 1.693100485172484
Ni 8.333805108058948 0.4635984766348938 7.698977997451941 0.973094155202621 0.38062894021024124 -1.902248414489182
Ni 7.27063618478099 9.149763985785018 12.611049888938204 -0.37244717573039726 -0.4700776191913776 2.0744675891003306
Ni 1.3724346748641012 0.7693508072384442 11.323777003174166 -0.24427125538239217 -0.38632521926407015 0.1432310149089146
Ni 7.8704404912064385 5.040599018185932 5.0640080141194765 0.2557147213326435 -0.3975277728481089 0.03677577406745279
Ni 6.903209321174315 3.694993768749696 6.858673763954984 0.12531171142633257 -0.8790308602676087 -2.2005190069061653
Ni 7.109015136750529 0.10089484406613826 4.90274696284064 0.6383948876449586 0.17228448063144522 0.2911738334712018
Ni 6.397004170170858 0.397812062576147 1.5274201817463582 -0.3832350103745206 0.17656459606403785 0.3498176112563395
Ni 7.060981810581286 4.842333799529903 2.7389878682720186 0.5175039309941409 -0.37241760804404245 0.16295420436945485
Ni 8.504090016531283 2.3287094220207405 5.363379839636715 -0.055119566681963134 -0.33325456469133574 1.2221952278734887
Ni 1.7012378460651825 8.232333900907092 3.8373609751690534 -1.7295934378921953 0.40569076827487544 -1.2680341405844742
Ni 3.360500623315801 0.006130993271247761 10.268525246308501 0.7396536718871455 1.8823442193660873 -0.369983287570937
Ni 1.4317558787185078 0.8493630775870317 7.041495950603408 0.757835999223127 -0.003853055197503042 -0.8893762080576748
P 8.628192221521745 2.9260462315296945 10.31710455220591 1.5967329675843274 1.1356655223113603 -0.06655660487431118
Ni 4.901535311369704 7.51213784194397 8.834612149203668 -0.016736338918074405 0.3975069469125025 -0.33544025948874484
P 5.161957513918499 8.16536161519594 5.431565618234413 0.5175044452147733 0.013753859250982766 -0.8765893407056516
Ni 9.05877043345022 6.40993090774832 2.866344775351962 -1.4285954192417203 0.5913388146974203 0.6053780663993058
P 0.8747506745927961 3.917031662922111 5.749344234182464 -0.5405348446716755 0.7336576022047107 0.7105279581657827
P 5.01577673577223 7.776555916365002 13.082140164979636 0.5577496658880652 0.5918185825473162 0.33831552415401095
P 3.2637066118116294 4.201419889626272 12.939191991935536 -0.040042874854498776 -1.727811149180792 -1.0617684179115778
Ni 5.212522786550565 5.799998815471583 12.177854104721069 -2.202820144235516 -0.07612522239935277 -0.3226503068129282
Ni 1.6319361696082342 3.4572578065077857 11.42540933419184 -1.0286906615210025 -0.4744713773836991 1.1112816941503572
Ni 8.513278680421815 0.8461765078750946 0.8988474392564237 2.021636561342228 1.0144282380647174 -0.8640171604675959
Ni 7.9961539348550605 4.809142283171819 9.316077881495843 -0.7558950734466724 0.6376616090233599 0.7322625216293969
Ni 8.948865542807656 3.5758818000605053 7.708909672540837 2.266771707386812 -0.6751454649014309 -1.1153031566049245
Ni 0.1487228523949425 7.44398705024285 9.014927248499996 0.2671679574749076 -0.6939183746335598 -2.112710691741929
Ni 0.0959626123565611 7.7423608284998355 12.804908600041117 0.8773300755264182 1.1229588733779692 1.0252942342449438
Ni 5.872320413527825 5.712071220126312 9.911801610931029 -0.3046322729689528 -1.635837646895273 -0.03041795017022503
Ni 6.652169131155031 0.21336850948371247 9.110319942725472 -1.887898316415097 -0.5338998558536611 0.7364930147709768
Ni 4.474013849352706 5.216721214139826 2.8709934290577035 -0.011165272588200126 0.06903643387337141 -0.7411631665531364
Ni 5.730752381482914 3.4507760235629616 10.653021111905815 0.2934122358834173 -0.7362245916009384 0.07335357319148657
Ni 3.7254599900059793 5.927120942061339 0.5184588511757103 0.06960953276802205 1.3641676877849538 1.9937886858920242
Ni 3.224926399079244 4.240577592558569 5.498916314853282 0.04225325224225626 0.40588077279849455 0.33228731568206
Ni 3.9099237986701167 2.0310814170855327 6.306528976330086 -1.1391390826822574 -0.8552327294067466 -2.034117210307742
Ni 2.8131030051317425 0.9638337582329188 2.3993783495676126 1.1418847637481946 -0.685007445297175 0.33546159964498357
Ni 1.2641041945675084 6.520655228337036 1.110716115726341 2.395975040558067 1.4505878643524115 0.7045450011094705
Ni 3.566398509672481 4.567566969384465 10.555539331671559 0.007204231057923075 -0.1430124711402053 0.8871879421571044
Ni 6.68433866184994 7.038203499493934 3.819115308604056 -1.0002334346215742 -0.13348319149353138 0.2559702889868753
Ni 8.561229142888639 7.280561414915252 5.3022006474325 -0.1770165959997919 1.9342049127911207 -0.12064001698227611
Ni 5.220192282563405 0.678929014450342 3.6585954271079726 0.0010040157844821418 -0.8278751633294 -0.770548561693789
Ni 3.5374422492158453 6.979333442463814 4.405123729284442 1.4930205795953255 -0.05702192591099856 0.43527028170420523
Ni 6.147004379970842 5.578052992079635 7.371577984945166 -0.03675366258026574 1.882555821156261 1.00621947700168
Ni 1.154926663090626 5.930251348597191 4.894876752526384 0.27824349856277886 -0.9839537236249442 0.7669356475315501
Ni 8.552694181539417 8.766813988591734 10.640745314746248 0.6583173376004985 -0.05673293391567004 0.18170217440091935
Ni 1.1821059574842638 4.706418913405622 9.526712809507513 0.22429301248825242 0.2930965044152114 -0.795943861838442
P 0.2340789108417913 0.12368512435494977 5.243016629040988 0.11153471224689823 0.3824117431422769 0.17711018415486274
Ni 1.6121317447299435 3.990522559890274 1.1164659359664584 0.044010858363311305 0.685509067523942 -0.45046627271835327
P 3.9211656409650457 5.424838006305744 8.689264611620619 -0.01245313816168823 0.5939770236512157 -1.3044916120805599
Ni 6.139242813177538 2.563738503316944 4.87177987653862 -0.8214769731125401 1.8100939065411086 -1.569001305997014
P 2.222809610328457 6.001062985853786 3.1055207246003653 0.12191451281932553 -0.0017367801854486218 -2.7825488854978335
P 3.9940028353918984 2.4210011723601124 3.8989176575731808 0.29178549891327166 0.010961641217826282 0.7020281482248877
P 1.4350888409713862 9.081465880835154 1.0382729842398841 -0.5379017779242027 -0.2066961253420956 -0.15997043915078257
Ni 6.2028637224797185 1.424427044593394 6.666243991364907 0.37342573759358266 -1.442369075987045 2.570028183054161
