# total energy = -340860.78984122514 ev
CRYSTAL
PRIMVEC
9.29610224367825 0.00000000000000 0.00000000000000

0.00000000000000 9.29610224367825 0.00000000000000

0.00000000000000 0.00000000000000 13.60578529803815

PRIMCOORD
 96 1
Ni 1.1645970735674762 8.673188850890554 4.886000564318737 -2.377545887318602 -1.219805901705706 0.1606697792106523
Ni 6.321721243225678 2.0128384980139993 2.884534917561961 0.24135433884591337 -1.160658444811272 1.5338270720887262
Ni 2.186099248162873 2.439185626680047 12.383794919101954 0.7303794456740711 0.5725229675424979 -0.5057200509853356
Ni 1.718282208218033 1.2018651467162496 0.6236671205501028 -1.2243151024299688 -1.2989295446117501 -0.45675724793338757
Ni 6.251591449303417 8.17107849045536 13.040873160057147 -1.1208253719747343 0.12352093807449693 0.13366985358304076
Ni 4.103076341759274 7.425289406785248 0.7443463286307785 0.7469373500327523 -0.9023348251008717 0.9057528496434852
Ni 2.033345699152985 8.150980317806907 13.354921516647414 -0.03209173832822215 0.16259245015466192 0.70671938305297
Ni 4.354740416661641 1.876752859993323 8.28400474942003 -1.1130405858229928 -0.49917042279227586 0.5712129904818227
Ni 6.833666879637773 3.8784360355382455 10.268953082040923 1.2255047518626958 0.2803057804084462 0.3500582665122358
Ni 8.164301632055396 8.642781301060262 5.245492915817404 -0.8250361512187082 0.7490978480191809 -0.5264590833048999
Ni 0.4037399380722586 6.494935512864264 0.5347889479981468 0.756469972113536 0.34901748395254734 0.42774132031701173
Ni 8.823097792670827 0.46076222809335493 10.269469945315324 -2.828218876731123 -0.5138534787257473 -0.04516682634462544
Ni 5.260877964722671 0.5509418549333697 6.624139246531726 0.062368277824576455 -0.1849564196721589 0.12939822279088037
Ni 4.36951192283111 3.41232018226994 6.481999986851164 1.1134198235392825 -0.8135803439732828 0.9048521922060867
Ni 6.467939632489099 7.593809144884764 7.522407644201029 0.4312555041178573 0.3910365086968104 -1.1927530113529716
Ni 8.870387063837654 4.807572140089688 11.726254661874501 0.1458561112365875 0.6100914127145751 -0.5589609125873471
Ni 3.269587831278105 2.943703677548149 2.3190511701799443 0.7431794256522168 0.298182403578551 1.0586363000404995
Ni 6.796008370202583 6.623128760238068 1.3578574576829927 -0.6505775457540796 0.17684896007367606 -1.2577350726513112
Ni 3.233835022764715 6.2638065274070565 3.888818851926338 0.11017768399837155 -0.7327214635436865 0.743759466525403
Ni 5.0266905616885245 2.5763589086414584 12.05362340310305 -0.5519379443022946 1.447822128681816 2.5753202846910357
Ni 2.1072404144085595 4.53278865937016 9.36842666118184 -0.793258344586479 0.2961188361813029 -1.7748523097299949
Ni 7.68601718119374 7.334150422212893 10.417881285054124 -0.7123279874889991 -0.4927660619278288 0.14477187703347325
Ni 1.9317950802761579 5.353727432073618 2.2469134182132495 -0.5604999749396927 0.7138670498413447 -1.0724202411984691
Ni 4.42915571363244 7.277583641192617 11.632945967081909 -0.2800779806683564 -0.919718567794958 0.12322963208632325
P 2.239905086872052 2.7006013126407984 10.284585407260925 1.7422203826275864 -1.3766735335614486 -0.3083709140757786
P 3.750530967328225 1.749247524171778 0.48180674393126777 0.18468825361243676 1.627649968878158 -0.8948467442539428
P 5.503971033527964 7.9547674916779085 2.7288716886080553 -1.9647529607813066 0.86144605730631 -0.7604076166050453
P 6.153703494637271 3.0087949841552106 8.408320592625623 0.13525468157165738 -0.22843685945329692 -1.0002537463365484
P 6.598810157255482 0.6891470042231705 4.8013456109315324 -0.7529470465619419 1.23411486212921 0.09838686201103056
P 9.016354458345521 1.647576055968203 2.2119879627829824 -0.48197617040117646 -1.7725956524853343 -2.166981794380668
P 8.702871304760356 7.898795661189317 8.492132389556206 0.04244274254524304 0.0008633764415598035 -1.0050953906995659
P 6.391218902208025 6.059422427569458 5.439021027672178 1.4009763719728712 -0.7700338268408996 -0.003065526299201172
Ni 2.8707385724983308 5.132601052430348 6.631010925172677 1.2383618103310219 -3.2745852683484897 0.4637547622971433
Ni 6.894565644216875 0.9325570701086265 8.90955804907761 -1.5202968988127752 -1.3172671665786733 0.46423144482324563
Ni 8.515824435260114 2.562814487943588 8.603931031341292 -0.15051135062041174 -1.4099834605674877 -0.872303311735788
Ni 0.12434837956279625 8.689605767124212 2.8216765346691264 -4.860481550328629 0.7073626730639238 0.4432281030987012
Ni 8.295218637332068 4.690283220429406 4.508494226252924 -2.036574156488667 1.7603980819778777 0.6864634610174113
Ni 1.9631508325163207 1.8792349192426925 4.918069327586715 0.951712604203051 0.362775199858272 1.0290007365622538
Ni 0.5609007690676377 6.4951865076198185 9.878548402370242 0.6820627608465544 -0.7963711791838478 -0.3431250297275123
Ni 0.22878079007746785 8.157022784144324 11.674525572364981 0.2779552778983987 -1.5730582496752068 1.3828961174323926
Ni 4.492564425767082 1.6730008950956397 4.662239669352354 -0.3363607144204852 0.07374103843789236 -0.8604451268456214
Ni 5.264522036729237 7.452573466324197 9.393134770840637 2.382506573757987 -0.991873492692653 1.1954439279215734
Ni 7.338370852547026 1.9676408498101239 6.731775093815434 -1.3956238494117061 -0.9654122131773308 -2.1133817496670244
Ni 2.621221897171261 7.12062825405271 6.126956749797248 -0.17383537005833288 3.9213277566271953 -1.1672209285201383
Ni 1.0983995308155645 1.2325515796082676 9.158094915247814 2.28615036902374 2.144311606476662 -1.7495338855698643
Ni 2.1580900926634334 8.777593373099053 10.281837479492708 0.23777047814939697 2.8193477994937384 -2.690868746083017
Ni 7.797830696742118 5.726445347969581 8.42021216637766 0.5691483946433101 0.7602998873825874 2.7389702295759344
Ni 6.656445990012378 1.0526162281820628 12.180511477747972 1.3335306796253872 -0.15698847370432317 -1.6168014561994284
Ni 5.798127590935456 3.960427655685958 4.747085192831738 0.6887165187176462 -1.5086246046811695 0.6393307691956667
Ni 9.089291675089166 2.728359473384684 13.241163256548592 -0.2956382970004586 -0.05643751416243828 -0.5594129125231011
Ni 3.812684705685097 8.670855529274105 8.355816208204503 0.7987592198000502 1.4114682726431307 -0.8683908640552592
Ni 0.9980109246959331 3.3029980220729898 1.6226532063518744 1.12447171047807 0.24551695486403524 -0.6379398023854109
Ni 8.918336358250567 1.6183305188951072 4.311496809110266 -1.484525911860753 -0.19496829538220614 0.9841167315653695
Ni 7.909820838229589 4.834577316566912 0.374032384726902 1.1389825024997353 -0.21462026528517877 -0.6424276629534355
Ni 5.82252985883656 1.0346189745986194 0.7102640296571324 -0.4106519689348928 1.3808703452516156 -0.5973289708425842
Ni 7.3925113509302784 7.27646810894571 3.3542474327163387 2.2111047528418113 -0.7279358692295851 3.092563248714306
P 7.972560231016087 7.125880551715234 13.067539958419475 1.0117203522152511 -0.9768019430715112 -0.8305658227876856
P 3.3184946242029483 3.881262050563745 4.633722017070365 0.3253005999515817 -0.3312452475707908 -0.1731033769883148
P 8.855894440729912 5.519486227862038 2.4135572029175494 0.05445879316951266 0.9509559285426847 -0.00043425932394118756
P 1.4206860930492433 4.8187367586608225 12.998477357013423 -0.8406106086181975 -1.1118985017987495 0.1808179720237531
P 4.389805313622771 6.613981395813426 7.243516215982264 0.35209046645091624 0.6968075232558968 0.7580815395750299
P 2.782379122441187 0.12280057857021189 5.933537402336547 2.2573303594682543 1.3061908541598537 1.6512629803114076
P 0.09082384671260396 2.832141156755326 6.121419991411763 -0.15587827135927992 1.307609331773935 -0.02526520232469197
P 0.8616547701053818 6.100288092214509 5.005717625836454 0.25547458029737935 0.48977998271631135 0.7873903158414762
Ni 8.161336175499034 3.5543367334033413 2.4530005639477928 -0.8633422458877582 -0.8568679510173243 0.8802989283467549
Ni 5.052645278633243 5.0076149602664035 8.634285593389855 0.9120731354345581 1.3090517206474164 -1.5848904664234444
Ni 3.3394666304448126 4.227207192533924 0.19335055630547499 0.5575640322398204 -0.4809135334646169 1.071382286852258
Ni 1.6630354736899313 0.9632713913068173 2.8647249240772927 1.5002237822119842 0.6733459497988468 0.40090671662267086
Ni 5.585060931776093 5.605781943262404 3.36951349151527 0.43914544838889535 1.8201921713173748 -0.7590590729969507
Ni 6.101319959542899 3.9477849568876717 1.626149470335724 -2.828099834654755 0.6891034697434197 -0.09673467111958825
Ni 3.1843797598184755 8.615580906439831 4.017080890455369 2.0731061899764294 -0.2559106393935334 -1.4920944682366302
Ni 1.7551970294886188 8.87509089147878 7.704779503976521 -1.2515189165382703 -1.628426956253499 0.6505772886437634
Ni 0.20562698868269372 0.7672333318965007 6.669066378165725 -0.7710738380696397 0.6237930785713838 0.4044011029291745
Ni 3.2218337550084004 4.708475692156058 11.547501774630017 -1.047242456381261 0.9650121495254347 -0.021901942279413892
Ni 4.002009120189441 0.5245874056001764 2.1892115831317454 0.749180123320342 -0.8600790017554543 0.3649380118375457
Ni 3.9982070144478974 0.9049281251833412 10.787483147540394 0.09036142060339276 0.13706011021151235 -1.549908036810989
Ni 1.0188527855089913 3.9393626884235187 4.151274771707331 1.8856982234399846 -0.4068246247690026 -0.19450935346791662
Ni 3.2769410480056385 6.578293660014439 9.394889874909108 -2.1274387419807232 -0.5010804953307951 0.3542669052769447
Ni 7.702592131162375 4.271707633083482 6.860363425526685 -0.28244570956958454 -0.8957682276269475 -1.5174429743037479
Ni 7.297337858064941 9.13369915461815 1.8835436625463733 -0.1374303490667375 0.09030074256878642 0.9424864576190929
Ni 8.358980601344898 6.685989002351316 6.3321728507689965 -1.0974424742744198 -0.138101149881517 -1.4170447382896434
Ni 4.148004403003481 9.247613589231536 12.894175091927556 -0.5500882926880655 1.4451011302062273 0.16707851095047355
Ni 4.485610941428025 3.453139366404702 10.056444189005017 -1.628568881148002 -2.2133354419445426 -0.24528581268983563
Ni 2.0999894548036595 2.9985134952795454 7.0697293064569315 -1.0719132196550636 -0.8253588246654495 0.9819037830744508
Ni 5.142138853141409 7.857400118726986 5.323059591385716 0.3544831350528088 -0.42449530257588824 -0.6159758965198101
Ni 0.914353443059505 5.986475914723756 7.240127786782281 0.0011621386289012246 -0.39529117020810633 2.413872746774094
Ni 8.493458013709615 0.04425688267564968 13.492162660153843 0.352961813312276 -0.11769584675228763 0.5992269591962454
Ni 5.753404043936516 5.430857190845225 13.127814024940305 -0.8542978762973029 -0.1470979540634886 -0.28968876428524304
P 6.917489831890826 2.897687972363208 13.56201543023479 -0.3738391709819175 -0.30909545094662894 -0.8442839437047266
P 9.103440342420779 4.16395651413426 9.536784647105554 1.0114269893445482 3.846661635271871 2.184503091093883
P 4.1261771553723205 5.403535946898046 1.8531351831058764 -0.0039044772607287593 -0.1972123542213765 -0.6177103627124135
P 5.286312099952166 5.214118571373126 11.028087649824876 0.10090911421225203 0.9324617263932392 -0.38066390721323473
P 6.115598772303316 8.726994689599731 10.771155473886488 -0.43702788782526025 1.998077285965049 1.0035038778427299
P 1.7389195547858247 7.79568329716682 2.3522903126969696 4.02759350716567 -2.048777126312762 -1.4757615354045617
P 0.5233547424673434 0.9864093893280935 12.051704687638368 0.6533800481998812 0.6797256280729456 0.8388650866820005
P 2.2098136045117185 7.2282492275731265 11.367850883926774 0.5567302234846154 -4.247110438421518 2.0575805835370047
