# total energy = -340871.4790378519 ev
CRYSTAL
PRIMVEC
9.22327573197091 0.00000000000000 0.00000000000000

0.00000000000000 9.22327573197091 0.00000000000000

0.00000000000000 0.00000000000000 13.49919633673671

PRIMCOORD
 96 1
Ni 1.143261907663611 3.2689502425235792 2.9431620113470367 1.5137187313746252 -0.7955872498299718 -1.898497174976866
Ni 7.5837553787633745 -0.20907228969398303 10.478872425016823 0.7765256052128304 -0.07914883971702497 2.276262934706699
Ni 4.12612458664015 0.8483301451132416 12.246646015019579 1.144430927208816 -0.9099306351702587 0.3094942290469444
Ni 5.7471521720307805 1.22569032198497 10.04874773291072 -1.8022142466827156 0.7275504608657083 1.0962111729704798
Ni 4.080699954153555 5.316360637096497 13.287245486280797 0.7951871861780757 -0.5253763917636823 0.3024856589395952
Ni 0.6163500057325673 2.9601365278197935 5.232463877294556 -1.5405494784142244 -0.09028171640539291 -0.1157513214314071
Ni 2.5826094096591294 5.037098297516985 11.593015529183292 -1.4721241957622906 1.7148404479527368 1.0500436732754819
Ni 4.108443567253997 7.338324014201289 8.001527337815816 1.0193405877646702 1.5469265855851617 0.10700931357271892
Ni 0.719179383423895 7.6374256196647945 11.974353704835014 0.7018342870465267 0.9502316487821505 1.2162112423759117
Ni 4.016192364384776 3.127492864158728 11.599710704964414 0.3103558057162913 0.80902794871591 3.5000764149099015
Ni 3.954304184895426 1.0937052476939726 6.298967840495236 0.06214844850428652 -1.4448003111363568 -1.3364352548666918
Ni 4.099856697640796 6.025289271983214 5.984369287315189 -0.033279073768103976 0.9355028272124081 0.7174311130435193
Ni 8.8483033609851 6.927325628772839 10.084344965211635 0.3858233399269871 -0.05264153745511579 -0.02562258566411071
Ni 2.299049023635201 6.406293565057064 4.510013920331627 0.6657712227753825 -2.3872294331549533 -0.764618312252283
Ni 7.4539838906240075 6.312437512227911 2.7009052982574153 -0.11016919935793931 -0.5593969716835011 -1.2096325607171297
Ni 6.68598939859127 9.056491138545994 1.4407014788582662 1.1119558373992462 -0.2207358912646134 -0.5510023198619026
Ni 4.967997516483571 8.202111446945857 10.245295736624286 -0.2932487137223595 -1.0913790416891593 -0.02877038726447303
Ni 4.737544751547522 3.42216729731897 9.60046610039586 0.2643346017911706 1.0278046593716235 -1.5520057998802819
Ni 8.000444525256643 2.477362611424708 3.2694243188910534 0.5558735319112749 -0.7615553570562432 0.29169345342009767
Ni 6.381298488094898 6.403840173739007 7.4590078088606475 0.3742634030035296 -0.5136382773911476 -0.2549174222423287
Ni 5.381338613922497 5.6397655738497825 1.8007255868524712 0.06938944633741599 -1.460574286141162 -0.2677971064184743
Ni 1.9820173703434854 0.6102746340739035 11.585442297562025 -1.1208397701524373 -0.3125574413533004 -0.8024389826444825
Ni 7.4754648995704605 4.28750424036968 5.724550535095066 -0.12530425522716485 0.40419670022785226 0.5755447850879573
Ni 2.6546985319972456 2.1500931221816995 13.571281793327326 -0.9255048354594319 0.1093202210940827 0.03882725727984281
P 7.8956219977012845 6.54988152009286 5.597307146806374 -0.5802285637168716 0.3167264851293255 1.137684352513602
P 6.741135363593777 6.697361697445276 9.71500719348444 -0.5284444891660447 -0.3766023355493514 -0.016864379855506442
P 2.6421087607598444 3.3529927300805022 5.716302159697551 1.0882284118753194 0.006475323311698526 -0.20905151294814966
P 7.0254705047707775 5.254684592946679 13.639992429801516 -0.4556053937171315 1.0044405307243862 -0.4696731846641073
P 5.391797808488954 0.15372064564488716 8.185561201152163 -0.6892155698412518 -0.32985633764306416 -1.0967367064566467
P 8.868290199279201 0.9273542483989042 4.636528669845406 0.08029992260233268 -0.7839661206512756 1.1943704923517364
P 6.755828041675229 2.981709769522564 11.100159650195092 -0.14068767966177062 0.9141266755294774 -2.482562081720692
P 0.4196230704717429 8.938045832882473 9.198702980857526 -0.3282830796186733 0.0687826659913525 -0.0260064513660907
Ni -0.023808041388354385 2.0813151557953984 11.05732675816103 0.5028825815365403 -0.35929006952314896 1.3033027339787813
Ni 2.131831036430744 6.265887640114237 7.457630773808821 -0.3476488857397948 0.0627814541025951 0.2302597715946486
Ni 8.725523115774635 0.5605740910044088 13.083353910509194 0.7266248637276452 -0.36610863510687913 0.13760569830233718
Ni 1.2848391886116761 3.9029951025557463 7.327256083443134 -1.1072738585425448 0.7812250675710287 0.7473600393924676
Ni 7.783568422050598 1.8583793604992633 9.275391750753219 -0.2972256960922365 0.9504141971066019 -0.9772575425516911
Ni 5.926544883069209 6.521842762172202 4.5826121674846165 0.9130144163019049 -0.18770929982694767 -0.30934356240169303
Ni 2.5908734646252185 0.1475087695068727 8.414373145353315 0.6230963096146752 0.7176799958295317 -0.4726932024373537
Ni 0.5261924864317638 5.5840846588606325 5.846110540939445 -0.0647995129738884 -0.40099053458572875 -1.3925727212902081
Ni 8.942122520711726 5.772857441216596 8.022329513675768 -1.0953228568282554 -0.1963410073600167 -0.5022853142721737
Ni 4.806876114471731 3.856214648551279 5.894289243529693 -0.28966408169489466 -0.6203195182004866 1.1449050386317572
Ni 9.201960641810677 0.15614544480848624 2.567560713138292 0.05347380354842404 1.2995021292857685 -2.075943916535541
Ni 8.08342633611591 4.7041196006578945 11.284396425595338 1.210350926940393 2.1900150220510475 -0.4934345487497631
Ni 4.152300242883186 8.177798892380444 4.426467645003694 0.41285000502747615 0.6147404814508123 0.46804953301775515
Ni 9.241445484790393 3.871903440400963 9.54212242573181 -0.7842036905833785 0.5638303248645063 -1.6039348846494053
Ni 2.4451088165403188 6.743616424738731 0.617822040523402 -1.4199791383276188 -0.7132137325280621 -0.2149172277003073
Ni 4.671745903190291 7.600892224887251 0.6116553584359833 -0.012992812715242138 0.5769290670299935 -2.4310927101968067
Ni 0.25472381476111927 7.89944965708848 6.8066187759244015 -0.025668351300381597 0.5457068757909183 0.0006872558750117197
Ni 4.317821147371393 4.798381477614847 3.893653768995864 -0.6627720309377424 0.3766283036912804 -0.7001188470173169
Ni 3.9697900646812116 5.804613179216869 9.888863172161102 0.3295498621462389 -0.16458145556023268 -0.562669986007818
Ni 7.3794413769678355 7.525408937116634 12.434892148336965 0.9992145064387564 -1.963896526318282 0.7125347041831663
Ni 5.839772305925274 2.2896873988689284 2.38205481501111 0.17191527021748457 -0.03279570637378223 -0.27211321729532495
Ni 5.852887803873688 4.937523813796117 11.73063971419557 -0.8188932715457639 0.49732179961931133 -0.2678513566951774
Ni 6.179843701745216 2.1002874337700024 5.303983001198627 0.41607519683299304 -0.2537108035287372 -0.673710018006485
Ni 6.876514603317276 4.393590356686595 9.198797980596533 -0.05497532779461499 0.43188465306142393 -0.9745254883325087
P 1.9323500310662654 1.1411497775439299 2.018507415725559 0.458391698213017 2.395684763011158 2.7677593858934846
P 6.403305223752362 3.958768250301216 3.807987984927745 -0.5165580221411039 0.46934356923883036 0.21051627041913423
P 2.5221877309952356 5.271009790814957 2.498660999513651 0.11080606161098981 0.790556886494916 1.2808207508261813
P -0.43539948343992957 7.866236641538383 0.6675585543678605 0.8234634074149496 -0.8480588373661265 0.2745169416408111
P 5.785548668485946 8.793978267513824 12.235806821497091 0.15133693184550068 -0.16384560583547264 0.04368150004835057
P 4.802744086988686 2.443771441573708 0.2964084089790202 0.2644279328359252 -0.008784173950533259 -0.42636860833920115
P 1.1520516893407127 3.4913141947305433 12.282283829733274 -0.41249210746742515 -0.12829187710057904 0.09446567257975343
P 4.699231264573042 1.0401549093757665 3.8879307264663345 0.37104232496307066 0.3928828178769298 0.45283657272274264
Ni 3.868435488763408 3.674377769470425 1.8300860401711667 0.5595615222858235 -0.8056903997022448 0.05788633079382289
Ni 9.40506639449845 5.669547530864851 13.168208968649278 -0.4569647359585033 0.19996909103090724 0.08309625440054721
Ni 1.970746527521431 9.150218065516302 0.5122404373835463 -0.93387891845574 -2.4282043329054184 -3.3553641874697697
Ni 2.6732465392927867 1.8328032171722937 4.0829670353038505 0.3677772810585537 -0.7051530670071146 0.11841806963029283
Ni 8.535440628278955 7.7497097772062755 3.940780095836524 -0.1695979349382176 0.061064214301172245 2.372317034819495
Ni 6.730215005245731 9.371124740173443 4.075339386356356 0.2531145647056351 -0.3909220946061332 -0.8223958853823836
Ni 7.949421364461549 3.3015914149845043 12.971363975460367 1.5262204633860619 -0.12474992538559161 1.048382226412659
Ni 2.8349121145669027 8.154168860211783 2.438994707124001 0.7226774490441231 -0.2417225208186095 -0.11231787026982591
Ni 8.039947814787624 1.0902372960564175 6.946389217176197 -0.06095648507871437 0.4843932644831012 -1.42224839397777
Ni 4.392852494636051 0.584555529974641 1.5203333960080643 -1.2603046331507004 0.8057068547624768 0.14566096450664592
Ni 2.1319417157383254 3.473291914146014 10.034856557481671 0.7746363586099175 -0.8349490394570458 -0.7909160696065475
Ni 5.5523196975847275 2.3390780398771946 7.660402643918724 1.5887332372083027 -0.524054073407833 0.19802328015844606
Ni 8.497385393022165 4.421370862889564 1.4287545699324011 0.41838764701625364 -0.7894042609477114 1.7553605195539705
Ni 0.754926955117609 6.603579430821176 2.4771163499653395 -0.1893028695663127 -0.1740117477351971 -1.06239319597977
Ni 8.883563943725456 4.579301011532802 3.795879668678323 -1.1120543106503233 2.792721198045145 0.08045393168169371
Ni 7.41259905286414 8.527222689691026 8.3362796705789 0.5718776206490152 -0.9030220809758835 -1.250552438859943
Ni 0.8301381562570875 1.813231426281623 8.468734209599557 -0.12032788505849601 -0.3163040528799262 0.8314657088941357
Ni 1.5621277472059836 8.417216681230599 4.281296975869481 -1.3879881872433193 2.8697933577387995 0.595137362507904
Ni 3.1375554578730167 2.6874872768682794 7.744232073808552 0.6269046276171719 -0.24010683959205747 1.2886227633691034
Ni 5.9117691955070715 8.48651115105228 6.182645732882155 0.2672425194665849 0.2112914580222619 0.869090204115129
Ni 1.2522994721827008 0.9657599681297018 6.360551651888737 0.6545707260738727 -1.1058376403166503 -0.9777907893473419
Ni 6.609085726373358 1.573038882278398 12.573691378664734 -1.8347356163491886 -2.1509609934723795 1.0973622558557874
Ni 1.9166796857678443 4.22376218247834 0.7707679310152181 -1.630060892312496 0.8835721997813879 -1.2146549536323854
Ni 2.237004048460111 7.6348062093853635 9.913837035589316 -0.2831977572442606 -0.6840509949211767 0.8716505086431374
P 2.676474685763915 8.07104870021804 6.090283850705353 -0.2383258364322347 0.3842788782580027 1.6204871325811319
P 8.040261406159106 1.92744324843015 1.1686406728920604 -0.504107455082577 -0.03552107572474528 0.19673644302622248
P 5.330177103992926 7.623664492422154 2.5699098814417103 0.7175450129135642 0.6530272928461527 1.537011897574611
P 4.839618742964606 4.887450650391099 7.8996350449286785 -0.26400678613810663 -0.08208683929942637 0.1814358081134101
P 1.4806124371721727 5.586685622588798 9.427609002470124 0.11471388130582824 -0.056423630205367344 0.3048898975057136
P 2.9843937427314167 7.342649730472602 12.07211489256667 -0.08441754431513203 -0.02423521839828084 -0.3276130501348422
P 3.385993610291067 1.6839764415776373 10.159737864881059 -0.3389251327135518 -1.4667716732011258 -1.072869412920746
P 8.216296844867559 3.289490477355588 7.511033539716918 0.3033608624556969 -0.3515191673284785 0.932197159877943
