# total energy = -381169.3872523783 ev
CRYSTAL
PRIMVEC
9.19543865780724 0.00000000000000 0.00000000000000

0.00000000000000 9.19543865780724 0.00000000000000

0.00000000000000 0.00000000000000 13.45845396488589

PRIMCOORD
 96 1
Ni 0.2990319914030056 8.396686198531807 8.213519494563926 -1.4732048304209788 0.16539418126951516 0.14569361751679424
Ni -0.1386948033288089 4.315511380378128 2.1735672471952223 0.3869340564926626 0.5494781699078923 2.0701401653695704
Ni 6.438039344547656 1.4529620883896948 3.1433697168600654 1.4824016664288986 -0.22796480491288482 -0.6494894548962233
Ni 2.7508247106422137 5.52815987132732 3.1492649126708523 -0.17694511933190815 0.45364878421139293 -0.8856727910641586
Ni 8.384272356160004 2.095410615166235 4.982279084132969 0.5633680405161071 0.31108908433789006 -0.27990803074939535
Ni 6.972275947597257 3.660124871218531 11.586114029222896 2.105346280957058 0.2660955503463353 -1.357003823046663
Ni 3.339139689238903 0.6792284428644919 5.071912543320657 -0.4308793517253611 0.5615932080038716 0.17741614543105574
Ni 4.464339557257845 2.4258487082260207 11.545712029794018 0.8647648372668977 -0.8972162729273838 1.6495850783883526
Ni 7.808168920281651 2.258372181472219 9.666991929806684 0.8322995176493407 0.2213503849201607 -0.014663001328813458
Ni 6.09011152690182 5.77797235704195 1.0543940697618206 0.32127682350416925 -1.497748581198614 -0.4453698320320524
Ni 1.2641981208279502 0.19227202746162764 6.321153363406405 0.14298033235068922 -2.0256888770347308 0.770052595893977
Ni 2.1271348790052853 5.269979536310217 10.088120957515459 0.455668385744583 -0.5888852109506052 -0.08978857881905827
Ni 5.485447058129527 3.93103169352643 10.069467090378097 -1.1776922603651072 0.6744258131265869 -2.0037779358942522
Ni 1.110450384193482 7.644701604842002 10.263295905627537 1.1421020219653235 0.5829107385347251 0.9683088179988357
Ni 0.24558810113269886 3.4046939724008123 8.131880549863679 -0.26292023794214714 0.797257438443543 -0.6172434503783241
Ni 4.5460594218194785 6.994859945275143 12.88428929639441 -0.08745401714861067 -0.239921977274761 1.9092901518273118
Ni 3.3290339020043764 2.272735456868334 0.48994033529149383 0.4151624552107366 -0.07224259951549493 0.5961920290246636
Ni 3.3453374149860102 4.808524831314552 0.4875200958009321 2.2768792281344594 1.1656011335285281 0.5313459790835559
Ni 7.681593705283238 7.232672383363696 10.498818679456404 1.6771550175868213 2.003015346696615 -0.5485332894961198
Ni 8.35982168440695 6.686684009535456 1.4406061772822942 -0.06690061847729123 -0.6588133034003105 0.0010035015638498847
Ni 6.9851219755923735 1.2186898942368032 11.726969760668279 -0.6943369502282172 0.6418512216246752 0.6860448854227539
Ni 7.439201938675309 2.940094427337624 0.31647298016344794 -0.12787201595434106 -0.04461018251020705 1.7349894120967861
Ni 3.6593524543598415 7.3742637499125925 10.605046227491613 1.029555580624459 -0.5446077291894684 -1.6122228356898105
Ni 5.681484617777269 4.484964926472625 6.662271039081458 -1.689965024867296 1.9433883790626016 -1.0445075739486012
P 3.976061757300293 5.009960113534328 11.555913449592001 -1.1235731099232007 -0.5286656040379153 -0.09403244169707678
Ni 0.683051906315007 2.643697848692958 0.5753181454053521 1.1148940940919638 -0.956413095002514 -1.0147110594124589
P 1.9303065116212665 3.8679509834000876 1.7053741246513672 1.3251830789916403 0.05269938727624472 1.2019565322291106
Ni 2.265967613916003 6.2630593397380085 7.566087039961077 -0.7378227893259938 0.5385895480198466 0.13608360523085597
P 7.657437287571591 6.565166285873704 12.591783307903453 0.1955712190735277 -0.3568737467721725 0.8769647217671993
P 2.415080849398332 8.411932236052138 8.001952677881 0.20477371150840215 -0.5020832255636967 0.7908366225188638
P 0.07396902920223243 4.242260514945701 6.065213956823381 0.4014281363437796 -0.29311887301271455 -1.4572002274626066
Ni 2.829234217238034 8.284704144899358 0.8254202874419899 0.40290523510993836 -0.8743969610400231 0.13538632205351522
Ni 7.8530058798408415 9.040642777270552 5.656439920678127 -0.683397677607894 0.29214262514237427 -1.1777069156531266
Ni 6.410167969563261 7.223743612294793 6.175088415884263 -0.8496302956183045 -0.04592093090183059 1.8272413648546724
Ni 4.240632922279176 0.0879911538190925 12.58256488051254 -0.5294631602385462 1.5215377131984118 0.15715276719632937
Ni 3.2850061410590516 2.8399744897493413 9.71898202120367 -1.306997666331865 0.5413820231633193 -1.0571833696440567
Ni 2.6108241550046674 3.8188105584853385 7.573475575031997 -0.49992838400422285 0.8272321304287624 1.7976831915815814
Ni 8.593882383467582 1.2595728151146048 7.256435236294965 -0.28515256697778635 0.20830152215600253 1.021805247255079
Ni 6.696826578525157 8.392208019839165 -0.09959487803314965 -0.24180711011261577 -0.46235273974329405 -0.7418565930757354
Ni 1.7341678021467926 7.366898203438657 5.146674219346926 -0.6774234623023301 0.34488803516520605 -0.19914093870265703
Ni 9.025102485708814 5.311092343157867 11.202481242284119 1.328099995528119 0.7478840302167378 0.8681710347349694
Ni 7.839231112527538 5.100397254072606 7.409067566203729 0.04442223486911704 1.7442417839329893 -1.8080869034134086
Ni 5.7950390914434795 6.158286510119998 11.251577529092657 0.9770485118646786 -1.4272767004302966 -0.2709032561476237
Ni 9.059898026105037 2.820857172496766 11.929479989683065 0.3581569843599703 -0.8596352293498162 -1.626158471934296
Ni 7.444158280185236 4.299354994417198 4.725061511557589 0.44941803395949703 -0.5071902077729588 -0.26048180370398366
Ni 1.6655054606725357 4.39587031999826 12.496740172073297 1.1428039331283544 -1.0231782163432055 -1.7795857106499222
Ni 9.089562511654245 1.9342881366190372 2.501334065285372 -1.8576217769187426 0.6561483549736377 1.4972567291638599
Ni 9.197277881686313 5.96981679659966 4.1014636343086 0.2766046774077753 -0.6596807936069284 0.03535806778431975
Ni 5.101932892351192 3.134605544145573 1.9546652289863806 0.22581741955257884 -0.4334393991430535 -1.1396358198130179
Ni 8.573413336712301 8.894655990978158 2.182571420862236 -0.1313887708583479 -0.4903474251840071 1.7586453609528294
Ni 2.308505713776712 6.838886912452544 12.25999256579708 -1.2696685908641037 -0.5600968259640031 0.7926675050800155
Ni 4.5897285606518405 0.38088702891491033 2.254277452577283 -0.6196145217136619 0.6799894232572934 -1.0994767310956293
Ni 3.3398017608320663 1.130891844632383 7.686607978057568 0.12476972287993351 0.9568237001773716 -1.523475810761389
Ni 7.099614384015565 3.019120028332637 7.403360876888217 0.6039233362306502 -2.400725924979491 0.7169989106021072
Ni 2.0653047485549165 5.087496053444725 5.439342047560655 -0.43232379748137156 -1.1677212651953244 -0.06433080086758598
Ni 6.365910322648087 7.717970861152016 2.1466236919851354 -0.22757836810774354 1.4032646537864155 1.4157368181114973
P 4.34700575824733 6.8798066150855215 1.7652511439019056 -1.2817512330602505 0.44651757248325036 0.3492416841482114
Ni 1.1955081930373117 1.3313616057787971 8.847884311096726 0.3320572019491249 0.15490485170241708 0.46355164514740166
P 6.993710515425902 4.098940405903547 2.3203319676095817 -0.8408276097250099 0.49058602355737446 1.1300517756690087
Ni 5.351956873158081 0.5152783668881611 6.402402421501789 0.7883308253778746 -0.4239630842215021 0.6154750456239916
P 0.9731257012449684 3.175258579053527 10.059225210649421 0.9472869643315298 0.17150106549820143 1.8047676092321887
P 5.737494035471081 1.724190751055381 13.710934416283749 -1.9678583391795075 -1.4555472652402157 -0.6428392965695574
P 4.120145087762344 5.708142194840865 5.858007617216535 0.12932828878489339 -1.0347877755576758 -0.4157208988173679
Ni 1.417890684829655 2.320073575779473 6.102776404752697 -1.129640656273519 1.57553190802668 0.03586560354835759
Ni 4.214637416808743 5.51581959246587 8.564799049650148 -1.547781220275973 -0.9385724672766674 -0.013247609038525572
Ni 3.7868380177988525 7.698191472306278 6.21390328257731 0.19628547153173292 1.5530265278353124 -1.0297566408916718
Ni 0.46293425109760805 8.19709919950961 -0.022256640056822187 -0.04274921804206831 -0.5141298723155855 -0.06968975118665416
Ni 1.288979828377585 6.014635365281263 0.7635193521129081 1.0992535593412294 0.5358577509109804 1.4780043086921513
Ni 3.5939636890962228 2.8463101470783574 5.876836197690982 1.4352196094264573 1.0007072889341992 -1.740613443151783
Ni 0.09983579852955056 6.2154545531018455 8.8934403539696 1.3727880824641132 -0.5181829593390366 -1.466242797280849
Ni 8.277908715630645 0.7985061576360435 0.3269088836506763 0.32957763006038077 1.3439259068167824 -0.8100944423072113
Ni 5.616169416024 8.534240767450168 4.261780592417451 0.301657506611345 0.4353016491627729 0.5191666634085447
Ni 8.837074153250583 4.690363442812583 13.438858853705144 -2.1655831142609285 1.6220598763848904 -1.1792858301044722
Ni 3.373686952787689 0.36018349847038245 9.793447604100775 -0.48754775095168296 -0.5114505257112094 2.087164467841709
Ni 7.629069358892325 5.0742086443875 9.58381918591561 -0.7237352008846761 -4.6347903719412695 1.498288512862484
Ni 4.872856121116869 8.146459918071452 8.145648880369826 -0.7992934950369653 -0.1255143143554419 1.1933970726948737
Ni 1.8331383098858345 3.1620999061394164 3.8739887085121802 0.3651511562896163 -0.07280592821813268 -1.0081755722867864
Ni 5.783425252246748 8.543105170447514 10.996202722451581 -0.6675128880568376 0.05035505541378425 -0.7204961251220883
Ni 1.7340758477588532 0.7570301309560334 1.9261198283383913 0.6395315723525631 0.08302683461519249 -0.6209854339192595
Ni -0.05376481108421487 0.5204747093506096 10.953754737891053 0.30583452080717005 -0.2561888327555846 0.14652279828630896
Ni 3.26718538067642 8.21742111924419 3.6425983648773057 0.6650356301609385 -1.564434769672254 -1.3518886133072845
Ni 2.17373736281291 1.786765712048058 12.066486510449309 -0.512321358351937 1.440459517669158 -1.2949700457433697
Ni 5.488693048023784 4.076834571042945 13.005818974126592 -2.421082634258972 0.3994928669942797 1.2484564755628627
Ni 5.565530134585843 1.427040146429613 9.518518696864412 -0.44426657166554456 0.18278795126593037 -0.634624621969249
Ni 4.780110925441317 4.432688856929147 3.8514056303781734 -1.394570211336211 -1.4831524285519941 0.9975512598037206
Ni 1.284694753899615 7.539662107498967 2.740598463159487 -0.8994940132179671 0.0432554682545255 -0.669363311002015
Ni 8.775179654728657 7.044515314762352 6.344314834640549 0.9947125048033449 -0.6374505214538183 0.09122762525842999
Ni 5.993136429381059 2.3551357839007183 5.1668618856751145 -0.23487978686516323 0.8452751039734023 0.5598230034773262
P 5.028369381999772 2.553582548512468 7.424894755455837 0.08244473685947735 -0.7651137638314629 1.0539126693125849
Ni 6.145137032644682 6.286728399193579 8.879066963590812 0.02600156627008425 2.671562589555238 -1.6029439814910458
P 6.6857092930233 8.787234874987497 8.96614317124991 1.3471757812126477 0.015835681480675955 0.4669203045093184
Ni 1.0185511688869704 0.6025237706210661 4.079997801988056 -0.11143778165771775 -0.6252223548187426 0.28498107439692855
P 1.8028209481822555 9.013231174225853 11.958859416629663 0.41990871164647037 -1.9554941611872 -0.3655033974227125
P 7.900932506834792 7.662035006968554 3.9817371821239056 -0.7888224203023124 0.030239772721147917 -0.5041282810181833
P 4.188356852735698 2.203383457484532 3.792511603534706 0.4381820560343615 -0.13542128905650871 -0.6620585498104856
Ni 6.065532119005652 6.070120642963821 4.267258315306993 1.0352400326037459 2.054604788738133 -0.6295996579508318
