# total energy = -381168.81874888117 ev
CRYSTAL
PRIMVEC
9.25556314682422 0.00000000000000 0.00000000000000
0.00000000000000 9.25556314682422 0.00000000000000
0.00000000000000 0.00000000000000 13.54645223203330
PRIMCOORD
 96 1
Ni 5.956722905682694 3.7313431407205524 6.371248096819888 -0.4168773810193143 -0.37226051364088786 -0.2886454106223932
Ni 1.9509338153343494 8.03057059566486 4.386638841612148 1.361678602814513 -1.0399412947341575 1.9023150060610594
Ni 4.305345381988149 5.714171625635954 0.3725123402485362 1.500847274728596 0.8142907397767459 -0.438438909240174
Ni 6.292200036743295 1.265837053178368 9.976000127772323 -0.31831157022825823 -0.8930503144751524 -0.28287122714277735
Ni 6.474858569587773 6.254048606675651 2.571198136395032 1.1670352948718934 0.32254746268647677 0.30131169323615203
Ni 3.7589895069534616 7.139620860162335 5.9901734353788285 -0.6164638918998222 0.03651917797195646 -2.3338029379046965
Ni 2.2688716547942267 5.015441419401943 1.0360843654405896 -1.3498805817383204 0.9568908059698812 1.1278239147797544
Ni 1.6856323618023439 8.282479249752935 7.4414586480446605 1.2597125080926563 -0.6602425796476693 -0.5555755410548819
Ni 4.40588856122755 4.7472707413864415 2.494768475048701 0.963376927914857 -0.7019044781628299 -0.4299349855342208
Ni 8.097330970501812 2.718173697783959 0.24864144040203032 -1.8270176788796404 1.0833623420322698 -0.14081880592299617
Ni 3.7166267957890744 5.155163396185336 11.774196793843629 0.07909433233000572 0.025778137405368506 -0.8497616789898461
Ni 5.3164693455348955 8.684346533136488 6.774892448270637 0.7004122098880196 0.7477390199984413 0.5365262377329147
Ni 6.04689985453011 6.2771597471120675 11.40012489125487 -0.2871356588460861 0.6741471055439034 0.4131868195416045
Ni 5.944931318611811 1.4896550740167354 5.222021879988496 -0.9398158527654653 0.032276857755834734 -0.41927750582037465
Ni 3.8389760811030422 4.744197894520246 6.772440649671676 -0.010409368258782073 0.22107707665411605 -0.5659846522033478
Ni 8.074562285890845 2.04469266700471 2.5648173513662518 -0.3300406857397284 0.41569107402069705 0.25899699162834106
Ni 1.187275835707685 0.35945921996120056 10.187460121093387 0.6698456499550721 0.5875220120544915 1.762651911009061
Ni 2.474650583637971 3.355659844639611 8.082382310942798 0.911843021701623 0.32247727157017364 1.3222301670109033
Ni 2.602247773087881 3.628689693151355 3.235353262046635 -1.8670865218760682 -0.4280740210660821 -1.0024936914106606
Ni 6.132023266061433 4.165836283150306 12.528883356399803 -0.9542549110089307 -1.2614927399215308 -0.15286391001298835
Ni 1.64791594318865 3.4869500036666654 6.005981936726606 0.8803886598470838 -0.09049948884315381 -1.4715816929952592
Ni 1.6400857370175614 5.934287421334328 7.055547955014485 1.3774942296905308 0.22777968548527222 -0.6741609895009745
Ni 7.724174443078915 7.985847715973727 10.547416364779634 -2.8959412197787606 1.7754516338768906 0.4605802212239036
Ni 0.7474533401889087 2.918195666535011 1.46622739333085 1.67424092926382 0.21397800371548956 0.5570377274227052
P 2.216087179860755 7.1394079822167855 2.02439521767469 -0.1648064270868452 -0.38953215623714205 0.29102239549500203
Ni 9.08741703969054 0.1479057454553501 8.162360555085813 -2.318475306408691 -0.6828965696017594 0.5664983586149728
P 9.273240975029713 4.5608451944620185 6.701063600085153 -0.9610691057172869 0.6673334250561798 -0.792248672375042
Ni 8.12481999216627 5.7056194855625675 10.164864515507718 -0.7173346966749711 -0.783208930770277 -1.1146840349636868
P 4.004021277843997 9.09267419938933 4.761727005001835 0.4545715531359784 -0.47088083181896323 1.5545018268292583
P 5.625105344330537 1.7822974602076 12.438378760627495 -0.47122638808384004 1.7115108693588719 -0.189673365531854
P 6.350038048992858 3.4818224218477734 2.1060394631307036 -1.4693368628251404 -0.6750246230528504 -0.09176112916439681
Ni 1.7838523947663978 1.2608390492393755 8.241661292028212 1.4483697736551702 0.12328799612808443 0.008774660868836501
Ni 8.50812061647275 6.535389950626683 12.324209541760347 -0.26981028019376113 -0.596666911778553 -0.36768652111696026
Ni 0.8175929210223895 2.736203534215732 10.23300304365303 1.7556392271366537 1.279122537188152 0.21834245133177235
Ni 5.4192616265468425 0.17140839620032017 3.1552398866860085 -0.3506149103466542 0.3782118461283164 0.42005552163697985
Ni 4.21745455716468 3.4649125085208485 4.804493258706481 0.2717622617138094 -0.6767102382853893 -0.23496669015201468
Ni 2.7471528650672656 1.35203411000029 3.794022737896944 2.1849522628161595 -0.029766946849787444 1.3874153454589848
Ni 5.509392297580009 9.00606989780201 11.731118627670938 1.1383875492282136 1.2616835157760982 -1.2010376199592672
Ni 8.019047419916628 0.30933201712196007 4.009357109827014 -0.9999853231665101 0.6012972114617129 -2.5850210569185674
Ni 0.8472662555194453 4.948792111319192 11.32681157792013 2.2224674861527984 1.4826340941546787 -1.0275987140084044
Ni 7.959497128539816 5.604280327918068 5.023972271680775 0.350858393816028 1.6263201943231411 0.9402395705664451
Ni 0.8989363606857784 1.6303488848993761 12.442348471533856 0.31935878054585 -0.9012351642787899 -1.2278051178610985
Ni 8.915809648888944 2.5388934453797254 7.930824320386844 -0.19073728801999407 0.558754967224128 0.5488523633984354
Ni 5.271357732204063 5.597514511474728 4.497869419274427 -0.6508130588036534 -0.7259057261734336 1.4766051143517795
Ni 1.171661701179758 9.300637441065671 2.826290704103503 -2.2825474821638303 0.5156198265975507 -2.7395960360853917
Ni 4.825369180714626 3.3197760274702146 8.527383293876142 0.5270864324762535 -0.02617537284378718 -1.2909370133245768
Ni 2.442413458231469 6.407977872433773 9.875065438224366 -0.2991565945663622 -0.5205262627602326 0.8943623484183566
Ni 2.3814378101757594 5.329640011470426 4.787315859613193 1.0060603257159966 1.4112394444617762 -0.434700011023032
Ni 4.30479004821715 2.179842395740209 2.130586141365152 0.8564149226403057 -0.1742014951485 0.6636852867806311
Ni 8.346240822226491 3.794660446177308 11.75638261202626 -1.0425327096104173 -0.8029493466219978 0.5040645176597836
Ni 6.96778208028949 3.4419031792757826 9.842228552345187 0.7828307214952517 0.27009747241687676 0.1222919507634023
Ni 6.9259561917704024 3.7568884941865144 4.2615915597274086 -1.8211612200988636 0.4955863049854432 -2.9148169736373415
Ni 4.649929986893136 2.9352721799932358 10.738068927257645 0.7621217710826745 1.1803240415609995 1.0763159767084496
Ni 7.783863567898477 1.2286482016471234 11.999880736152555 -0.13125018839795463 0.29465330737937 -0.543878821443244
Ni 8.176188365983693 4.498009178273462 1.9321570549805824 1.0433127823095516 1.471659083200414 0.146043030436413
Ni 6.002787841987075 6.122813981025697 6.862767538637262 -0.12797768829426992 1.243614316979213 -0.054969671367660164
P 2.7803525690101663 4.018617300458425 10.159418542326785 -0.48718882495036747 0.40613119824640376 0.14363622076713328
Ni 0.7687439114127321 4.758331138992176 8.835822149183079 -0.8878839397828644 0.1474738493456686 0.9631720109929024
P 0.1771598029553016 5.156921953126833 0.05534919139920271 0.48872120243449385 -1.378814234053535 0.5982689661583503
Ni 3.595286366825755 1.7901091552529884 6.492448766784173 0.5047108929945308 -0.5052544242028265 -0.1384158529084584
P 4.407147317775148 7.516007579019876 12.363440170456299 -2.656230844294174 -2.9971390688760255 1.663080541771626
P 2.178602150318311 1.3947948103672263 0.9572482577532618 0.5786779314003001 -0.5133744822067997 -0.47979304670692857
P 7.051655990836066 8.63629165081936 2.075547011321424 2.098160047621264 -0.8498298132236202 -0.10485164379976782
Ni 0.4014850286378481 4.275079691468694 3.9933042616199974 -0.7985404189210248 -1.5789453045836033 0.04668763386452605
Ni 3.913214950722782 3.273646302225883 0.22598197143269402 1.1464847244140512 0.008571543719094915 -0.9612513969314218
Ni 6.966190123479293 5.880114611973358 0.2787164663267756 -0.4766529584160501 0.11348515110504971 0.4814310965309837
Ni 0.8423830205597926 1.409751799932804 6.245279886431574 0.2313013254852855 -1.867203764180223 -1.9063079292705363
Ni 7.487296823059218 4.542944935910145 7.798136571369441 0.7154922441495936 0.35173205467023294 0.6789995485401983
Ni 3.8563302614467667 6.664949319400791 8.11477122758004 0.33247397777156934 0.4384137124291933 0.9027554575780581
Ni 3.4705769129850403 8.85744406955693 1.6253305187221136 -1.070958311940962 2.136608838515765 -0.28187646732967586
Ni 5.783060779928403 5.390032559066586 9.18392571908363 -0.7872938994729279 0.6820689314941415 0.21413535522896027
Ni 8.107030800368596 2.5554979251326007 5.5503879621114525 1.6793093449256626 -0.31237077926379103 0.727010014981206
Ni 9.163942033334225 0.7029127950859199 0.5817426684790401 -0.31348920913895045 -1.6708879536311867 2.004661109830154
Ni 0.40108333721015865 7.596086708797957 9.85397386160182 2.7620921603053783 -1.8846947218761347 0.08319292787941156
Ni 7.395814839849954 8.592670183107375 13.145869357099022 0.4350501952735991 -2.0963862435502927 0.7615540715046626
Ni 6.314968721354261 7.597104820711454 4.762539643420063 0.6007940465730491 0.9504684473833049 -0.15843137679843683
Ni 3.1841727761550658 1.3840583574612422 11.401100427579259 -0.473471732474591 -0.2884291808465291 0.350758377903054
Ni 0.40321489333451055 8.375729045466548 12.102467543669231 -0.2482019578953661 2.4382321494550654 0.2529019344741967
Ni 8.857490347371181 6.802783161362786 7.973902486559535 -0.45902701780417077 -1.034533750565341 -1.578086556127734
Ni 5.93885041381937 0.7944891850362538 0.8094110034630015 -0.13532255869511534 1.8607443817081244 0.10493109088745155
Ni 4.3621375156356645 7.1825666717862715 2.833836764495097 -1.2399924039559096 -1.0920835239553512 2.1102725146140817
Ni 6.5905160829612015 1.7045877545191157 7.51960799296852 -0.5886018753822314 0.4419770043004195 1.0345098393059409
Ni 0.5356897644063635 6.454588886946304 3.291611349717706 -0.0661341726249119 0.08862849707268607 0.5878043191816006
Ni 1.9151425537934526 3.5140502916914254 12.806747385388094 -0.2727315676056142 0.9188438784994885 -0.60364308598607
Ni 8.828825869224774 7.444887834080581 1.4599826650759642 -0.4416697574726458 0.32319152402837886 -1.070098277933512
Ni 2.5510830216531573 8.981968412140645 12.92312498155125 0.28998906913448125 0.18861612791193322 0.08241336940090967
Ni 5.469352732690968 7.935192020495752 9.276881187898612 -0.04045990778725935 0.4845074214634624 0.6207751176806663
Ni 5.404360170358364 7.770415235077446 0.907367252885831 0.2912687071778532 -0.541081461203765 -1.559993703181765
P 2.9623817235808456 8.506584193039652 9.296984270408782 0.10410525255204651 -0.17721688493605608 -0.5201969044452719
Ni 1.9085340819185623 6.770120280065185 12.492090642958537 0.9636502361809016 -0.9447734538810567 0.46942738720188837
P 8.995111311387626 8.0378732347535 4.894197248292264 0.8222408478617581 -2.314754663023994 0.7416406204101872
Ni 7.810973111486087 0.31648379053614445 6.153759955414626 0.04495625299571612 -1.931960596841634 1.9187842073606758
P 7.229881109075401 8.088232752220275 8.067494738098596 -1.363014033796485 0.7645982576476251 -0.3594227384462713
P 0.8034235798553455 2.056002964807393 3.914585699580865 -1.9244828004073504 0.6633484722665027 0.38019159556250653
P 8.467377628807112 1.505195164041862 9.958944902108653 -1.2780401027572503 -0.6822985310064443 -0.8481480546458232
Ni 3.9799753255597325 1.1904690048909299 9.105789331947761 0.3318173180241769 -0.872943002202316 -0.3966176023290137
