# total energy = -340886.6666658987 ev
CRYSTAL
PRIMVEC
9.10735218279583 0.00000000000000 0.00000000000000
0.00000000000000 9.10735218279583 0.00000000000000
0.00000000000000 0.00000000000000 13.32953050478863
PRIMCOORD
 96 1
Ni 5.145480815353961 3.1817900160467993 10.239091618378717 -0.9797900791655578 -0.6954281264098667 -1.6070101811406194
Ni 4.739948647464987 0.6581646467323873 6.523191839530606 -1.6701844998062592 -0.6312888727277967 0.5354119216228134
Ni 3.3729988703593454 2.672561538788801 3.114644242282089 0.2956989750350649 1.2075126861606496 1.3903500026072764
Ni 4.593083489825352 4.8413499041411425 3.2095373852506115 1.2842012372626401 -1.9862571534016695 -0.7609233798991992
Ni 5.411706927726638 4.367767602438242 12.313966791832984 -2.4606866218038395 1.7950115582866895 2.4934021097589896
Ni 5.898458460357661 5.654244817662213 5.188946563298332 -0.6196595160189845 1.240273425531438 0.6457994076391458
Ni 3.2890473000305507 2.8737702655488424 7.474080439151142 1.1725089163919549 0.19772760329489816 0.17141236243913704
Ni 5.502871520804446 8.144805034965808 13.02548321705779 -0.13080898709547795 -0.5149675377255325 -0.4660828962096876
Ni 2.564011010827323 5.8958264356424275 11.801885891942419 -1.031852347078436 -1.1589676873724104 0.6570556972792555
Ni 8.578843214476514 7.464941211463471 9.481041178335625 -1.727919392623882 -1.8281301952175288 0.4213760402206163
Ni 7.610686164812539 8.721282199065618 7.590700991680677 0.04242577326437855 1.1929576711646102 0.11328820460289521
Ni 8.862682945531757 2.1950175389851174 1.86374854041433 -0.8891234686169203 0.6033114136782641 0.15666502892663342
Ni 1.65395886664151 1.246587013657458 3.0752030331669973 -1.601470739379629 -0.15801408675536013 -0.13827469934490377
Ni 1.8362971601490823 6.846579335718822 0.736270207840738 -0.44754627085808085 -0.518007867213753 -0.7603698213885745
Ni 7.712715828773647 3.9231557873068215 4.445065341428111 -0.7428665223974884 0.11114827544175696 -1.201043790606854
Ni 7.478301696782666 3.9288752043350796 0.22037423821587976 0.7138428814716286 -0.23552667642054276 0.08220382449326488
Ni 4.672873000310335 0.5949596241589618 11.111802708810453 0.1743609035444997 1.3997414711245055 -0.8137613496358373
Ni 0.6665925902323078 0.09317367491926319 0.4624303492329921 -1.253435416834693 0.019234422749579778 0.9858699668110505
Ni 3.3552395340454866 4.724028996246204 9.814893021921083 -0.27124881241250054 -1.017808210280544 0.3024095542860211
Ni 8.897527674114743 5.04428902777279 1.997843369141506 0.3939750224998441 -0.9990227021429247 -0.7294584765216986
Ni 6.284346070077922 2.075802301883368 7.373803029706336 0.5117798840261703 0.35882752806443363 0.36024317746503765
Ni 3.3913137551425097 4.573703044863357 0.8744332906865812 -0.3650755658566745 0.8282194340426963 0.01465143136458767
Ni 0.33872154467623883 8.949922269916604 4.8803412100696155 1.5489731837015452 1.0075122276711743 0.5814691209921922
Ni 6.744540564405758 0.7744072441557551 0.8328299962171769 0.2685694658081246 0.7964272292327639 -0.07587582539270804
P 0.0402326380000525 5.832284441046636 12.962474913286608 0.06672321235916251 0.35211386348968393 0.6101508051976008
P 4.22456360028485 6.334491149946695 13.02320455759844 0.0350842452976428 -0.29951963433273576 0.18297384202449132
P 2.477773495157616 8.883001447745203 1.629695059560801 -0.6776782586256135 -0.43908734145745026 0.3320230062770798
P 5.947601731511293 7.805182773181138 6.4704338603857074 3.544124297158735 0.4664593057124999 -0.8678283066835699
P 4.689002120624101 1.3012493400963197 13.132439958426998 -0.37393198780603987 0.6134901539834788 1.1148634979643444
P 4.085776663830033 6.480290747407496 8.871348590917725 -0.6060239275134208 0.7243000722492107 0.22408398180123987
P 4.72122393184381 1.0317719030754138 4.363608274800017 -0.7529601591880645 -0.32365200860456517 -1.316530802633281
P 0.023200979107464176 6.111634247587657 3.8562067323443565 0.7373821022441495 0.7342692676467806 1.614772855805174
Ni 2.6777709441075324 1.9393104181214187 5.3178165042084515 -0.05513267930808569 -1.5233153739241247 0.033540554959606755
Ni 1.8115160554772824 6.746125243646072 5.498004551919253 1.006677133364389 0.5336239764844551 -1.3569128059947533
Ni 6.68489651644706 1.085569031078472 9.60359334919399 0.5041529636085318 0.43318948791577655 1.31034652819944
Ni 8.649862345028039 2.7908660406949677 10.700160418494313 -0.6535474270156809 -1.452518505716221 -0.11304240714067629
Ni 3.204986441478286 4.433504468855387 5.35119312765616 0.04494442592117421 0.9800644158728671 -0.44090588272342773
Ni 1.840167784730308 6.77034169249661 9.600167163388207 0.31018868401080774 -0.043190676454861104 -0.637663923016205
Ni 1.3178702574157002 1.5609181590608017 12.214035461762498 -0.08340658655211441 1.063126731711685 -1.8620762131456705
Ni 3.839304397849541 6.803055300721934 2.0183039460454624 1.0572101091169341 1.7338432143074851 -0.9577901778556988
Ni 5.400623280396399 8.395949372499638 8.893995843026275 -0.7373689896180269 -0.8417922876311245 -0.9762509556640478
Ni 6.70978690934233 0.42852003496067326 5.110568692366502 0.7510148625362356 -0.18265836766660154 1.1921868544368563
Ni 7.931692999199503 7.447564383931757 5.456416739948175 -0.561256393489743 -1.8055569379027034 -0.39702975016576786
Ni 4.780467256316451 4.795294025300535 7.63355563630881 1.1082598766048979 -0.033016307025020564 -0.12201247184977053
Ni 0.7666960492547582 7.888952196470816 7.346676781905911 0.3209047848767312 -0.24734783742518693 0.25693959487868007
Ni 6.3476694882267735 2.142377044680449 12.11506313585296 1.315617289680076 -0.15773460784172835 -0.33549039600038993
Ni 1.0573271326634588 7.983258825973384 2.836803523960149 -0.828974567041166 -1.546139570907492 0.892560005102295
Ni 7.190199725012099 6.2917958839777866 7.656788491148121 -0.2881219340187554 0.8154107123138021 -1.4552467032806613
Ni 2.1433606386916777 5.595465968139319 3.0248967531686066 -1.7684551479543995 -0.8438149744881082 0.27945165993826715
Ni 1.447413231635355 1.2804754702850827 7.5762512670675655 -1.7634075582281632 0.8017116175601549 -1.1399929460421203
Ni 1.064294256909665 3.452751951436505 4.216156603694428 -0.689696109022096 0.04947805212546963 -0.8365433805273592
Ni 0.6455254636880934 7.530049670595665 11.663498768238464 0.05420116863275182 0.23260333212616072 0.48143803850951916
Ni 2.431662972205274 5.199186869837462 7.591900429933259 -1.2798835837238924 1.2846277832770971 -0.3839472059501968
Ni 6.396858296140183 1.8186926488184727 3.2668016821432526 0.7192344848008452 1.4581703046853598 -1.123398274908233
Ni 4.052762512990167 7.4319725973833854 6.861908830530867 -2.786926959960871 -1.737084604062918 0.20298190971530206
Ni 8.471176099654752 7.400042221426263 1.19467419677406 -0.7300793979351491 -0.9812610072841295 -0.7358075586681779
P 0.07904088615421398 5.61269707803974 8.339353555240555 0.8282510586115801 0.9103965190630838 0.5662918990311215
P 8.337817144965607 1.6823555900397724 8.398830027923264 1.0614015214904624 0.41773741502676437 -0.14479090319686677
P 1.7298413231374439 3.5008751991710843 10.976215185097717 -1.2816702433106701 0.6881899567902148 -1.883707675372517
P 3.8089769158366438 6.3996633605425775 4.268755204180099 -0.8609860869507558 1.136906336696997 1.4206075159402372
P 6.841342608344222 4.073572812209227 10.988011938086098 3.3611016041741792 0.9055479327215308 -1.9252695579747034
P 6.5807448394802455 8.02484299500368 10.72944510870827 -0.2926987547561604 0.10091451352889072 0.4775492449780743
P 2.5803404928841167 8.939904182765197 6.221704792590562 -2.162534300132276 0.03913527543856486 0.9157503271758293
P 6.692983844983833 4.091905911696303 2.408659622635251 0.016192807709778566 -0.8855473212298877 0.03662485031188531
Ni 2.7761849893421777 2.22827758832779 0.8678559611040843 -0.4782866373647311 -1.8057317729176707 -0.6030005673060648
Ni 1.105914855347785 3.544699776782514 8.780854298943865 -1.047526563280583 0.13675157783215802 0.038807202675184775
Ni 0.5002367886720128 0.2859854231760342 9.732929586524245 -0.030710541709979368 1.604134402254721 -0.6854735863003163
Ni 2.8860378686333386 1.9600751805806997 9.765293472434465 -1.463413298251854 0.8670626321621391 1.3877673294817647
Ni 4.97529172935546 2.93363288995448 1.5893995808322532 1.8435403591250121 0.18986825515147945 -1.6565836211933727
Ni 3.9732097936560358 7.608154320968819 10.929202123566553 -0.036058693395770156 -1.80616551802098 -0.6008724652194684
Ni 7.175819216273852 6.085587220993997 11.92980957898433 0.287395340265376 0.8619566783941413 0.909417442979266
Ni 7.30618185216953 4.1774239465614995 8.410467402252419 0.7320660893478748 -1.6549273165368725 1.371936275986779
Ni 2.856347901257349 8.955332036978364 12.829272605051104 1.9863067756926824 -0.7162707741868309 0.796113811757403
Ni 9.161904994040388 5.08215739720511 10.82141934537495 0.45746995772969595 0.5573226056529756 -0.4873747157089285
Ni 8.43542974322814 2.799481595645178 6.460743637904709 0.8277059847413875 -0.4657694787343269 0.1478281473612938
Ni 3.4077434180708175 3.217864237143822 12.069036400538613 1.202225726730097 -0.7562843384652911 0.35366372447530703
Ni 1.1006416985653624 3.8655517861862285 13.006275811782954 -1.2312449967805827 0.9468244228728145 0.6490958190022305
Ni 2.856092895402586 9.006151060891868 8.702730523131603 1.207290028626882 -1.7538746790370632 -0.07367444686601506
Ni 5.275506479227276 8.042320003406909 3.6705123796410626 1.6948462642189972 -0.7457399872905415 0.4971181682489374
Ni 3.089068065784545 8.680208041744848 4.094511525090865 -0.7415393189456325 -0.38583413856026455 0.19972843577501087
Ni 5.046447470186321 2.962066042760566 5.100678108142477 0.3041478771333665 0.678329004835735 0.5970533485836944
Ni 6.1300310985384225 6.079394221664035 9.740381221894502 -0.5049482058163175 -0.6365179823372199 0.19105816169452255
Ni 7.988905384185995 0.00884323874910607 2.8073858664076385 0.2730938360410394 -0.3858709053354709 0.8158948510390722
Ni 4.390208117657395 0.4830257149458947 1.9259171463351825 1.2591180690417672 0.16517666594207037 0.07817027785383956
Ni 5.9373741752649005 5.688497568368071 1.1605835569330158 -0.876159966477717 0.7208254834370489 -2.2912838335955636
Ni 8.070115641576086 0.2531051504099192 11.61968511944938 -0.006813680487723749 -0.13250591518192664 0.3955295114711575
Ni 0.03217809593032087 5.239896733079999 6.049380943293614 -0.09621299428816332 0.14597463909232278 0.28645328806708087
Ni 7.060347100825947 6.201724173134677 3.045997576915058 0.44388784816988713 0.9379934548447459 1.9979829264790296
P 8.413972822020215 1.6935485255934812 4.3716591739289665 0.48579657258853115 0.36705248707738725 -0.683311802762307
P 1.4507009856914075 3.609025003646506 1.8443808457450723 1.4314174620715476 0.24030661430768935 1.625836055597871
P 4.64151638752643 1.5363374161320302 8.760047642665588 0.9555438050236834 -0.7161543032136247 -0.457086092027716
P 8.406969268366186 1.8852673916155531 13.04753029467245 -0.047120864747202715 0.14461349707873802 -0.008405707565191975
P 6.372905960496364 7.934589137121455 1.770761566210161 -0.2060014132679162 -0.30849252725530746 -0.10538900436047657
P 1.4642982621614544 3.499418022858152 6.367943364415635 0.42103176950732 -0.24755892499472848 0.7482293293712986
P 6.497394354380536 3.98683439218195 6.3724351104002475 0.5310850121126854 0.48256161059100117 0.3160361439305202
P 2.2106730769971805 9.10380919591418 10.875376762772431 0.5994753277616257 -0.6756141770077332 -1.2429705127476272
