# total energy = -381170.3813747087 ev
CRYSTAL
PRIMVEC
9.20809743301290 0.00000000000000 0.00000000000000

0.00000000000000 9.20809743301290 0.00000000000000

0.00000000000000 0.00000000000000 13.47698136196439

PRIMCOORD
 96 1
Ni 2.6416373529589467 -0.16405514370109583 1.2227017963181035 -0.739476779989649 0.019475335115792265 1.294220826282171
Ni 4.779978526868562 8.678557985739724 4.420126086653995 1.1469709200218505 1.4920535876963659 -0.6918769187234987
Ni 0.9661319788176274 3.8574929289776763 0.38063143245070374 -1.8581208280423482 -0.5214320624039536 0.11934058144456221
Ni 6.4057141354172575 4.974904737382947 3.7877590877548273 0.12719015939596803 0.02160318009207247 -1.8935377740890618
Ni 2.9115082669253884 4.798910374797967 0.7875501409076652 1.4631854985117638 1.5162582099670274 -0.5156563362624409
Ni 4.818772240548807 8.836126945743604 9.025776916538366 -0.7315040461968176 -0.5813066272723989 0.20540260334165272
Ni 8.874791746062462 7.5856857564841915 11.447980708173533 0.08394214734061027 -1.255887220809295 -0.16729011274064737
Ni 2.2773005693875596 5.0155584867060625 4.980471952975417 -0.09814877785829548 -0.4161420455151866 0.04806728782087206
Ni 6.216008916039045 1.1484523042078127 8.283936691149359 1.684740286133247 -1.8642074005560605 -0.5194646542649377
Ni 5.798900527174166 6.653817107503781 5.480522277746969 1.716953894751314 -0.5631150439650366 -0.5836992958742916
Ni 2.371563860853182 3.805301433810425 12.170549306844908 0.7601901012776004 -0.07301444468451296 -2.253085982369604
Ni 7.890611896650656 2.5666097766317124 7.595182067169793 0.971090494509031 -0.663538991010754 1.9112611595107538
Ni 7.04370636092152 8.629451203148518 10.100552472284337 -2.3342091722041802 -0.7983642983544768 -0.815078525785364
Ni 2.139409313189679 1.6819878745996366 13.316011741878267 -0.8370223770463069 0.2671656434820625 -0.25384578644470474
Ni 7.967094352342114 0.06228080731523214 1.8446479915685805 -0.11779791954779067 2.1323804022567145 1.4344068837171746
Ni 6.312611064204118 6.082638835586953 1.1559034964959813 -0.45948158884308604 -0.3591448021945363 -0.24042617060468915
Ni 3.7791780619350734 6.352169049955442 6.540284951749698 0.9606574721011648 -2.876816326023852 1.3135784048731765
Ni 1.4540690516674213 2.371729606603537 8.272359350487081 -1.1717563544966465 -0.27003345194816075 -1.1365276132013395
Ni 3.461231672268523 1.3053398650157912 11.52781859449995 0.07601055119835942 0.009097077205261752 -1.2782712449314502
Ni 1.6840596964790706 5.8140110147481705 7.691097291280617 -1.825452905495682 1.1618915458874246 -1.2599397936121142
Ni 5.768108649997157 0.8612922668599258 2.245332818192756 -0.499956666138997 -0.1564480278198209 0.8505744046991287
Ni 3.5087730783285997 2.216398214229444 4.765325681727481 -2.543500826187594 -0.4652375174902568 -0.07736757944688612
Ni 6.26645087273033 6.737693665280507 11.40199731216679 -0.8524639084123578 -0.5356533482096582 -0.4277834864088569
Ni 2.2791421888359453 6.079885614511616 2.9167421493977006 -0.7617440760282818 1.0136738763971962 -1.1520352219186352
P 8.52360412535255 5.605337115051586 2.637539749686288 -0.3981867465883465 -0.8728987792279418 0.42845840098869437
Ni 5.4961751222485224 2.009796136412293 10.345483254871013 -0.8372231802032034 0.3855646869489618 0.16443310290782648
P 1.6567576881567525 6.968236795926672 0.6712076738753463 -0.49994612461603577 0.7228016333268132 2.322329647157775
Ni 8.708539550359443 6.664811575610643 8.805509101604468 0.5319129073306195 0.33376749977201225 0.8305714792146406
P 8.478493656964341 0.48005770403987563 7.761838498341733 0.17594753130532922 -0.1394715478664824 -0.13900900640776703
P 3.243487796788638 2.7765820180394094 9.31533013835943 0.8467907692869803 0.8830011577692664 2.4881143789974893
P 1.3733416631474336 6.936643814289615 5.330860310844731 -0.07909844609506378 0.4173543206557328 0.032716516396414624
Ni 7.912241717071946 3.953745169447555 1.2025240928318655 -0.26482311139181486 0.1565189902670724 0.4330856153480606
Ni 1.0081393184353054 1.9777979984965914 10.695157064394353 0.24575761011993158 0.1630688755704482 0.5524565358099259
Ni 3.3024472434287073 6.0553828677508434 11.30571836821491 0.08989065161456132 -0.21799895194942456 1.2294933041967988
Ni 7.801864255432948 2.720780948753322 3.463192996981054 0.7042506097975032 -0.39050429034242423 -0.1303634149176271
Ni 8.790381118645705 7.504728165533156 4.304251390961566 -0.09917696201249372 -0.2852726374954184 -1.534576548660241
Ni 7.907840246590304 5.726524882852607 12.703402557231106 -0.13390690929451132 0.17250379573110292 1.8775043747752826
Ni 3.6271892088598015 4.066848227870164 2.816419929946889 -0.8798615836990202 0.9815088616288773 3.0333718259558147
Ni 1.879925132912133 7.44253667676117 9.760703702518132 -0.9942689895080232 -2.867664998541887 1.3819106135906716
Ni 4.738118516806755 4.288376631316481 11.013186326936081 0.19119185905890942 -0.8424206652437427 -1.7719125103753806
Ni 2.368423899693685 0.29522356810264383 9.479505908134394 0.6691342257103444 2.3361516406425316 -0.44397346590515796
Ni 8.374709192950565 6.776036182195898 6.422940643737458 1.5836856474820662 0.46280705367189323 0.21416440869468278
Ni 1.942033748808941 8.490077443294687 12.267166187965568 0.7144051817330018 0.10315265883079008 -1.508755473832079
Ni 1.247264395710948 6.123660908799744 12.358365024669077 -0.3616547131005836 -1.4036408061789116 -0.7965920369454023
Ni 9.243364254365137 4.066277325841164 9.094873557432072 0.40204700087470113 0.37890475843028293 1.255496927349412
Ni 0.38334137546900326 9.020887416902902 0.23949432197504386 -0.42350722763100607 0.8198834033731751 0.18818572524273397
Ni 5.454195406922571 2.707042467668365 3.805387069114775 0.7495313360121736 -0.6126468321465771 -0.8787261845429963
Ni 3.0868488546061914 8.226541700230692 5.889036749455956 -1.4879089694003729 2.0683468209145732 -0.0963960568332469
Ni 3.077309265863554 4.104039732630313 7.264847103473951 1.1596811684996673 -1.496220831700178 -0.17342476488347552
Ni 3.7585519241131538 2.2491145837300164 1.5584373090463361 -0.7235675649585602 -1.8199908539398462 1.0497348837858116
Ni 6.731837315434641 3.4328799408606248 12.444306958657169 0.07936892614763105 0.8630167442275395 -0.17212378668386483
Ni 7.775823756432774 2.3367296289869666 10.523864356261102 0.7670253790318791 -0.21336659538373573 -1.0604805523380898
Ni 4.692409522097822 0.32055228118601675 13.541401100498124 -1.2163896769353053 -0.45067324652283675 -0.6749893989395408
Ni -0.06068596487293011 4.050457814779531 11.720283480621568 0.6411775925964184 -1.7122258931480254 -0.29305125299957274
Ni 6.881303149865626 4.299573677562666 9.581837334403394 -0.8433025536280638 0.5212759964420636 -0.15017659298881234
Ni 4.524260458362964 6.510668027780759 3.4385300293282723 -0.4569230840872905 -0.37813059926841974 -0.7061223728989193
P 8.758953882759002 2.170652387131543 -0.0012302017915216542 -0.1337053348066665 -0.14974079100297438 -1.17828181431999
Ni 5.3004570153713315 1.7252014749560074 6.085423364192911 1.8467526954147226 -0.7134651864172358 -1.1491116205139373
P 8.24877925506995 5.588283718959534 10.579942589274172 -0.19534444777470228 0.725124625033035 0.01575520595172771
Ni 5.4399504804893075 3.834942298832193 1.6025339659282078 1.8306285361593506 0.1665609478841067 -1.149283627315427
P 6.754995679998092 0.8495381307306039 4.301784541710453 -0.30162793892499024 0.3722854533415524 -0.6716323095418497
P 2.405891647371092 1.3162514602474766 2.9747743406455065 0.2757868094921702 -0.4128929424502696 1.3435659523742023
P 5.1826025787718875 8.003346631183588 1.5745422711224693 -0.44246037169474123 -0.26116057493856315 -0.012247707019101488
Ni 7.456376446915789 8.801495292016712 6.01155600811816 -1.8925517560267082 -2.0724299898450114 -0.03502742391777838
Ni 8.525261582856096 1.3699807076541297 5.689361923193908 1.7280278931772883 2.5779088713538183 -0.8954036451986773
Ni 0.9765647529927324 2.7892707760387867 4.437741176677804 0.08170425914902703 -1.1605080352763368 0.8857789776247196
Ni -0.11685535804869428 9.088668220700736 9.708237806053074 2.7600365633279305 1.20323102806616 -1.3497031756201916
Ni 1.7423377439232364 0.8087508639974814 6.250488636161447 -0.5445100272693396 2.100700811765247 -0.5061504536545348
Ni 7.158402420166981 8.032702045190854 13.321551333179011 -1.990159830890185 1.3072491202210388 -1.151732603076552
Ni 4.621746583863262 4.368413412543323 5.125282173440883 -0.047586491529711596 0.7368581114198793 1.4617580220366182
Ni 3.6585611961630518 7.307536763097256 13.521185643813196 1.7110293017367628 -1.6797024665990232 -0.5054912228039811
Ni 4.012667783698656 8.148659613758461 11.082741531072436 0.9536111067773447 1.0329154982356274 0.37202242948815284
Ni 8.22982899094606 0.4873698540596911 11.836778802068103 0.11635090268861897 1.89612198987647 1.3461062022975525
Ni 2.377226840656968 4.854941646515103 9.566648578002834 0.4579864923547983 -1.6168497929388603 1.063768221950426
Ni 7.981928596998861 4.758855151795578 7.3341058068791165 -0.12255394617553733 1.2225068455766364 -0.32389446363267443
Ni 4.415927194311675 2.8981012773411408 13.053157398010175 0.7516288419711507 0.0883076233981576 -1.192235705396921
Ni 2.613884147871774 8.294129133986448 3.6782996734108493 -0.7676409011286909 0.4399915984392745 -0.7977040390626584
Ni 8.57317131280585 7.261173993484146 1.2678454138563826 2.0369497946605306 -3.0138142155388614 1.1623764559436434
Ni 1.0332313834195608 8.163779309429708 7.408592867898249 -0.6514656047859877 -0.05396231314906836 0.37865613275458654
Ni 7.056763442810573 3.383524539643888 5.708310345698349 -1.4602071326097303 0.4606887217773098 -1.322575466165464
Ni 5.3940573238355345 3.1666278091102606 8.032900940091281 0.11645657502854782 2.6315256282380104 0.2070051719420822
Ni 5.234591495799816 8.549147387101659 6.659677140588544 -0.9842704835344146 1.4676311929879433 1.1900435828416085
Ni 0.6354222455640393 1.7532032986687123 1.8374242392822875 -0.5895475271249524 0.22542686898237949 0.7064419610218672
Ni 6.574728760292856 7.709221589081905 3.138937219084333 1.0149789683618649 -0.08458646579282852 0.5503284337233296
Ni 6.651386169831911 1.3940230495528052 0.1602061590539697 1.4286530119525331 0.6812631477633945 -0.4475010194424422
Ni 6.5956955977127265 7.149093033855391 7.799978437117801 -0.6560318840004314 -0.8006415244244276 1.2236180763629443
Ni 0.5101000421013917 0.35634691759456555 3.9092138903758644 0.2258639565197981 0.6515818186488779 -0.48248627726837556
Ni 8.410989096083764 5.150079579313396 4.788088098109529 1.7173747843388165 -1.129198683640094 -0.13959778903170153
P 3.1683036828082916 7.771532783118035 8.119557422425345 0.6618667455146537 0.02377267693956551 -0.0747468539945874
Ni 4.7486802043432474 6.310106461754314 9.392902832764332 -0.13701614434745435 -0.08143840708215007 -0.7720122907235092
P 1.1166475363341914 3.7367655660387507 6.364962780263379 -0.6768552485036858 -0.3383060110723141 0.9439854107621226
Ni 3.7285519432989505 1.7038202731602494 7.655060481914606 -1.1654985465123928 -2.635198706214223 -0.8913176480547618
P 4.986074159337407 5.064665269297268 12.919977004361266 0.22565801115657913 0.6756491440107267 1.3296061477600005
P 5.750198900861606 5.072713146286713 7.0386907103538405 -0.11568807229363946 0.42986170909412424 0.13483816285952907
P 5.842031254655359 0.2886360953357682 11.653221829218328 -0.26349822193280426 -0.07844847121589069 0.37349104361387936
Ni 1.1468408871904752 4.090006592433614 2.667026839484116 -0.8154737043412538 0.8654222683452386 -0.5033281537143912
