# total energy = -381170.99466528645 ev
CRYSTAL
PRIMVEC
9.21576038318219 0.00000000000000 0.00000000000000

0.00000000000000 9.21576038318219 0.00000000000000

0.00000000000000 0.00000000000000 13.48819686411836

PRIMCOORD
 96 1
Ni 8.462998527763688 4.409621478130739 2.289837186349266 -0.3947589518537201 0.2008286108177251 -0.4615652108449922
Ni 2.2631511093728314 2.8087609796331567 9.205518782709023 0.739472666224591 -0.5786445070592035 -1.4748223114197438
Ni 6.015440055646632 6.374771763830545 4.694715629563722 -1.19146206045569 1.730264495817291 -0.7508333426530488
Ni 6.289903827623069 2.574689884863513 1.149508502570673 0.20002256997666198 2.9949813991030747 -1.4649428475225028
Ni 5.277690799786389 8.347285441975757 2.926493238493414 -0.1761539908891805 1.0408805187189751 -0.7765060648288047
Ni 4.980556257577527 6.5785506546351575 10.091329364435584 0.22307893757549324 -1.6534093372304492 -0.08409229976522936
Ni 9.038356872133877 5.2321280810753725 9.522869016617822 -2.0968210170948662 -2.17359570015276 -0.40730773505300827
Ni 4.63801566458202 8.476619421423656 11.333497728511094 0.361637486709403 0.469870645386894 1.4790823722476785
Ni 4.971930305976898 1.5334195649362508 12.338773132026244 -0.09355138829560017 0.5920026735336643 -0.8748114228696224
Ni 3.5448974774484103 7.755790301395417 7.113688656515359 0.7248896262040935 -2.6850171723982466 0.3454457074408889
Ni 2.486743884730173 3.6878799978370487 3.8608745630789025 -0.13314894808256422 -2.2807117145066718 1.1784260532073383
Ni 4.406976554936956 4.261109501587851 8.760529347663605 0.24497779453111357 -0.8181651351304876 -0.9944407391991971
Ni 2.533900929965665 4.952263873588284 2.0835221183219037 -0.6084592764277909 0.4206749003885335 -2.5306982751062868
Ni 5.989470043242173 8.54006993079367 8.91871971562848 0.7256056784345117 -0.0380186453356184 0.08015362683245551
Ni 2.7681655557007074 0.060398249572868726 13.23375523836065 2.315890062180018 0.5018592824783487 -3.087126393969451
Ni 4.801282073296497 0.9684658138963088 1.0325024456186738 -0.6134307615004533 -1.766960308576428 0.8466629854598645
Ni 7.704237338517297 2.7127235419940976 5.441300034782429 1.1490326876468855 -0.9539476641811571 0.32540987183593634
Ni 9.159783729281198 2.6599817460428135 9.557790296959984 -1.618881735767225 -0.031162284535417303 -0.15657838275009808
Ni 2.83474942355813 5.734949176462062 4.810538382898711 -0.6333534685663093 0.7349485531019924 0.4298704508448725
Ni 3.653763253365329 8.307768261993386 9.252822358532603 -0.9617198519274082 0.48493653858108093 0.6347850588065131
Ni 0.12273549510382765 4.451737502505607 5.578529156042571 1.7721845330898445 -0.27350598387779346 0.04303692448581621
Ni 6.166799702108959 4.301115116863847 10.314167369027869 -0.3390670576080548 -0.41008169825371954 2.4587945469874493
Ni 7.18251471884333 5.082224524733665 6.095275265177713 -1.7038618374540462 -2.413683513581424 1.0697036135982545
Ni 8.85237361438569 8.592682706101357 5.241027740755636 2.177758316170882 -1.94983516312921 1.0784129684467945
P 5.963398657474885 7.424677251118692 6.973680983537707 0.7178198638415058 0.4956924915460044 -0.4964759066792483
Ni 7.011488639992389 2.057400045873203 11.11606845361369 0.6369123895621611 0.26363783283446207 0.21875871293358454
P 3.193915248057415 0.8814994490782962 10.91061598074639 -0.7850410988830092 0.14713472083869497 0.5082567013642603
Ni 6.942057102215528 6.689517623890691 2.477498634040267 -1.0282525455423195 -2.2438588073443806 -0.8452522211552669
P 2.416787048618658 5.004729196731856 12.424598585724429 2.261883783166892 0.4607571131214 -1.147066050838818
P 8.352759603568465 8.031636437410418 0.6843061405533944 0.46411857339446516 2.795693907520224 0.7165196569728434
P 4.361404620465682 4.170988582033839 4.91451888430335 1.0002043811558516 -0.2504200485926074 -0.5203385722294587
Ni 8.24050242787694 8.339590282161094 3.032672620295393 0.1884873156435528 1.1343108080556787 -1.0099928280011832
Ni 8.16244493849945 1.5827515295924146 2.0426124369646876 0.37239601077748763 -0.36658711740519445 1.0591605479750856
Ni 0.645745556485709 2.228868481216484 7.352187002512506 -0.16581481374670154 -0.1340758307722078 -0.6635011957942831
Ni 0.2782459199859443 8.058601751922641 11.25657469922125 -0.2555555700469599 0.9113282868487338 -0.058258112310944826
Ni 1.7903273136229456 1.8196242154802118 5.1530439560052415 -0.05727749356523039 -0.8706961151496683 0.5225754319797775
Ni 4.081310018972167 3.445542366116802 0.38747848316109434 0.7911202151975536 1.5004132725149708 -0.7556950416207243
Ni 6.416380921391272 4.11911306754672 4.026887268349991 -0.32991727278798666 0.32309639321141126 -0.8935671062105707
Ni 4.673772814379501 5.732903277684989 6.541882987724276 -0.059652164444994035 -1.0231751310194122 0.7618078393866816
Ni 4.2490645029318435 6.228305686064728 2.84180132330685 0.9735093883631685 0.06257550873937609 -0.5059352523199351
Ni 4.854475441500378 1.5414188448393984 9.616760103693005 0.15909266453151957 -0.14738720316913326 0.16845327981081312
Ni 4.203547863022112 1.737124729658807 5.089892037267557 0.03302941965114312 -0.22756731236415 -0.2672474045625914
Ni 6.8040418766054565 5.422737650472614 8.577400210867037 -0.12085984630256605 0.8428986333214258 -1.8095053810274904
Ni 2.506474827440587 2.3453556908660094 12.715781589959265 0.13650912280404875 -1.4030761919246932 0.5562090608738227
Ni 6.329328850002869 4.26174538904559 12.762154373996879 0.4388757396672764 -0.32880552778104666 0.7605536552646063
Ni 7.276662925629687 6.289866964582041 11.474085072808917 -1.507959203183029 -0.38204227561800014 0.4129091404001856
Ni 7.178736257137926 0.8298948779427359 13.491028852729553 0.15091527092704976 -1.905853872452253 -0.766215481536074
Ni 8.348584864172006 6.709801512216529 6.910380691059882 -0.6250878861234074 1.401793725667844 2.2011638395790154
Ni 0.6003994081407336 6.616187819525083 1.8760596881425347 -1.0545878410027387 -0.7753992049178711 0.3847139089128923
Ni 6.753539510396643 2.788836505957344 8.693075512037913 -0.08602345534967121 -0.060655151788211674 -0.29490630393044054
Ni 8.25576372686267 0.42483548893920486 9.635617392331048 0.30360820257981264 0.6371970106821154 -0.6618333211735569
Ni 0.3355651840569217 1.1808614405412943 11.714309530702215 -0.2759266775041441 -0.22733437041773752 -0.8385532118685366
Ni 5.850726772571792 8.859912106275983 5.038542742691118 2.4130929311852767 0.9828597192298172 1.2331275585152763
Ni 1.5709553564633487 0.3002181355908809 9.20213291239057 -0.19817677501717482 0.722081467331337 0.9947387300555901
Ni 0.8379236482787064 7.089896328259648 8.877944584371019 1.9320225604278212 1.448129118399274 -0.44588713798810303
Ni 1.306499900126103 4.979772917955676 7.590536974769513 -0.33235982079120824 0.32059908071085436 1.1240834739007155
P 3.154923366409698 0.8000818935110733 3.525828226324455 -0.2318533413340136 -1.1022532653995016 0.0587435365877956
Ni 1.4905939270215873 7.562075020791539 3.7215147580473236 0.26029719849700333 -0.21055098031181155 1.8628125770910628
P 3.2635495325599324 5.9893594541190875 8.424053646493283 -0.4371327888342407 1.0783918854008716 -0.2539074929205756
Ni 5.090749102971466 0.5836534501775885 7.100186646162707 0.38396443234137745 -1.8520393977349587 -0.4374014691145951
P 0.9469746609767918 5.2088582864262385 3.5882788257065763 -0.6797747361433261 0.7285765881373776 0.3330442484527426
P 0.7375492738626642 2.7432092769245275 1.4442220645599984 -0.08247481876646441 0.6232603459963654 0.6053582689049639
P 8.211924355319727 4.087585951707241 11.488315128221878 -0.6870296179335265 -0.6092678883720153 -0.22035048290073664
Ni 6.088926527936609 1.8285174241282964 3.1539584763107817 0.917881257475903 -2.7209609374827073 3.1024465692662893
Ni 3.869061844491295 7.8320322860022635 4.917000688540582 -1.2266748609113969 0.5387468995333173 -1.331614950659913
Ni 0.2972285429634833 2.821478728787931 3.825360709352209 -1.1003416501990855 0.11364378817010105 -1.081249923674957
Ni 0.6937992951942155 0.739786860453084 0.4904673687620708 -0.9622037335423622 -0.7890921290239313 0.37747342530039507
Ni 1.2235949208533867 3.2997029600484673 11.290996485357478 -1.2774798593784062 2.0342221113167223 0.00041009095422510025
Ni 2.879077230394698 3.76868378377115 6.530620407114095 0.8500439861169553 -1.5438173505322186 0.13345696624128628
Ni 7.9147805973506085 7.375207050058673 9.613725353840348 -0.3892416215799167 -0.07745448273373758 -0.9297517836612439
Ni 6.957622521289741 8.818441185119113 11.440769177903537 0.42711602802818693 -0.25076483352653584 -0.3308978915337011
Ni 2.0434289533234655 5.255102971396279 10.089670527589307 1.4710265918227374 -0.13668704314280974 -0.556247627421242
Ni 8.448474489598526 2.76976909798544 13.359141186114416 -0.24035417971617318 0.5903517681938026 -1.027072409191289
Ni 2.7063185886154253 1.8473913011348018 1.6727526442630845 -0.49131544552423123 0.24997499063538883 0.509485945785671
Ni 2.5023461668454137 0.3166968365065705 6.823961742401141 -1.3082253680913793 2.3860302706405294 0.4546206612063589
Ni 0.33491915926290017 5.809900954632916 11.679915391846755 0.9529485334926815 0.7388036651820243 0.3074622862185801
Ni 4.46575467385663 3.282377330765152 2.6844615700137022 -0.5312235945730786 0.6377343712428243 0.5273851946635949
Ni 0.7379123748167932 4.64531454670563 0.08164242011749581 0.2806685630645037 -0.9431114927976015 2.35323173605327
Ni 1.5057262053637173 7.3910765892213695 13.424802556370103 -1.8811928793704633 -1.7629406458940735 -2.3492457548223284
Ni 3.6899811911756637 3.534686415083563 10.873482917942527 0.9393486833210597 0.2716468191818676 1.9902745020911785
Ni 6.2151640119381275 7.563291501145473 -0.019585333698352192 -0.8020201499395091 1.1682935927590268 0.1700152249812943
Ni 4.678196379302901 5.917412013792043 12.691718318351997 -1.424705854379327 0.1331630891499513 -0.2631310684013727
Ni 2.2820802809408796 8.40161234869126 1.6502265614666969 0.2857634610889078 0.1214486289265005 3.577215423285749
Ni 8.35264901444538 6.378504146734662 4.641747125910113 1.1258989298428996 0.09584558364641557 -2.3482275979704594
Ni 0.1481193851559363 8.831131286993115 7.369249061052469 0.3904562107133082 1.167977861290821 1.6216803815582843
Ni 7.30811631538711 0.9422469759649085 7.361305075710863 1.1191145599312144 -0.2697861118240451 -0.6125969527452482
Ni 8.032198598786099 6.102289380309379 0.33103840261864265 -0.20034987140909366 -2.674695992977897 -0.9378903536079782
Ni 2.5984481148062724 7.223755245993775 11.344341913605602 0.1307907322630328 -0.24587048154871202 -0.14988220167684507
P 7.8311014942162975 0.8059385091544493 4.488089990415696 -2.143184177740438 3.1018852974461804 -2.270601622655864
Ni 5.683608176069854 3.0445738530913893 6.300498265614611 -1.1819430652216611 0.5724466057786076 1.597755238201255
P 8.290332043586986 3.8025793499967 7.567674516723742 0.5089380437020009 0.1621435355427014 0.3601267064918314
Ni 0.9554162973722796 0.5758228186871452 3.052783252328399 0.1141847482752356 0.7012938411620245 0.7024773199471643
P 5.791441786837979 4.748438903982386 1.7310616809856725 0.5198009545584338 0.29868454002595013 -0.6685086763112035
P 4.225223331146771 7.897335163183951 1.096803569660417 1.2006822935023773 -0.5895639821851847 -1.3059121465771704
P 3.907611369646672 2.0233570274835393 7.686235272431111 -2.266518196615109 2.6727512105467004 0.3372451739079676
Ni 1.253389473764535 6.9890666952869065 6.224101456235447 1.5053287075387172 0.3437652344146725 -0.45709226267530306
