# total energy = -340856.21660924837 ev
CRYSTAL
PRIMVEC
9.40565952663392 0.00000000000000 0.00000000000000

0.00000000000000 9.40565952663392 0.00000000000000

0.00000000000000 0.00000000000000 13.76613345586422

PRIMCOORD
 96 1
Ni 2.1388470229926857 5.609206265906038 10.049553326197982 -1.2339335993563394 -1.8250024482218246 1.988679132579601
Ni 0.9459648218578116 9.10792357291052 4.018540843963317 0.20337863093308842 -0.4825839791885044 0.9302487779023205
Ni 4.177307439668745 8.527472093887004 12.020656991837289 -1.043387858521861 1.3446666416375486 -1.4311068728096643
Ni 7.544552434943272 8.718943109045588 6.120560946842434 -0.9704914274724512 0.4237008316990509 0.9985516760437771
Ni 0.15061188871802805 4.994743921292629 4.849038024690665 -0.1693058576190955 2.0563096872443816 0.18473556191060445
Ni 2.0673828203510918 8.962361582902451 13.551382025441717 1.7683672162262836 0.671360801048018 -0.8252986608514753
Ni 5.585748550535134 7.124251124171718 10.414878555837644 -1.9856051216399673 1.4629517852344032 -0.21390524149602516
Ni 3.394022908530728 5.317470918007339 8.374806009083569 1.5368046666598114 -0.38723976065853954 -2.6938615101627543
Ni 5.901430708110786 8.084183350731132 1.995442691327073 -1.2511749029352903 -1.3294680795202392 1.5761695416106791
Ni 1.995551796979961 2.9737592203981023 12.016622904378355 -0.7479933021010924 0.5645957422756213 -0.05005577900581056
Ni 3.364893580341598 0.500098927935449 4.259352068942548 -0.06677591997396887 -1.386164503771019 -0.07837750876863922
Ni 2.3168491334154497 9.263483779213404 7.990703320355506 2.53760297264592 -0.3514770012366334 -0.6176286016318847
Ni 3.6819771812172766 7.749219590705456 2.983974707432721 -1.2862231527886752 -0.22612646615256538 0.308975637539313
Ni 8.293205326949101 8.594581476072811 12.0319315561577 -1.1031963460390612 -0.524054073407833 3.1946023627659437
Ni 5.399563516145775 6.722921029079041 7.540082865438759 0.30103581386694606 1.2506277721825687 1.7797127231460899
Ni 7.96767544363434 5.975726014331627 13.426977126434176 1.2754206628565323 0.6288296125540267 -1.9211478224968461
Ni 8.096721095153512 4.132621150283352 9.692968776147007 1.1009911108576265 0.30315877374721983 0.03256199309642134
Ni 2.282123437685947 2.4233964468563522 4.968487081585565 -1.8408214175319524 0.4283642986129913 1.7226931112279364
Ni 5.361771575343731 5.460926040235503 5.833481400510935 -0.29564781008215535 -2.4978583457581305 -0.6923404886234785
Ni 0.3210772439977666 2.852717785310623 8.41566419495815 0.08640860660323182 -0.7117721149855291 -0.33946994947342823
Ni 8.602425796289065 6.4205478800237685 8.909620286522816 0.23421181426386117 -0.7638688356807682 -0.2565996950407581
Ni 4.358347578184854 5.719440597961773 1.9247121301445533 -0.5840643925231941 -1.049250230839909 0.5629692624157917
Ni 8.159212298411047 0.268660442878875 3.9862182942952678 -0.33288561138769124 -0.9488573941424433 -1.187053132754717
Ni 0.3450061829212304 8.520079245337874 7.614433665052017 -2.3481023852465044 -1.0796609819212826 -0.971610628678559
P 9.319381614999006 6.6977985119356225 11.356165943110874 -0.7448529566998978 -2.2305921721424617 -0.8515743067185528
P 4.929891897442433 2.48338574462525 9.889260191918098 -1.8408029055891908 1.3638828095546833 1.1371909578169512
P 3.7469608843037165 3.9135915521108338 6.315241173101481 -0.7132062763288942 1.442303255746116 0.9373064560800504
P 7.699143858293789 2.9634412116724076 11.447834443422169 -0.03278722173334998 1.044177187192376 0.8035628118362806
P 8.079781501976687 2.2508684303974476 4.511657950679912 -0.6481594232308903 0.7103585224674541 0.8862006385431705
P 0.1669570441998077 9.086760838514154 0.8362421576914815 0.9630064319493157 -0.16909605560113458 -0.42147991278833224
P 7.704053612673746 7.04350353537492 2.7939333525533576 0.7490978480191809 -0.43370190877582077 -0.3019727238589186
P 7.199120175636194 5.2827075996389095 7.706433244585871 -1.950397463390583 1.8003303993964415 1.5647762121720727
Ni 6.46993699927502 0.8325391494551041 1.8207918174667201 -1.2360493601477616 1.5779605720728307 0.7262605384096912
Ni 2.274401391046206 7.581102828660728 10.980983582072371 -0.7296783058419886 1.8018895163534452 0.45599645850796305
Ni 0.6531609910135896 7.3119974980765425 2.459746500021523 -1.9321459733795627 1.790916819392025 -0.2179722124765472
Ni 9.595465945104126 1.6635790367489725 6.314319418447772 -0.46044343853572317 -1.2108330087831343 -0.577718138590192
Ni 8.074288596693364 3.9790079155449325 6.510885479483028 0.14406508077443578 -2.019445210117864 -1.4943439263924394
Ni 1.2513854046661603 6.187014754544941 6.297496455451621 0.5331197831545269 1.0754723977612315 1.8885554903831214
Ni 4.425701507523687 3.093239315970117 1.0594375225591777 0.08199890757131038 0.0025222522012214627 -0.6956572117015374
Ni 7.677868255980643 6.113406061484516 5.349244177147056 -2.3982216705003987 -0.5148731782395133 -0.028411975483789778
Ni 4.384166114148419 5.286977769157109 11.558169416037034 -0.6273689688481001 -0.1565894384936916 0.045135973106690014
Ni 4.310980675775921 2.253370335886085 12.192719428139473 0.0009767620909725114 0.4708209251153052 -1.2622080208210005
Ni 3.3470322325110646 3.4710552617334995 3.2164713292091136 -0.4038601428240399 -0.27475733978639133 -2.400986120619413
Ni 0.34188538502224647 1.4230010721310882 12.85619278448292 -1.1899273689787184 -1.7824026112734273 -1.121025146690366
Ni 8.612536880500663 1.4218912042827452 1.5491996304494686 1.0151100946230907 1.2801661479613178 0.18922573647147412
Ni 3.82844211455959 0.6972086361031984 9.55650488079743 -0.7441723856931055 0.27738192189343197 1.475252199868311
Ni 5.01418541995809 8.236931264774233 4.820804115307994 1.9708158791459351 0.07603883333313355 0.49952343525632037
Ni 6.14053198415079 4.032234543966726 13.188245492821627 0.39703874902683234 -0.38450230712271843 -0.3582981379235249
Ni 5.32919037003306 0.1888976266559864 6.950465571006683 -0.8065553188057012 -0.34185593320710156 0.30785335100941175
Ni 1.378164292189988 5.378673545881628 12.433792130459247 0.8338864025204864 -2.1000025001466414 -1.3079106650644376
Ni 6.432239115070294 3.5365280591259887 3.873280775632636 0.40777387605614934 0.13564214681806316 -0.4501685389722763
Ni 0.38801826487437713 3.3476624117130904 3.6996899196240483 -0.3310187333822815 -2.275917635552138 -1.6778749264719812
Ni 6.596349066069311 5.731018965091518 1.2920159735752361 -1.4275844614787028 0.32021547211919044 1.5109134007153462
Ni 5.158092013853376 0.6810600589098117 13.625512732617253 -0.018598588937793776 -0.43908991256061153 0.03509710081344923
Ni 8.859078033388455 3.5764927073260586 13.438348569049824 -0.39138360762358404 0.28150391448160555 -0.2723867826716857
Ni 3.4644807055810283 7.113876681487634 5.8089363908750435 -1.0924877013723058 -0.06433388619137953 1.4553454336420548
P 4.54637612188163 1.7008348549463075 2.9352703202099386 1.4461146590724063 0.869509808151051 -0.5614610533013815
P 9.005166740341501 7.612734062338497 5.105061023154004 2.5839154825592145 0.9745236885602959 -0.17061583467977068
P 3.972452170711925 9.186112822260293 1.3942065854284063 0.4814706915196676 -0.6928385113058196 -0.9125004527799639
P 2.1676095304522796 6.010931398707448 2.8118153928353 0.8867182016095374 -1.7720186969359417 0.5294839861741527
P 1.9169110759630665 0.21144675529680723 5.831265427078143 0.2842871336536975 0.5927174402125017 1.4727626006772379
P 7.425702518573282 3.7684810337698877 1.3759511404551148 -0.05755028761064282 -1.071230591765742 -0.02265887505009646
P 1.3848046879605809 2.3170936805684743 2.2073719569681174 0.05681032412082474 1.578129236440211 0.8035445570038355
P 3.801532522067145 4.928838463552481 13.588811848344088 -0.12172836495044843 -0.240645742814663 0.5902599798109447
Ni 8.955655347513737 5.356024717247652 1.6884024539129228 0.46001817807284645 -0.5663281515856956 0.6068502800694582
Ni 6.004780097242905 4.967467508070647 9.67518267359433 -2.666433238748472 -1.605931346254144 -3.1624897985021145
Ni 0.6449536123316925 7.262909359936707 13.13962293483851 -1.4144409821182091 2.0212619516116286 2.5372191069439403
Ni 5.324591002424249 3.2191810997778214 7.697733009334032 0.477492680708526 1.8042302486714799 -0.552626485728887
Ni 3.3133975933104414 2.229320063952082 7.52280654964354 -1.6245124516904408 -1.2954032766260464 -0.04148294973513501
Ni 6.980927681179799 1.828356789588941 6.55763537061356 0.7925870295510673 -0.4257474298154345 -0.2087118702205438
Ni 2.3809581101468402 6.821003248761397 0.8228005293688833 0.752143319713724 -0.8600805444173509 -0.20222523405493562
Ni 1.0690566907668058 0.8472401956157795 9.782489964341554 1.1017344167815541 0.301433563525997 0.4415833684064266
Ni 2.0501610573823164 1.8952780585801148 0.34176311144573407 2.2784987660157534 1.207233978577966 -0.8950593744853811
Ni 3.087624137110281 5.105147555223535 4.6317804528116024 -0.44795893291546723 1.494893628248322 0.6813353957622266
Ni 8.27299256418564 0.9311396209886776 10.638990972529182 0.5591902549893337 1.9766707952648155 -1.443643057603462
Ni 9.024532993729107 8.2724470359212 10.102373630119365 1.927801837478254 0.872379159279046 -3.4075650378430407
Ni 1.6283266240744931 4.284183951200257 0.7734725469058878 1.148523609220951 -0.11156016616819496 0.7585510230122807
Ni 6.7467173482002885 2.270272306423982 9.128033813982906 2.8887760694888893 -1.6222154281261483 -0.1513724130691264
Ni 6.084295544614848 0.25719964649577653 10.940249550906247 -1.361074907792243 -0.49532842333836635 -0.7235590803181281
Ni 5.9188405842741965 0.841194237540231 4.498993229851153 1.5071145957945464 -0.337615926983825 -0.6239380887896803
Ni 2.0428058314721125 0.35072576460408816 2.0957013806713487 -0.18870277408846856 -1.8708436749256554 0.36862034578513936
Ni 7.041029846865477 5.763402651547824 11.294038738884954 2.656474584873864 0.14061517455262235 2.6300739833931477
Ni 4.622844135500497 2.49285724397509 5.106988242833033 0.5074403761105519 0.5249233633866637 0.8135978274747795
Ni 4.595276146826832 7.268430482199225 0.008775480529692946 0.5828968545776542 -1.1433605769627728 1.1170666762632504
Ni 6.842250634095349 8.238577255227282 8.841505439311687 1.4883992787732303 1.5562121246521456 -1.0226465122094517
Ni 7.273359047898645 1.2877006568903238 12.579313676130468 -0.657660677853106 0.8201487412194197 3.4487546247074734
Ni 2.7634956970955455 3.026515565833309 9.74424749243836 0.29452578066257024 0.06375281687692891 -0.07667749535839698
Ni 7.603018015835631 8.380884886968179 0.5852370786950145 0.1622461225588367 -0.28823197723405847 -0.3910987293933136
P 5.3845050549152935 6.32140282079173 3.9601721413661943 -0.025116335451653517 0.05268010400253508 -1.7302845504219493
P 8.467003107471788 0.6730887622871806 8.50283114652185 -0.2589995627315023 0.28562796395230805 -1.1870739586903234
P 0.7932761634710204 3.927069862506386 10.24365510438353 0.7994498181091716 -0.2439210711318251 0.7784377346338787
P 4.641533181387421 8.381486849191008 8.757064247938242 0.5203935938371103 -0.556983477146002 -0.5217699053593464
P 0.8201076889876925 3.7403675168317827 6.467728550370013 1.2727999374042336 0.5145654171911073 -0.07765117212557594
P 1.7357110412315182 7.001272123179506 8.553601016621718 -0.3857822022764066 0.6804043993075249 -1.5162399551345822
P 2.455131142791169 0.6468497933336067 11.57700142795188 -0.1263316680504147 0.4290824077259385 0.09339403678212949
P 6.264319871879932 7.939853502147918 12.514365714551008 0.25666757216421604 -0.1854834958202225 -0.5478354920981469
