# total energy = -340887.40092073777 ev
CRYSTAL
PRIMVEC
9.13096740079397 0.00000000000000 0.00000000000000
0.00000000000000 9.13096740079397 0.00000000000000
0.00000000000000 0.00000000000000 13.36409376339518
PRIMCOORD
 96 1
Ni 6.614427236283091 2.472939940781686 11.391981383502651 -0.39503714521577127 -0.9683576689589 0.5532803172628019
Ni 4.762420481606995 0.7060621096439785 5.900407488421813 -1.0320300103068807 -1.100872068781259 0.5377768223105641
Ni 2.9636290057954104 2.0645665482050877 4.792377359935528 -1.0205448924854166 -0.8765965397945032 1.1912491731139354
Ni 3.4317919738704337 4.636559224937738 4.851206357647997 -0.6866133563317144 0.4816483547481124 0.2300232301038103
Ni 3.8022261962888226 3.031417308865097 2.8578312241174015 0.7632635979966017 0.501613999236762 -1.0285479652955514
Ni 5.420617146272309 4.974395893212972 2.59792645075993 -1.3730948150712547 0.20663827552096667 1.1535557723282197
Ni 5.646754688543842 3.1748648090300726 0.2788013106961994 -0.7426960582578951 -0.09508787954478463 0.2603226524183001
Ni 5.969059581021455 8.320484605686305 12.694365982422516 -0.11293159259442485 0.1324030710554752 -0.34596918404452676
Ni 2.438799253123071 5.341616015054781 11.507166712915838 0.10372524350480847 1.9531336313748233 -0.01441463276343324
Ni 0.2832544835689212 0.5142524398657764 0.6616591275591754 1.3617117700452934 0.7013475772180953 -0.30764252055018626
Ni 8.271177380931954 0.23815754795053815 6.889992532080597 -1.0496487518299085 -0.56304973794474 -0.5201904766873687
Ni 8.716686418522615 2.7199417438983473 1.5089133883839951 0.33208239876010553 1.1604458145798338 -0.21085565603642395
Ni 0.7555893907162156 0.5251456841494694 4.626849354048149 -0.3956516388713186 -0.46161637579790177 0.5200475233516012
Ni 2.000238881835753 6.799256281371533 0.39226453963000063 0.48505789465029364 -0.17575649834044568 -1.679977574637281
Ni 7.765111766568909 4.225647423383045 3.8632256249872388 0.5786864160407325 -0.25959888687839805 -0.6253298269308843
Ni 7.6740668891567525 4.3370452274576925 12.621197713274078 1.9103437899028068 -0.9531503650908422 0.7525143298998975
Ni 8.094219229869113 7.895027172829079 8.752947316845669 -0.40174412492230166 -0.3494255180242434 0.9172189413015558
Ni 7.045591523857256 1.0572382084087741 0.8386821084916002 0.2367641483720697 -0.45299443845684567 -1.2270175889627963
Ni 2.1231051811495596 6.8748332997588975 9.432872031886067 -0.5486600448819713 -0.28681272828902865 0.47308143901470784
Ni 0.3944048384230414 5.259528616806333 1.4751425049110376 -0.6987008836238676 -1.3390189564334682 -0.8375545954006929
Ni 6.441057555466261 1.969330556688812 6.901538640543907 -0.290176502554939 0.5858543945440813 1.6969802798428646
Ni 3.3530191168415833 4.4941161312029445 0.44464707425421646 2.46818190173962 0.9582804872285561 0.09825830685296626
Ni 6.423717848094315 6.16323873687813 4.624150240041226 -0.5109265348869395 -1.1303047722200792 1.1628392545126747
Ni 5.543510838488757 3.188698224863932 9.101162242834938 0.2711508533820556 -0.42790329981617276 0.10472694529644543
P 0.36165023163807647 5.698992953880813 12.417061237307287 0.20727925153907528 1.4003161126810528 0.7587153165042869
P 4.028354607592808 6.485625808063666 12.884657172297636 0.08888560738881465 -0.18254163958307917 -1.0360059642354933
P 2.5040217543120216 8.977877745207474 1.5342518233272036 -0.7453604924639358 0.5231261622769248 -2.650785504908886
P 6.537380132120642 8.081262386919775 6.042000489077972 0.9062704127098521 0.11858442000482805 0.12025846527314127
P 4.800268342089733 1.4254170818430285 12.698414653432902 0.9483519152609344 0.3682174539197658 -1.3785797494452259
P 4.115728836051029 6.392553855856055 8.268886421174384 0.7686842547915407 2.6758730440051335 -0.66231128925124
P 4.743811569746001 1.19160952683193 3.731977097465192 1.4553562322753322 1.065193384432727 -0.2886538952628254
P 0.3419912585091654 5.95199380267592 3.7036847945204956 0.5820969843841781 -0.28697136535407997 -0.021842549796388187
Ni 0.9700465993014953 7.621225979961672 2.243176491297199 -0.6625154348422461 0.34532975068831495 1.451624276036726
Ni 2.145649540023355 6.854115134394523 5.008648891772417 -0.32151310788469145 -0.001924470716222492 -1.1410527547652025
Ni 6.186477049285505 6.162398687863797 9.13323567944089 -0.5089408719154783 -1.155663562699842 1.1893090186684292
Ni 8.782511563569676 2.581498013949184 10.28564778878662 0.8032558221188231 0.2804533617299041 -0.2701445236047283
Ni 2.344092857724527 5.739963605264661 7.281921052104864 0.035901856102931715 -0.5382190520543053 -1.4711183802055954
Ni 0.7574183235159001 0.2707432318358817 9.353502922676391 -1.6089562491233966 -0.36919678711389964 -0.08233186543069691
Ni 2.03645229912756 1.5549489874662203 11.618864012726029 -1.0739150805764406 -0.20989612033663205 -1.1575152711966001
Ni 4.3004026546911716 7.3977820731165345 1.6372619206130823 -0.6280477400826797 -0.042761045116610226 0.7654678047367721
Ni 5.577770228725485 8.489498814983166 8.432997300898453 -0.6663474069938266 -0.6704845690906517 -1.5466177960954912
Ni 6.959906524395249 0.9012054956736277 4.815083336934906 -0.3529785254828243 0.31204759159641743 -0.056668142116005626
Ni 0.8838192203671904 7.750821802357693 6.909383967860378 -0.04216532051414028 0.6625010366645429 0.35960194433661297
Ni 5.1869648177095105 4.876813243037091 7.08072474768824 -0.4590074774201449 -0.2923989641275545 0.12282674022094973
Ni 1.2723364109158604 8.502537836640428 12.133033360787127 -0.010788348864755614 -0.8472831355423666 -1.0569432286087928
Ni 4.620013911742388 0.9943623658794284 10.519987679205714 0.269804109546174 -0.7996436792875325 0.2463736464373757
Ni 8.621687832162564 7.461032285315311 4.986009570836131 -0.7756380604015545 0.6694265601397825 -0.31579137490956577
Ni 7.395791522191266 6.216335313164529 7.150391290782367 0.18723518840400658 1.055198478003544 -1.085564491889911
Ni 2.5127418283195047 5.646261616296298 2.4803223280435183 0.6743499655833289 -0.13434322550098152 1.5515386304358763
Ni 3.8329519020848215 4.7358219731422855 9.409752422056805 -0.7274573869312698 -0.9190876190791784 1.0282864841040484
Ni 1.159176330104623 3.6656725766219096 3.745968479037617 -0.9654453804081117 1.1476180666875462 0.5177831527974567
Ni 1.5240497932868264 1.6097621856514748 2.658105005475862 0.19492587218004492 -0.9877746400329311 -0.7929796370037956
Ni 1.2979761677881234 3.7495131206394015 8.139094282976101 -0.9666571413280255 -0.619002856271592 0.7037070785892074
Ni 5.262331823843292 3.3071086120147535 5.107222251927158 0.5480362952550433 -1.233429406026411 -0.7599293914170461
Ni 4.516833978460134 7.287005174835091 5.838572576192837 -0.8178157222108688 0.0020113740030739554 0.9060793797449687
Ni 8.599627414568767 7.5401155952407635 0.21552096630451711 -0.8200263567089425 -1.5082050006452477 -0.12268173000265324
P 0.35713588128278906 6.296112576623561 8.310047909779968 -0.6508017459497437 -1.8301641949284224 -0.050908099703776834
P 8.586944500645842 1.930752218802305 8.138506248666067 0.2686820801265889 -0.37304675698760914 0.22680575160777713
P 2.1117553884885116 3.5323878433368585 10.37433231108785 -1.883645197565698 -0.35626285266105095 -1.5740311551114377
P 4.13557955949843 6.465473762687212 3.8323273439045997 0.39297100671536195 0.17226468313710333 -0.5908451628904533
P 7.179177579071361 4.3219517381023325 10.369013522491663 -0.9363065540606262 0.33426937910909527 -0.8616329765061354
P 6.356650891460848 7.994993005534753 10.473921947930585 0.8989422544795551 1.3193068227165212 -0.6289355420042717
P 2.48861781206006 8.891590101887358 5.880375058720224 0.8950969125915359 -0.1782018745571447 -0.9880662031314208
P 7.201986736004022 4.478949594107207 1.4093502313471475 0.8822943615102289 -0.35989839253110917 0.6593282953635161
Ni 2.9178098106440515 1.8202675114823685 0.39023563864103455 -1.261065165465809 0.8058672915997412 0.870069794419579
Ni 1.3822823911505178 1.2107571657782032 6.987055630203048 0.02003223606052679 1.4776993758572228 0.2834841781364279
Ni 6.994668117847067 0.8464452571001465 9.472055752920948 0.816268175218091 1.0832574410232891 0.27254079175104673
Ni 2.6552853626973167 1.611752736576743 9.153014268244668 -0.4413051750443754 2.652478062119961 0.26349436527806236
Ni 6.3257151734112655 2.7643730319825464 2.490065070416276 0.022329002514503482 -1.4935725954440535 1.3503436374176678
Ni 4.228541940095477 7.319940574777488 10.501611607017171 0.39550457177049303 0.0010883479681723192 0.8990759518439418
Ni 7.27566451314159 6.358212286911403 11.439704385387582 0.7767030113309591 0.19297260510841605 0.3633719529020064
Ni 7.673765567227698 3.8629379995095054 7.877625374877811 0.3575491755726423 0.7259651186564594 1.130902553705078
Ni 3.5521472571087878 8.71528938048791 12.873605049178622 -0.1519848498421447 -0.4893956027936991 -0.5226571930603063
Ni 0.1275084832147538 5.222347316954531 10.232084620058563 0.3494144622806498 -0.6828549177305465 -0.12658286482927233
Ni 8.53785641911262 2.482609635414067 5.7589487129885955 0.9535056915477321 1.2128531245369565 -0.3228588232793084
Ni 3.718084330342276 3.250478351287626 11.621536646927066 1.8804025222586842 -1.1662328535752562 0.5431915655682322
Ni 1.5218400991404277 3.6604131393147785 12.828474328980317 -2.9804443818291637 -0.7449504015097106 0.29547888860445887
Ni 3.1054238008343606 8.698387959558223 8.114944700007525 0.6446534669601607 -1.2251041739901674 -1.5924932184713672
Ni 6.1309151117613885 8.210082077074292 3.734529202894607 -2.034749701685418 0.4479751308653834 -1.0847515090703124
Ni 3.1181888934652093 8.859978692239292 3.4565423745036092 0.6684729379772616 -0.7634664580360272 2.261073114340138
Ni 3.5046388329612155 2.996792679926486 7.131521233249525 0.019108695804992897 0.513749091937399 -0.36444975934721746
Ni 5.395716997771362 4.771277520127684 11.970031893620032 -0.6232384916194944 1.0311728045129078 -1.8848001371057475
Ni 8.211707389297677 9.006895960072164 2.6922237788123637 -0.3333882620557226 0.35159090110667834 0.4970518337873762
Ni 4.761863492586622 0.8105285962536201 1.3669058418011977 0.31269988046843566 -0.9951573056502473 2.2249156905829746
Ni 5.925413556146306 5.9872210754726405 0.548848762804992 0.6674830632601666 1.2213873872602126 -0.7286958873240612
Ni 8.169631890840629 8.961049372018165 11.613424695358221 -0.5328233349600308 0.8774491176027857 -0.28858601813936746
Ni 9.118001573185305 5.061824907476476 5.905232291673701 0.9101795179562712 0.33059527269161776 -0.2134614690903872
Ni 7.654800547632367 6.376492483940702 2.4746428662292206 -0.5425163938780786 0.9873051565956803 -0.025877896208026403
P 8.275706340835315 1.9728551101619933 3.5387986956516793 1.152566411831757 -0.052191594401890765 -0.29957285616817436
P 2.0085298003685215 3.527785835693119 1.7376797362123388 -1.006617226660731 -0.1030367020782161 -0.8229818397928407
P 4.501767882007416 1.3839716201467318 8.175751465290698 2.0666874309342798 -0.055603191186601016 -0.4753254978538781
P 8.751091904240097 2.008685026816822 12.486059393576964 -0.14293456671441834 -0.5642167616696476 0.30997373978652426
P 6.37561591105618 8.09605455434608 1.5095680787571224 1.6699253326076013 0.1364417599012231 -0.03736121425727759
P 1.6306264464966032 3.6473558557224224 5.871033165822785 1.2119498959963966 -0.8628051424373657 1.3301494218579804
P 6.930888309530558 4.412494412299397 5.8684144043302755 0.6100171078332138 -0.6159265313391135 0.4633631832856794
P 2.6048732908697656 8.860882658026453 10.24969916955368 -0.09098645578190137 -0.031489843078165124 2.561831763286298
