# total energy = -340896.61022421217 ev
CRYSTAL
PRIMVEC
9.03688937979110 0.00000000000000 0.00000000000000
0.00000000000000 9.03688937979110 0.00000000000000
0.00000000000000 0.00000000000000 13.22640107010758
PRIMCOORD
 96 1
Ni 6.382257929334894 2.1050078241539745 11.51190268325781 0.037442461117174225 -0.6793654165200493 -0.6663114115495685
Ni 4.4252020578589155 0.30838023481282206 6.117832220702777 0.3440925358471042 -0.549897259723182 -0.4862650275845174
Ni 2.8839876873865182 1.8250901760840434 4.7464526305048675 -0.7015913177977852 -0.31101400812558044 0.6109051668651221
Ni 3.439801567759112 4.51204656465317 4.911491533593537 -0.571415593410932 -1.3345686339715983 0.01565956091412787
Ni 5.026164237497284 4.280178057335065 2.5676540862438704 0.6879824687650989 1.827058045199273 0.2807603514473616
Ni 7.009092723224247 5.945080332541382 2.6125981518100043 0.7560097446476657 0.6294705885721352 -0.005483648822390556
Ni 5.135835926826636 4.341412019669911 11.465345532940088 0.0754572497980507 0.7246852235027713 -0.24495311194076522
Ni 5.589596215604276 7.781909427910101 12.520018298464588 -0.043014812998629144 0.19296154936482252 0.007992017066541074
Ni 1.8879869260619841 6.492742938707064 0.4337173718557892 0.2510669381479869 0.4006349510185229 -1.0177390476055055
Ni 2.720736281014176 1.6761260917972076 0.442803060423005 0.5798796650178852 -1.3301059702145543 0.45195468433842156
Ni 0.4097903998850142 -0.07620628063419252 4.686246162490781 0.4207818582800431 0.42178793094705425 0.016912459484622486
Ni 8.684116314518967 2.2190262572677213 1.2878019189089749 -0.6541691197600799 1.2249740761702064 0.25844343311771617
Ni 6.7485592028414825 0.6043916791522522 4.775432127319416 -0.06218315839696387 0.3858979019186644 -0.2483215141923659
Ni 0.7146444404677512 7.395591444460821 2.4397152287528217 -0.33294963185640725 0.6615543564805574 0.2974964332551199
Ni 7.512230575490316 3.967736644441771 3.7805555550318446 1.020801745691229 -1.3746279638863295 0.5961172099226701
Ni 7.721931593196941 3.915702235480136 12.474440746953993 0.9285256245636266 -0.25427053268694916 0.3798424397532039
Ni 7.8233706763151005 8.74289224294663 6.766415192537088 -0.09771708963751558 0.5630674785565528 0.9107708716833669
Ni 6.893086174450277 0.6702543362196702 0.3079889375033329 -1.234616484355977 -0.3334725942394128 0.31736848958869857
Ni 1.9935829782878807 6.454290974460492 9.32114743067845 0.187052125858923 0.05295598337174105 -0.887305441571575
Ni 0.10262381931386415 4.863735188057126 1.3493313875260449 -0.6802853572311574 -0.20092477007595722 0.3122872184110493
Ni 6.353394104704212 2.0850272617687406 6.990298704412591 -0.04038843111937561 -1.0578922227856233 0.13092597228931646
Ni 3.5278570177282296 4.308879217957183 0.49861940758374523 -0.5074190359543133 0.7725131416193277 -0.05557645171372365
Ni 5.724363346699251 5.370614312520157 4.762800363365512 1.063206178799369 1.480592895354934 0.1958913214171078
Ni 5.449000290869102 2.9939666309542683 9.140077989545835 0.20518200269041437 -1.0338737483838387 0.1561515796253246
P 0.3426146827929131 5.604714931511329 12.395849631216471 -0.7944369382756125 -0.6046910676346102 0.7265888682833874
P 4.125114072727094 6.056722063752226 12.577804687506823 -0.32523066594559474 0.43388599976216896 0.16121048220547074
P 2.4035685749831712 8.553795332991397 1.5313795237768522 0.28765039369897555 0.16957890877482407 -0.9625269212097357
P 6.218889043400811 7.563749881758166 5.799420135006261 -0.7165335409299143 0.4694243018780948 0.445903078827703
P 4.663613273077024 1.131969798705008 12.613238330705602 0.3843539544703123 -1.1898222108594219 -0.05744178705723656
P 4.029060975670264 6.1446961817170624 8.160729504253535 -0.958604703337194 -0.17829957647727357 0.01705181327596418
P 4.728091478693778 0.9986576067977398 3.777803822220309 0.34072979002245835 -0.686920603159488 0.7645764032707542
P 0.11781573402477169 5.648968578730004 3.5915896799724 -0.5828251207994544 -0.5216632045781532 -0.3768936415375251
Ni 1.457686402074968 1.3350287027286185 2.6825518086927977 0.03493126465954629 -0.39992841186980155 -0.19630295503322964
Ni 1.8058235279586168 6.489697506991179 4.6939040225383835 0.7335601573948979 0.958456350684788 0.6984535434997519
Ni 5.954008779233653 5.472685977893841 8.950609663437715 0.5307134877058794 0.4272132157276836 1.2693888548401557
Ni 8.666901040279315 2.4235943218152283 10.262946736971706 0.03309318300954301 -0.29635872010625086 0.15123434482936535
Ni 2.33314409616448 5.360095373299708 6.957933085153108 0.17061197802502875 0.13625946868708794 0.7913696122041983
Ni 0.6488387158033304 9.104033452626005 9.203975123176441 -0.39907403428930627 -0.08033540382595841 -0.2514567173872379
Ni 1.5845643287546074 1.048532199201225 11.41594447353931 -1.1272317897217103 0.31965522874034624 0.4297586078573566
Ni 4.2059942325406805 6.797909655661818 1.6128805178897914 0.34166644290411485 0.39492170268382953 -0.4791101617072909
Ni 5.529618380891116 7.735315226345983 8.01660105946572 0.3438606223419562 0.9925494357137551 0.051505624078459676
Ni 5.204913909129996 2.9052876356189903 4.8038287447699455 0.4120555341506388 -0.5510352299823671 0.06888910966222975
Ni 0.6955494932402527 7.399377901104607 7.0010914613807875 0.4161906393649348 0.3632845353945227 -0.22389217750540796
Ni 4.968310071784816 4.4468544447766085 6.988658508992907 -0.1337554713183116 -0.042114155561230694 -0.15333699299466494
Ni 8.043382784786788 7.260480911569988 9.00542020481217 -0.027032064417127636 0.4931740959995249 0.2592584728198438
Ni 4.596758365557368 0.17374504230256999 10.458141739870202 -0.3249571005692339 0.40930651065059187 0.6071086759371673
Ni 8.030857656127388 7.100003830232591 4.8135632819935426 0.1419997136049748 -0.34063054544043275 -0.7127000261164371
Ni 7.319536983567954 5.976031678615297 6.979902666887501 -0.27717700497147746 -0.38717702574140417 -0.3063184024221241
Ni 2.2388712663124855 5.557614664142791 2.48189490986231 0.6237288009923516 -1.6407574527943936 0.70721149219804
Ni 2.4502712192196654 5.089738754177573 11.383103513899249 -0.2839536615736787 0.4661093785722488 0.6038351473922182
Ni 1.115875098746572 3.613309843560328 3.717531384913862 -0.5298351988659843 -0.1710449517973893 0.38658284380083097
Ni 3.7261173334992126 2.525024368044023 2.6089870108198916 -0.6592989847874774 -0.5541218393274908 -0.6435049551780143
Ni 1.2559378470092308 3.437777304541431 8.096184425655482 -0.8466550150400645 0.6772789663046659 0.34884984802643143
Ni 3.7592556067993725 2.390636786302362 7.050517824071787 0.04752478505384073 1.015356920526574 0.4266133773601556
Ni 4.11495660908123 6.8468986329075685 6.036370988903042 -0.24362025206195465 0.45619597611327883 -0.693633239292973
Ni 0.8589500082871117 7.36925794885224 11.299168885480409 0.42190568747184115 -0.027176817525108032 0.22507179963580595
P 0.2247248462753513 5.675943693483474 8.154896192168655 0.2709215109800689 -1.1360177634444564 -1.2457691585386867
P 8.404632437138538 1.4652231678050833 8.01213051029703 0.9153721179008042 0.8903174889250215 -0.5748811833620292
P 1.6565883369908414 3.3572405465237 10.305151721371415 1.236721960734754 -0.7151006651381298 0.49789412718301346
P 3.9590341199836163 6.129984125831417 3.7236547811473466 -0.3289356256010077 0.9594678226684379 -0.7801724579367983
P 6.997317656382112 4.011927033434893 10.324475301899838 0.053616242663559285 -0.02764090164572014 0.2838513316678596
P 6.296787029724066 7.710111341907983 10.195055298241924 -0.4240222195942117 0.3318088333837447 0.24559074552476415
P 2.2262376949807097 8.476638371596044 5.816812532277459 0.7130687223097655 0.3849489077418338 0.7698844457472289
P 6.954817165700179 3.887019148636747 1.5801977038136101 0.7751564927794458 -0.27484629995577176 -0.42216562600144714
Ni 5.318597977337251 2.938922937834205 0.3963543527776575 0.6690203258402994 -0.7386172602028311 0.15826914018895968
Ni 1.6465393160173543 1.3217083278051294 7.054102758082743 -1.252074017710792 -1.076258898218269 -0.9090559458747893
Ni 6.817637185144841 0.7997592866376124 9.31180961289796 -0.23259587592699296 -0.8172256540353537 0.013246837707577187
Ni 2.6597914991389984 1.7076377250117305 9.283333470821022 0.94323644841124 -0.4736157142516231 -0.1306629484359169
Ni 6.3511168085843215 1.9381597358145026 2.5327102424486547 0.674079999751394 0.21686123880055555 0.25895842508092176
Ni 4.1838809642653905 6.7286418986818015 10.414733041807121 0.5091897547014909 0.264297577905648 0.18830399598815312
Ni 8.173306143182312 7.285739017344175 0.44150626679917815 0.35925124586541357 -1.017630032831467 -0.9743431971183735
Ni 7.755548821633427 3.7410643485083384 8.236463155573956 0.3787443215930187 0.11276601355083804 -0.5101444053052763
Ni 3.0558602862127335 8.258777042793142 12.476398137190378 0.7819933131956209 0.5412812359193968 0.0759025648655854
Ni 0.17729834720074905 5.038598997263038 10.200544304842012 -0.6385419547457841 -1.0111325980325812 0.4585001987664233
Ni 8.58606606491255 2.324152391246656 5.743525166908048 0.12157487009171965 0.35306851409346934 0.3067020110137879
Ni 3.4676622976703175 2.698171168270653 11.594408579468098 0.014527247081897562 0.06624010207515688 -0.7222359906313304
Ni 1.2561999168008056 3.359933539554365 12.84788748888121 -0.9116550740605333 0.2731486005383747 -1.3362933299721889
Ni 3.0028589300890807 8.357161657306051 8.064613148971153 0.46662179943229315 0.18202613339924134 -0.3052462524038679
Ni 5.538564901362116 7.797452877617293 3.6633028192144903 -0.5934782296379263 0.011099195236955078 -0.11692503002453412
Ni 2.824497844699049 8.519626854303668 3.687745797567987 1.3280601434291193 -0.19928826291379872 -0.004821846868675567
Ni 3.5862353230238466 4.2850037562557866 9.224793405205778 -1.196518649042991 0.1562053156813955 0.19499812017887708
Ni 7.156366909199893 6.060978438642975 11.239821825644901 0.34273885003268717 -0.2619658444486779 0.7127468201939725
Ni 0.5838707107830127 0.15404552717657669 0.4416617012962501 0.8070073187414554 -0.7886774100840159 -0.1507589478548436
Ni 4.661769747646636 0.26924056328560086 1.6623466428939944 -0.4993437151453465 -0.3600580580374251 -0.7657609104971586
Ni 6.110563850586792 5.45432301870488 0.35922538913407015 -0.5010319014810468 0.9333526136386249 -0.34158828136801167
Ni 7.9636322361437815 8.556940170490295 11.356122073323222 -0.5905181185683378 1.0674179028878714 0.1995335461553854
Ni 9.30926121009713 5.039674387097431 5.810490324477953 -1.2076764654320233 -1.177641866743146 -0.02349422646719825
Ni 7.942991980834928 8.948806804009468 2.3990311528331825 0.04852494418358094 0.07710892646886075 0.6644872138566363
P 8.507625865227418 1.6222662311839133 3.6285704386304074 -0.4067318079448801 0.9063997391988649 0.0333988871754199
P 1.945362136638126 3.4183841399648993 1.6666319358307096 -0.9165147161456796 -0.3252239810773754 0.44003145053827447
P 4.764446884607751 0.9544129964684297 8.440202537366725 -0.21382116642265112 0.6284308344537113 -1.5378202524085194
P 8.484608908015662 1.4526528546988597 12.373457123059813 0.399429360746196 1.352439343604432 -1.0540556226483524
P 6.39553311981156 7.703749371795272 1.4805894944807285 -1.3324029937788473 0.06661394047480786 -0.2719370967287768
P 1.8139205808293402 3.418311844849982 5.8948216723399 -0.08232620900374209 -0.9983123063394614 0.6168642126620344
P 6.855366198242241 3.9216033242352495 5.9700266656324885 0.8484753560782549 0.2875624619708596 0.22794269342569776
P 2.4775535882115336 8.461510618799625 10.227817636944515 0.0047706819157659775 -0.052323234883748605 0.4201583657634313
