# total energy = -340863.86551183404 ev
CRYSTAL
PRIMVEC
9.34612576646281 0.00000000000000 0.00000000000000

0.00000000000000 9.34612576646281 0.00000000000000

0.00000000000000 0.00000000000000 13.67899978008818

PRIMCOORD
 96 1
Ni 1.2427449892998497 3.0284718438717055 3.9167631464611588 1.0685206490337469 -0.29362615166643624 -0.6630589660505419
Ni 4.452821401808496 1.788128808878875 6.7854676444132425 -0.6196152930446104 -0.3323449083928728 1.6068098922043554
Ni 6.598308673267891 3.674438668322881 6.281615203643952 0.5013820857316139 0.49395468291929123 0.6623138603544013
Ni 4.803665614770368 7.257238574076404 1.567667722609899 -1.1492905692939626 2.2365843851701546 1.8925815808233792
Ni 5.2149325304360525 0.8679045985820552 1.077706428480776 -0.38135707662551743 0.9981930071527777 -0.0322190079347058
Ni 6.148283374290105 1.7946243662461066 12.464619434940193 0.09842131479339179 -0.7105940355170277 -0.4066546748500416
Ni 6.712976289582368 0.4448008147068749 2.8359715618840906 -0.9444456382279929 0.16281459346779703 0.7304216117659164
Ni 5.853637415211922 5.376321429166056 8.225264478920623 -0.05115389716599577 0.11776449520669395 -0.40873161198372826
Ni 0.6038335551458291 1.8281489191615874 0.5985670133092322 0.03745711640519356 0.750221677210979 1.1228074354017696
Ni 2.7630792582603334 6.3718240089799485 3.0832597673860183 3.1627127131461985 -0.9751512948419656 3.135323779610284
Ni 3.0696695659936566 2.520799641525455 1.131229821186763 0.9117561184147718 -1.1996368829569983 0.21536768497416459
Ni 6.118244926263801 7.798612905726592 6.767411864157481 -1.1184512153156028 -2.82190321892574 -0.4392765746501208
Ni 9.250496149999877 4.2750580908376445 5.633559520096982 0.8530516625950276 -0.11440663447805459 0.5284966825602188
Ni 1.0387844879687829 7.930841892246866 3.3549385571487567 -1.171445508124447 1.0267993580355608 1.0774639742699639
Ni 7.303829010732014 5.477782969854782 3.026259615916563 0.38101074902969223 0.9659269480302204 -0.2013240623969049
Ni 0.5914546116452565 1.8873098948947886 8.495465646208887 -0.3358513788842345 -0.6470762174690404 0.6634675143428702
Ni 1.9882760909209773 0.5093404857851721 2.4191857589876853 0.0034378220369553694 0.7100497329777835 0.9273876543044416
Ni 8.655381595527272 1.9605367898189012 6.277087940350878 0.2106116583464179 -0.17952265025109726 -0.38635195873694755
Ni 5.221867355711572 3.6820744530265186 13.252338013395775 -1.4969024311482348 0.5169621995580581 1.063678233339781
Ni 4.096687281695757 5.285224741887776 1.4607115946172948 0.2606970050385833 -2.8674019746884873 -1.3108226965049103
Ni 0.667879750786731 8.749814849683395 5.8104564452146805 -1.7651363679938117 -1.1203803140175157 -0.06476043220583685
Ni 0.43399108571271683 9.097855224932792 8.617920454463476 -0.33175741132051895 -2.791225844446541 -0.8698543359746632
Ni 7.5638756124382684 3.999412805324326 13.099789614973202 0.6350393409091644 0.22293984089446764 -0.20144207603200795
Ni 2.938580806809789 2.411879892521549 10.355754957068564 -0.29121188579798885 0.07132985789323844 -0.40545088434992754
P 0.6666507352560966 1.0421117087209189 4.473922149820004 0.5600603162991129 -0.07381097244387932 -0.032027203638873875
P 3.8079293818137683 8.683401280400595 6.874709125738435 -0.7630856776578406 2.764934771960496 -2.1222813661495
P 3.9875619179262687 8.496441381732827 3.4997175212700644 -1.1638052179703697 0.20027068143172605 -0.14118467390284717
P 4.337228519048901 3.93798072104402 7.80664590077283 -0.7050651352789986 -1.397731125562696 -0.41197351595979376
P 6.296391428388691 4.903753274979981 1.135154259371656 0.24000425257592214 0.12548680355161612 0.7018455999004364
P 1.9076003338073921 5.192716789627551 5.049247217717968 -1.2221003541668372 0.5572956090697821 -0.27272719673024
P 6.915833948079862 9.190447292324391 0.10625329933934377 0.1853999349674807 -0.00496351465286242 -0.34814870819434884
P 3.156541804451809 9.226411184049725 0.8635866885048452 0.8305007738777052 0.851352934736366 -1.9511065736424655
Ni 3.032696292691833 4.886182558648477 11.551422576563404 -0.5844724265948902 0.09831924199788875 0.982603894465269
Ni 7.07981172363105 3.1139982402278705 10.183221738044049 -1.1951734478690061 0.7222956402246722 1.972556001765493
Ni 1.6633113000452409 7.335652568768594 12.26976206004896 -0.0034686752748908003 -1.1214622342277847 1.5966915728234305
Ni 8.917661921277796 0.8973495676258862 2.5142685688805324 0.4848828025250101 0.5278803891324586 0.8852902109137591
Ni 5.776550570370302 7.234041490068536 3.8830441941309464 0.4328755562197835 1.7450069442337883 -0.17773933309842938
Ni 1.5480174933083102 7.09409260371325 7.376223165855522 1.863918665671048 0.5652919970116974 -0.7610041125384636
Ni 4.15354911050473 7.337998446321364 8.247411058398884 0.05109501890360233 -1.4200624420700445 1.7918670991204364
Ni 6.130067775284733 5.8562823687873555 12.734492553216098 -0.5614055174730976 1.2676888414299134 -0.5603282252485189
Ni 7.8731202198727335 5.729576942560655 6.757740493274587 -1.1927450409331717 1.3791384501621733 0.5629772328355918
Ni 2.178254788192507 7.949515451411942 10.140255728938095 0.16108269837835482 -0.06841602668055313 -1.756207440935298
Ni 2.584082258695993 3.2980421476746637 6.124444211446081 -0.4709638784510728 0.20851569504933765 1.0016377711682685
Ni 7.201002935689885 2.676898633104591 1.3393063562797416 1.486097370112931 -0.7271162015417671 -0.88285614755097
Ni 2.9203278233015837 5.4622870934305086 9.034445500452623 -0.23771545654174542 -0.9005795329726619 -0.029445816064942832
Ni 5.397453019392402 2.8374837650236846 2.576411893327235 -0.861644032249729 -0.26687459460420493 0.74623286776656
Ni 3.430028134926523 0.7876241825859288 8.745298801741171 -1.9278753710286667 -2.897928939632751 -0.2507735752772842
Ni 3.9003532189426195 5.486820673414656 5.830427246628061 0.20718823448716578 -0.7532725482221607 1.4511259962440686
Ni 5.081722200716413 2.0248194424402217 9.294770616704982 2.0673006390382462 0.13573162120807591 -0.813458730793754
Ni 0.6814110715871305 3.7959289564043797 9.803998948981656 0.4753599506362394 1.687955964857067 2.148399146282474
Ni 3.2499376386543184 1.316644805274956 4.584968142422537 -1.8513883944145213 -0.0014932967160748475 -0.713849566339848
Ni 3.6215209045627885 0.021985826116079438 11.451019017304853 -0.8624642141581792 1.142005605596775 1.1313869495406643
Ni 0.3810985564920365 5.011616911778855 12.32085265623309 0.40970863118501694 -0.8620816340077798 -1.5649934703892017
Ni 6.6821060363680305 8.987197096547153 11.277145563853772 -0.051751164430362484 -0.3039866689651539 1.2554395917489152
Ni 9.317115334048259 6.531979219116463 8.669270872942297 -1.5158406628136347 -0.8085016438987946 1.8873167328800142
Ni 2.193143166445744 4.5031315964959875 0.42666559238259305 -1.7601386576689042 0.9985971845697317 -0.8069939490050168
P 3.6168758800857903 6.438125424754251 13.071378327432706 0.7720295171146897 -0.32365277993551356 -0.2851407399032444
P 8.575229221453348 2.9114676961301655 11.592104392546261 1.9152908494954368 1.1492175499641821 1.3692183628349839
P 3.519021943920448 2.636785061564796 12.508897640095583 2.345316080750619 0.3178156044284462 0.08311502345362459
P 7.349438104188257 1.8039144152001036 8.57154871714944 0.4374896579530272 -0.7434977282235841 -1.2052236330161565
P 5.969005990954519 5.810607852451153 5.4414517753891145 1.6438836571282014 -0.7762345563349728 1.1931949839863967
P 1.349197361116779 5.918434104747195 10.572198143895564 -0.8666599974070817 0.2885338247451934 -1.0290164202915375
P 9.336153392115957 3.5693695231107725 1.684062502955261 -0.3117534573947663 0.5882270085413159 0.3832301252785142
P 1.5260727901453472 6.735818220813323 1.664857149237385 -3.3232829906645085 -0.39571565934003466 -3.5379785892723135
Ni 8.050939607597835 3.89560538708283 8.39912484779571 0.8781137477699781 0.8528372325913763 -2.326325141470413
Ni 1.9596021772480765 0.7559838086132306 6.778997321585424 1.8661735231434955 1.6363966047225367 0.47232733445750263
Ni 7.03066044853138 7.291604278305628 1.3813050413748895 0.5543316413454518 0.12454526557395323 -0.3608625562165914
Ni 8.556621085168228 1.112291766664143 10.426954677326558 -0.540927966345036 -0.05973803929058099 -2.9402320712763363
Ni 8.428009049297046 0.9683801230085608 12.566103406330619 -0.041727204535457176 -1.0150823267089488 2.9343298468592884
Ni 7.638037119933206 9.084041651136005 5.110159657408895 0.4612906170273668 0.5224209086797841 0.08027369735008756
Ni 4.583583046592574 6.8302047443409055 10.72053330884886 -0.06790232026892822 -0.5804828458195228 1.0283962702090355
Ni 6.580102420388225 0.6104263122204264 6.902396088536546 0.5469456332940258 2.2830853569451715 2.1123489375271363
Ni 4.872565253491561 8.436495331440133 13.33747654553505 -0.4230053482939231 -1.0026921805747118 -2.1867538348012725
Ni 1.3875164765205905 0.27113110679623553 12.852555617000384 0.9783816288538054 -1.0494271227374055 -0.7687948122274759
Ni 4.779963839974253 3.0371824330317914 5.0404655980025 0.06544100321262925 0.9457445595450745 -2.3347560458465857
Ni 9.05176013293972 5.666817708429779 0.6878636367761041 0.6436126844004723 -0.6385748648662486 2.5290345142506188
Ni 7.995442313142266 3.400073802031592 3.573187415462591 0.7817135771716731 -0.8900403240042348 0.20042469051108708
Ni 0.4731625677811202 5.257391979528618 3.3107827862401455 -0.007940337892999227 0.11407727616309385 -0.9723912155983253
Ni 4.990999358466463 5.0535529778317585 3.6236901403396726 0.17914007010069793 -0.034550227171043724 0.15826374087232098
Ni 1.559344997666705 2.625747287103357 12.194979035194423 -3.1700719817247474 0.4516831758445898 0.09153821452031331
Ni 5.130658514924793 0.091689231648183 5.142236495452169 -0.06544100321262925 -0.3098809229624018 -0.4958799249664621
Ni 9.026852707927242 6.772230726572652 5.015775003106454 -0.24795333221966978 -0.2271055422363831 -0.2953930137588719
Ni 9.002010705794723 8.118951364376747 10.800554837162869 0.5738982506234697 0.02036570814054557 -0.552674565358003
Ni 4.891014505639641 3.75829210817727 10.707401067616201 0.3170465874729056 1.5189820366560938 0.5627712874723727
Ni 2.703422937864595 7.450142608694615 5.292185736315278 0.03900414917733928 1.0379556317626963 -0.4523426638054597
Ni 8.412466442244233 7.0701758680258475 12.736639358291283 -0.9538836437124412 0.7829032266044 -0.2613500652415499
Ni 6.40550744603247 7.590026072169944 9.291939675227955 1.895971580341535 -0.7691120863575787 -0.6624768682948269
Ni 9.185493845699021 8.205459103932277 1.2097307348480393 0.7689794174344563 0.3330576181891812 -0.6010971796357648
P 1.347823480637667 0.7142916764413131 10.50859028155038 1.1000336320403636 -0.4108242328466989 0.11378134218922986
P 6.825755988503781 2.017436003130707 4.755695689960221 -0.8361556581706374 -1.1211940681680626 0.24816853355426935
P 4.954016739038931 8.93891501113835 9.97962386639046 -0.11621129178696116 0.466715387587364 -1.4248992013370556
P 6.771314806253244 5.524980904681428 10.207939436704647 -0.5759674744476725 -0.013189244996764382 0.7177998092368477
P 7.930206355698704 7.999348993688313 3.3913248937561025 0.9460785458457255 -1.6341353194921855 -1.980790216749827
P 0.943229698727669 3.6688496851493495 7.692276425868445 0.1704271157077323 2.047443752213319 -2.1941097609457114
P 8.146036436679244 8.050724646706545 7.292329537660588 1.3403191633021305 -0.15052549168779883 -0.06263721521524696
P 3.4166257906608974 3.671849791501697 3.0721117086412217 -0.6638794050693082 -0.9261095589229663 -0.1015338922804445
