# total energy = -340897.1044264814 ev
CRYSTAL
PRIMVEC
9.01412178649193 0.00000000000000 0.00000000000000
0.00000000000000 9.01412178649193 0.00000000000000
0.00000000000000 0.00000000000000 13.19307839593064
PRIMCOORD
 96 1
Ni 6.492240738933743 1.925533539238651 11.423978395037784 0.3640090722653731 0.7135284355550033 -0.4158538248508064
Ni 4.634844944228921 0.2776187172511964 5.990739187020253 -1.1306536709190658 -0.3289988747387753 -0.11765625176360381
Ni 2.9256953919640214 1.7732399562383796 4.753360811087221 -0.29432549172630595 -1.3088992542299522 1.1486488219449056
Ni 3.297753257506265 4.473221745460359 4.872335496730647 0.4475773812063324 -0.7102708478496541 -0.3520187326727163
Ni 4.791140797181967 4.617276421395685 2.4607857649295672 0.46303716740482836 0.26454877468450566 0.3655928718127252
Ni 7.058309541848868 6.0558671163801385 2.507925113393605 0.4649246142355283 0.7949444740396503 0.4239155188130183
Ni 5.098738679768607 4.342535011732159 11.525578361460552 0.40718329366000194 0.7366189988258798 -0.16375176057008572
Ni 5.55539407573154 7.821246758657214 12.470730636226914 -0.03049688303727651 0.24670917539992349 -0.5159895512321436
Ni 1.9108585494118122 6.136020684893806 0.3970855739293556 0.33935836359622845 0.750349718148411 -0.4018911920231272
Ni 2.74626028908131 1.7285659700087643 0.3718811887605447 0.5776510327976826 -1.3930961978938459 0.3672064961567482
Ni 0.494082929906433 -0.12141390692545473 4.79586870391672 0.1512762538108943 -0.45774943664332773 0.284632175697942
Ni 8.662760072714056 2.193983092084528 1.6053600557260765 0.24830840156624334 0.7281752389339008 -1.1057059998347925
Ni 6.785091518721421 0.6595118907787374 4.853878181516007 0.16259450703719094 0.1528320283337884 -0.432092655307172
Ni 0.720761945062759 7.332383906520266 2.0477632241612365 -0.3487287490675349 -0.4247195027715524 1.0888138520651442
Ni 7.738875716250792 3.8870694798092393 3.8130761619390987 -0.38482240946629853 -0.13300599474679672 -0.037566131179232076
Ni 7.5230235624464425 3.905440259457334 12.634430688592591 0.5843531274082064 -0.6481992753298902 0.12109021714581727
Ni 7.98527672787035 8.621826946913274 6.653058075238842 -0.6446647798140704 0.7868035901000708 1.3547924172176409
Ni 6.894703236346949 0.7236419568868837 0.30994606124136354 -0.0013598564620041097 0.18649856734829817 0.5523860875833068
Ni 1.8146328022364409 6.559810593812111 9.296832309752435 0.2578528507215689 -0.45580234021928595 -0.46755433854889156
Ni -0.04478576133640422 4.809187068455513 1.4151287395045418 0.07264266316739103 -0.32259939897033474 0.08644100250306404
Ni 6.241774358510804 1.9859551957554207 6.904399726860912 0.7296104287185305 0.38810647953420896 0.36502054424902297
Ni 3.326760700542363 4.201094431036257 0.5136048128720256 0.2749144341895459 0.2606119015239447 -0.3060378950672278
Ni 5.856745172108106 5.624216893500529 4.791264290646726 -0.6370910812318705 0.03778004696225106 -0.4212780811901713
Ni 5.29314623848816 2.806312366615954 9.228861326466637 0.37976684932026206 -0.6423880679647518 -0.12631264188702118
P 0.06963499011751394 5.558954653730066 12.427286176171979 0.2577546345808077 -0.1252417774203456 -0.4857418080911957
P 4.019955659187162 6.093924737417555 12.546590778662864 -0.5687071933408335 -0.43875926869407017 0.22423387711554282
P 2.462306447229191 8.410833404605647 1.2593241561740773 -0.5722067218536597 0.7862739428488459 0.5958531576280062
P 6.0829365232904555 7.676660249552487 5.906567123135084 0.8672688346356741 -0.17327255557632737 -0.7217269122053956
P 4.822428812961425 1.056599267532396 12.519109426399298 -0.4005814720727682 0.2620365497856132 1.106254673249411
P 3.960940205626773 6.038127325238112 8.334832641874057 -0.10511801008727702 0.4630266258818671 -0.4774176044962165
P 4.867436321687105 1.107754407131481 3.789764742288492 -0.3860796789121673 0.22200087401996604 0.6580126618758861
P 0.15715940579420745 5.633023690220935 3.5407847905034195 0.2976067335807391 0.608839542585345 -0.5738730538124891
Ni 1.4204182260096947 0.9080916155685326 2.8143475545346543 0.03840302525823064 0.7199824187104633 -1.643221855174486
Ni 1.940352755009734 6.583679987584512 4.739626895546576 -0.46541852315281135 0.5708301532211073 -0.4960776427995649
Ni 6.038668172529027 5.563479742730725 9.119636314654112 -0.999297553070866 -0.25802871417780077 0.6070207442090514
Ni 8.763546965376147 2.266528742039318 10.291906592294593 -0.43972471793113305 0.5569698502992473 -0.6954821195762538
Ni 2.3330800011864627 5.2814819652474165 6.904584516351975 -0.7772905084033129 -0.7231389620615739 1.6581671636304087
Ni 0.5569897797249589 8.977406998325627 9.156629367940576 -0.07261078148819107 0.2004210909666613 0.46547071654698546
Ni 1.5631658543253089 1.1240699670740968 11.494575191920974 -0.10789711549431096 0.061866141377177324 -0.7308702692675606
Ni 4.113630409973716 6.97196327185422 1.5491975716252662 0.3863087642038379 0.14739285959608808 -0.4235756189750964
Ni 5.64631951945594 7.819263651923857 8.108874756438953 -0.888708749677005 0.5303651032275253 -0.13886888128547695
Ni 5.346122230633327 3.1921257815904807 4.573776073787356 -0.1222695821658991 -1.0234402117553405 0.260804477150725
Ni 0.9843691118306395 7.479954089846543 7.06947082710906 -0.44862330597234346 -0.20704810936487567 -0.296866770090921
Ni 4.956937534212094 4.44244753460727 7.057993146183684 0.038441848915966054 0.37970180041028156 0.041980458196843824
Ni 7.971854700934132 7.222736132408677 8.809677633642627 0.4122275409521288 0.5898689150201132 1.082624692535297
Ni 4.727329830975461 0.3973974625337835 10.458865249588039 -0.30665444560530414 -0.5265107624784416 -0.9711506583230048
Ni 7.878080794810911 6.966446629486882 4.783202961775632 0.7366848190668087 0.6811541329893559 -0.49407861009166515
Ni 7.025732506692729 5.989622337364513 6.9897454293673675 0.5694024196356452 -0.14147520856007248 -0.8574392501397622
Ni 2.21087555580412 5.203726153056808 2.6912425984129373 -0.10440915694571051 -0.10516300439259953 -0.8256424173441395
Ni 2.298096195585749 5.2160574712896794 11.376786764668957 0.4364509322758677 -0.2472871593905806 -0.6620834895111501
Ni 1.1431348340788658 3.2668889054380243 3.773470816237513 -0.3029266031317557 0.010393941639814356 0.44068348229997656
Ni 3.5011478953765303 2.682521435846926 2.7577226460001114 -0.1017192688183732 0.03556529869911939 -1.3332190619222395
Ni 0.9846575637191278 3.387903486780353 8.169259455057508 0.42350002854215457 -0.0931181574129235 -0.7895029913091047
Ni 3.6496825897049394 2.5346357582676156 6.994323701684967 0.04736666220942165 -0.3462003262187263 0.49499212304487006
Ni 3.999971351787837 6.669638650354005 6.098671573807489 0.9641901678447716 1.0999978937064216 -0.34438692715907143
Ni 0.9861899643767216 7.412618602127571 11.541159270499673 -0.44870660971476917 -0.29606741411807724 0.25930989488306955
P 0.13284110877034638 5.698673537216554 7.864011553949897 0.48046204774949514 -1.4820229429332412 0.342204831906088
P 8.507374646034052 1.6206489072281045 7.833614133376146 -0.9161025683089254 -0.6360297298468917 1.191818158243528
P 1.717262261628632 3.3152947379749556 10.261364945776599 0.4916543169208888 -0.4374300083596853 0.8868040764551244
P 3.944453377375367 6.229217687240051 3.646830521657512 -0.06754725092235463 0.523054428498725 0.7295890885622918
P 6.907863853759225 3.839529002937773 10.29023176851706 0.4007048850245099 0.43327536276136347 0.4576928723737795
P 6.360562451838865 7.794682142551751 10.208936110807407 0.33499185909741663 -0.12437685831688901 0.7866236128787808
P 2.4111693358731365 8.471020693963018 5.77623284155813 0.9494184088522358 0.5937919042236032 -0.537888408187764
P 6.754578717392276 4.041418282514989 1.7225670721403608 0.7813952746003058 -1.0151291207864839 -0.21327223589771657
Ni 5.290378903182975 2.86801402838789 0.5613679385449193 0.19066761112432326 -0.37905979595090844 -0.2049441756479954
Ni 1.4484521439221447 0.9666743912961896 7.130290907796804 0.47284772573734696 0.8210779379019085 -1.079041860280045
Ni 6.970295659373897 0.8126708294444737 9.223505135462272 -0.4046029345273354 -0.40342948304452453 -0.7843720978404427
Ni 2.6962229005501173 1.5462824047272319 9.20799002951021 0.1727141119696961 -0.4247778668133136 0.050495180536074324
Ni 6.573890651618944 1.8845192863442304 2.669883637482535 -0.5020593143042966 0.8697144679626891 -0.14429236629389344
Ni 4.171600225438335 6.860143094457453 10.46498673950905 0.17497616853099543 0.12804556541772785 -0.6198284374966809
Ni 7.871942178059021 7.230596446369981 0.07768460063063867 0.9253256295690901 0.0573476846815335 0.47548439202924564
Ni 7.635042050516544 3.9206290542105426 8.142859797375774 -0.06998414249862141 -0.9136294241780847 -0.13767280409484678
Ni 3.199012570428137 8.402738723484944 12.327414216843685 -0.1598961342694214 -0.044894032299213 0.8040484932234476
Ni 0.07687062545781094 4.900905754873254 10.076793596454495 -0.5417340071860993 -0.002615583245976141 0.4350172851531347
Ni 8.675767450060572 2.3049469279373445 5.747102806469425 0.07284269499333906 1.0831862214657215 0.9961430666022846
Ni 3.6769953778961693 2.6290767093829652 11.373079256489733 -0.9137736630654327 -0.5392626628274713 -0.20336808941012718
Ni 1.2404242475930376 3.395114783992559 12.56451986635671 -1.4410840386270345 0.20581320851651008 -0.005522986700758231
Ni 3.147379682388743 8.176430188722897 7.939448934086782 0.3705047072920458 0.4831228824111099 0.6804079988519507
Ni 5.637702019287354 7.852192237819091 3.5799286131834243 -0.5132523548066386 0.0947639205464626 -0.047391344799769995
Ni 3.1364635812337665 8.557655415846156 3.4950047715638823 0.7194358021783739 -1.0106618290437497 0.5618765435722453
Ni 3.4145492299794538 4.123311576481102 9.192778699453214 -0.4370356011347441 0.6660684423008271 -0.05759373925406855
Ni 7.000601135908192 5.980482018148042 11.331653058242065 0.7487057547870848 0.13305253171401601 -0.25968681860651405
Ni 0.5551445890507857 9.077220365864068 0.2577119312969023 0.2909259791264538 -0.433786240959511 0.7782742124728209
Ni 4.646869782330275 0.5776276109341404 1.6768537577000366 -0.34472091345972244 -0.7605798805168514 -0.7643028378943933
Ni 5.908116650623557 5.580047698075768 0.3538241005411814 -0.19915559399067637 0.17920666167257526 0.1283893219103918
Ni 8.108851319723012 8.819245222218921 11.257416359091012 -0.5554593271919918 0.27532401092313874 -0.015439217373205668
Ni 0.27548237045208046 5.012951285307903 5.615502040819579 -0.6453278673193661 -0.9203348612227182 0.9533293138708677
Ni 7.99525536038774 8.81847000776861 2.612533092166014 -0.3198112947022363 -0.49127482209428297 -0.20817296699793827
P 8.571248711091163 1.5893248349625855 3.7695920397494977 -0.8123017343711753 -0.10118756468461929 -0.7190020570750649
P 1.6253362504160382 3.134228079097983 1.5877735046498096 0.8071420445471067 0.5533908746987373 0.3806225124523381
P 4.649555990541822 0.8891141855424615 8.192110253098686 0.581714661344095 0.7657226010600554 -0.07909638921253474
P 8.592026261183833 1.7239146833068917 12.465598896848277 -0.4239196325780763 0.22558242072363732 -0.2343452545179319
P 6.2826984701900725 7.932165523902454 1.3863286212632946 0.07725290824589277 -0.765769652247907 0.9669895849667798
P 1.8436763017585998 3.1915308495704737 6.044632816735674 -0.6458199764644361 0.375241964866715 -0.2644742126928284
P 6.842844995269675 4.00146769595937 6.005106795303422 0.3742898853660909 -0.4477727850465902 -0.7341209149943744
P 2.421625716830835 8.473905212847901 10.243356533813419 0.1860411680959054 0.4235285677872448 -0.5209954890871672
