# total energy = -340892.5744973403 ev
CRYSTAL
PRIMVEC
9.06550425879571 0.00000000000000 0.00000000000000

0.00000000000000 9.06550425879571 0.00000000000000

0.00000000000000 0.00000000000000 13.26828183796476

PRIMCOORD
 96 1
Ni 6.458691194553543 1.9076902883087166 11.32295240783319 0.7749214939505041 0.9720289471629002 -0.7338524918243361
Ni 4.950082527427365 0.17244945815971466 5.810857580361233 -1.029987268845239 0.4656995447283399 0.7727908207607466
Ni 2.583976893647351 1.4637525528739586 4.880286304864862 1.1359560569685856 0.7888445317894995 0.43319848677684103
Ni 3.5773929631677035 4.439903153584974 4.953579998906449 -0.7646221689070251 -1.6461326010633779 0.43795991272122636
Ni 4.972682829131242 4.6963118713517025 2.3424618925550305 -0.1092536295222054 0.20574096051767793 0.3065711418628785
Ni 7.120953465060288 6.142776507920288 2.7108023893581685 0.7321871883067713 -0.1346576714176068 -0.7137780896719642
Ni 4.72273781578283 4.705395506452899 11.680785078842117 1.5013167581658466 -0.580673107453458 -0.9385141032349062
Ni 5.591593859065208 7.978976230951519 12.522803603807544 -0.8212741130731147 0.7887434874352609 -0.5448463275628358
Ni 1.7826407248497202 6.558112577941596 0.49733083489136587 -0.12899893046993266 -0.40409411321171695 -0.8768600778685349
Ni 2.9093922285700806 1.5624486959345714 0.3248967880886094 -0.5198343788995305 -0.9941296357166812 0.11605316894254208
Ni 0.6022848954273843 0.08188144606889566 4.78125201850158 -0.4685575830024253 -0.6423374172324744 -1.020223761700572
Ni 8.695948818659588 2.3133534654627814 1.3707459201821195 0.022859163986360634 -0.05642722974979315 0.29230923262722563
Ni 7.032048066420128 0.7724471269044323 4.713119315940145 -0.8756274910130146 0.16415722353862053 -0.37727622168792446
Ni 1.0198601449596658 7.3895462203280236 2.719679330966045 -0.656436832748334 0.7593832891055889 -0.2777225930623023
Ni 7.841407206340073 4.162924807031203 4.127390750637827 -0.9298790532677276 -0.9390887447914537 -1.3040673800589477
Ni 7.398348824802338 3.8135493447906446 12.788579706953582 0.9803940312981437 -0.4479517338266156 -0.8439944374887658
Ni 8.044773659658594 8.929294894013696 6.591178097570445 -0.33405340644354725 -0.10187199234615359 1.423350625903013
Ni 6.9117125650894975 0.9733722399707043 0.2579779565252287 -0.12824534013335975 -0.045180196081064126 0.4729279441559791
Ni 1.8016329559245785 6.538830250735762 9.181319534001045 0.36555096283119626 -0.09723655045667125 0.25187606431284365
Ni 0.03734715721197819 4.753578660707254 1.2442676332780647 -0.10279913214611329 0.08931472450643328 0.338527640164817
Ni 6.538222861961529 1.9443149248444818 7.010057873141711 0.39659111996645247 0.0812921113122729 0.4496162660132321
Ni 3.115242630010086 4.378711000957148 0.19846473525542885 1.1499207466787937 -0.36329636246906466 0.228103130262962
Ni 5.7897023200097815 5.3547031716107325 4.753216040543533 0.88802303646389 1.0142467181815304 0.39927458033588653
Ni 5.3543586824551985 2.715879978200664 9.122288597548991 0.3586817465151887 0.40459342144563865 0.8837796878065036
P 0.1711268011125443 5.429620497435377 12.414626756566461 -0.06666279143487228 1.2557167566697018 0.06091174788370799
P 3.8449159889524633 6.297869151943524 12.736316169306964 0.19685985597796418 0.9686574595875058 0.3173846875386147
P 2.461619784903979 8.479147288275225 1.3993657166037559 -0.44352377996224907 1.6422157825074748 -0.11101920606306041
P 6.3551631378113544 7.563567636897466 5.663579400866173 0.5545725537116643 -0.009292995266151736 -0.5861318165751841
P 4.838223272423699 1.1457799968115912 12.456820332266563 -0.18763422361463813 -1.586180903100094 1.6241980057738155
P 3.8900984613520313 6.172883047013179 8.322887913875219 1.8085700136974143 -0.35054369078908665 0.4235946451384899
P 4.629236206567512 1.1053750450690403 3.817642419888639 0.006427757903214737 0.35258308981661857 0.273543007763316
P 0.29681366950927934 5.4852101685337225 3.304784189586764 0.031794775913093626 0.08667214467726364 0.8789341867887444
Ni 1.6047120760161895 1.1940356750986896 2.6139973104513574 -0.8568031592176599 0.04285823281610683 -0.6715775450445144
Ni 1.8977726268309623 6.299872628348079 4.7702528423855295 0.45392260669806983 0.14775152848708747 -0.43828181483701945
Ni 5.992932790766907 5.705810145133056 9.371560043943294 -0.5227260986250288 0.05496015828596341 0.18879250558879743
Ni 8.689920258437736 2.341574379704325 10.254551021207496 0.12278226013625951 0.29538427200812356 -0.29379610158539726
Ni 2.3599773530131376 5.373604747644661 7.0996449976896665 -0.8335866118918807 -1.2535896830243702 -0.38570455496093575
Ni 0.7201527665438973 8.93521466818643 8.89633000148028 0.04097721374331007 -0.5595802913389007 1.5533191193750668
Ni 1.4061231433546864 1.1345206407280712 11.612148334253112 1.296617865759438 -0.8623875952839728 -2.17019670177354
Ni 4.055688959114973 7.0732689135310505 1.6525244511531398 0.8431035502433802 -0.43863971239707034 -0.2928008275516635
Ni 5.745634904613654 7.600056290871837 7.806725307331441 -1.31793616762124 1.1838616224006127 0.6071387578441544
Ni 5.5796183281583405 2.904687231945808 5.041907018385475 -0.5854026517186435 -0.06918581496704214 -0.010165627679092171
Ni 0.6905919707974063 7.295491615363034 6.930182623128599 0.009160583453345514 0.018936174782870612 0.20776596136750672
Ni 5.095547606103822 4.554998793549843 7.227153125858687 0.28156253563368283 -0.13338831778687996 -0.37654911371391275
Ni 8.264412692824068 7.1293662528586035 9.42683514204961 -1.370632212463375 0.328608324168576 -1.271700276582152
Ni 4.7851084839427465 0.3841434835380747 10.416357577562014 -1.5851208372666958 0.07069942339809114 -0.4438348834447646
Ni 8.349356466175584 6.977555321317038 4.751371210460605 -0.4575247222270314 0.6307867362803974 -0.4175587233570551
Ni 7.513761757410463 6.357937182063816 7.103639258793046 -0.02687085624891501 -1.501774928749188 0.013648444021370044
Ni 2.4148871113045067 5.090072041631643 2.4971039810248437 -0.5937615652063 0.05596931627676813 0.18606070847993117
Ni 2.1507817805628116 5.201088204754658 11.35422567730285 0.3728474964926095 0.45056474596943047 -0.1254754906977065
Ni 1.1571662699524132 3.323595110579762 3.979980214783009 0.15062447915950833 0.2626708409355024 -0.8130630380172319
Ni 3.5364803431959437 2.8062811850161715 2.743044761215372 0.14665932386417324 -0.2884510352234 0.34737146370869204
Ni 1.0763744974754976 3.2178097433184147 8.40219203713047 -0.10831003466201347 0.44632448263583785 -1.0736312307874347
Ni 3.463639017808599 2.504318309182062 7.281141828934206 0.25615875084859757 1.6335285391461223 -2.5144303911841988
Ni 4.078071688720618 6.804685223767407 6.030699680818391 0.813525065255315 0.14302815486948917 -0.661487507798364
Ni 0.6981752649712102 7.287260137646579 11.160256525527144 0.9240305649067504 0.38383279185951963 1.5720434352574473
P 0.23670303151975003 5.402795670824157 8.02658100604474 0.2784926384591075 0.4914573704187343 0.8459001391519109
P 8.61316263528221 1.522370102339369 8.134863013133302 -0.8760956888986847 0.5107373016942688 -0.6365346945077682
P 1.8955153163118024 3.1919277291328676 10.47045234703542 -1.2783074974860242 0.28611878754579756 -0.7101199240940868
P 4.002438188072626 6.15409932253246 3.7806905186551165 -0.5036842515022293 0.7357242549257523 -1.0611294987759985
P 6.811919496033631 4.050730128376096 10.724327256408152 -0.8558132845005647 0.09886071632365555 -1.8696020892090706
P 6.194504274275011 7.896516405721489 10.303603557304369 1.267285692454224 -2.4175440249780946 -0.46764304160795594
P 2.3006436287243797 8.164964112923736 5.857866751835542 0.4151154040228851 1.3048050295559206 -1.1193104779921046
P 6.881941449648049 4.084825489269911 1.5032165052916548 -0.34133914147168315 0.40433296869540036 1.5481265194305338
Ni 5.126261533970944 2.724854827252745 0.5795205080994239 0.246170272177318 1.943837036564246 -0.3284244902925441
Ni 1.3487838299663906 0.8637539775788317 6.912416048207115 0.7066286231113765 1.0498837506588499 0.12695747455987166
Ni 6.824946625415287 0.47259923317522207 9.04355469450119 0.6083260932840362 0.48738217190809613 -0.09415225510439268
Ni 2.899256994994094 1.6694307097361964 9.21114594901746 -0.7992040206469526 -2.115096932585919 1.578269104452185
Ni 6.197858510789425 2.36552544151806 2.7668081670943825 1.192051871520889 0.024653279772305928 -0.20909007949556893
Ni 4.054465116062417 6.952788364134931 10.543985370385064 0.053944058316623224 -0.14302429821474721 -0.3415520288134376
Ni 8.224497278302541 7.1307532749848335 0.4008212914179874 0.27789845651853434 0.18737274242313537 0.1828925951645947
Ni 7.4863930005536625 3.9105955661063296 8.451643455407439 0.4202470688224956 -0.28251692912715215 -0.1804454191756828
Ni 2.843975551034912 8.351450597621069 12.345379903551994 0.808574149007943 -0.3058430054476023 -0.11886569869067272
Ni 8.98114957742572 4.953463960454058 10.187346626265184 0.1539715412548703 -0.9552938937964063 0.23824433246202198
Ni 8.734323097485303 2.5106913585594484 5.855491589763173 0.2853076044984118 -0.5342520969867572 0.4976897244816913
Ni 3.611660568639285 2.51563205829014 11.46948721599262 0.5762556951120527 1.1752216873374277 -0.36365991645607043
Ni 1.0325790472021605 3.292083418352455 12.537225914269117 -0.961671515187976 0.3911367817201006 -0.007581669001999846
Ni 3.1580590058413778 8.167783484696663 7.8463977663432765 0.19170582258085048 1.3368180921274073 0.7974908946105878
Ni 5.581649001075174 7.948896888370907 3.5486952034108667 0.024143944236055193 0.31141458599810884 0.08671842453416678
Ni 2.999693714840565 8.519905794677403 3.56651435825609 1.118255040144397 -0.8836529324206523 0.8606994089482726
Ni 3.576277906164263 4.264685090475254 9.329180625409284 -0.4833843636026127 0.21681804426744594 0.282764526361584
Ni 7.21780931079002 6.157816179210594 11.51652358397921 -0.024421880487790197 -0.10200748948275336 0.34438101362180046
Ni 0.6616702930894728 9.007666176897777 0.2953695347072626 -0.4956606098668045 0.08742882033763007 0.40575915961896575
Ni 4.738103845220484 0.6282874808173683 1.6189820860089985 -0.19836549398921322 -1.429283189337364 0.4095196551026624
Ni 6.083569700688832 5.955528520879142 0.42216239460334504 -0.8110544922276354 -0.5889111790925341 0.26454748913292503
Ni 7.902998241147992 8.731957000917028 11.400332831119904 0.13476411508848404 0.2673448493724041 0.296189027297606
Ni 0.15592939005102036 4.984286674370296 5.825359667258823 0.29507959628351116 -0.5144412329084173 0.8683240153730659
Ni 8.126716751155323 8.850062388240778 2.7543757347812265 -0.35537607918072345 -0.4053493257750568 -1.2942138843036355
P 8.581388043436206 1.7390537811705225 3.6446907328021716 0.4101809428357452 0.8280553976610062 -0.4795976428666708
P 1.8442136286494522 3.1231386840750983 1.3099499300831585 -1.0196789449406953 -0.12155481548706164 2.1447762048179064
P 4.732601084236026 0.9556945069893326 8.073828600276695 1.0712331628689034 -1.1260182290295835 -0.6787462948788117
P 8.572304408335008 1.5660477010594969 12.310285524107131 -0.6799359443115387 0.3346794700633204 1.0919462270465388
P 6.434241530014691 8.241041823272285 1.272327181546753 0.38944345317807766 -2.1913980184415034 1.934416257470978
P 1.852209403259488 3.4504033818328024 6.06674956439466 0.30037015525848915 -1.1108572050184289 -0.19993540957949438
P 7.135159109974037 4.175308285622256 6.258290067623847 -1.1097421175773792 -0.42947938605404107 -0.401678818902005
P 2.593187445805851 8.587117442022988 10.057357269625905 -1.2222445930541854 0.4988780883628376 0.9841668680770147
