# total energy = -340861.43769570265 ev
CRYSTAL
PRIMVEC
9.35849539049763 0.00000000000000 0.00000000000000

0.00000000000000 9.35849539049763 0.00000000000000

0.00000000000000 0.00000000000000 13.69710397520485

PRIMCOORD
 96 1
Ni 7.750340764438614 4.17024841592668 3.437397756711723 0.8885637394587084 1.2032454262438634 0.24753321396311567
Ni 5.8655211090340895 3.148918397987845 12.850663575510834 -0.17321342020361782 -0.08432292771879671 -0.4587028016955326
Ni 3.351267781753431 0.3053190350326288 10.54127706721142 -2.184697980713508 -3.064876581432315 -1.795047039510315
Ni 4.374151309899698 8.15264375719206 8.993093715262109 1.5789211362138873 -0.1849844446966169 0.5513784722543987
Ni 2.4841002556641243 5.8762740200481804 6.311351398930822 0.6098499861277303 -1.0040625785596773 -1.1720697719720072
Ni 3.2166083939538277 4.340058311793231 9.155103305358214 2.157701911740639 -0.7418432233392966 -1.485407800245074
Ni 7.438365967601615 -0.12564154180031922 1.3821065598282065 -0.09485776581184953 -0.5311760291645948 0.3158281416847722
Ni 2.1859011637990498 5.459231397314584 10.76841616897981 1.0952907180387395 1.2054228935111562 0.4042504362839231
Ni 4.860512306768513 6.431710070176351 5.066750145300291 1.0008325016581539 -0.16104387472061943 1.5547861908388965
Ni 4.532787162467011 4.488568272526562 6.697171274043609 -0.10161488203002501 -0.2744850599616111 0.6147319968103799
Ni 1.3164033723985955 6.832122646894249 0.11501777802034079 1.0640651843655544 0.1736618205949461 1.4519438641596736
Ni 5.684116037583155 5.944881148546262 9.176716750081487 -0.3465623375438354 -0.022875361936276734 0.9526091478753917
Ni 7.91148469372636 3.2452360308486075 5.809037911100633 3.4804918079097544 -2.2127543726300924 0.48340776064138036
Ni 2.0950114581690724 9.268167029575471 4.381676475910516 -0.032811904323698335 0.6288846341616783 0.6251547348056008
Ni 6.002538837630517 0.6103779038979888 13.238278410007872 -0.8858810504202227 1.482878863175633 1.196535104103223
Ni 8.398697313660694 6.781614848162269 -0.05512621612576015 -0.3020130901785508 0.27248499881244687 1.0513485081298346
Ni 2.6584490217150387 9.034429252823585 1.9995856899032987 -1.676027074629965 -1.7526197235840397 -0.6615325021036865
Ni 2.3467549797348046 3.306964665355952 1.717082666230419 0.28106477006165786 2.320833265117906 -0.4152987236782848
Ni 5.02275117999764 1.7298055404894754 10.48466752959242 1.6640485621118504 1.7237233522646636 -0.2330810430935276
Ni 1.3752495903764885 0.9233110106460779 6.607865961655309 -1.198356216472362 0.13369685016623425 0.01622057562392045
Ni 5.61391796489674 2.0145283992298415 6.024356297549707 0.20896640943351108 0.4603657912202523 -0.9241768606766276
Ni 9.342744878027418 2.453769372638305 8.225590419926203 0.26461845158017655 0.09042055597610234 -0.20694217991463068
Ni 0.40351304618610273 6.405178736212082 9.740626917636343 2.6087826781145393 1.3045844289046822 -0.6057231084435504
Ni 1.198009049300897 1.8499124682134387 12.455584405221945 -0.8789812379765958 0.18879970467764903 -0.15862703774901069
P 4.237451770140937 0.018027269352865083 5.406342797397239 0.6371232200213867 -0.2519693953575983 -1.294956418896615
P 3.8724891733372035 1.2253358553593334 12.187614188784732 0.5101030105443796 1.084305165561513 4.296962071836322
P 0.20773426191833433 1.6721759268908962 10.3296711958183 1.0834734136888373 -0.659941760577799 -1.1143479917805068
P 3.404105845796558 5.162716834590098 4.250334674668349 -0.9182352983812122 -0.4343585685232132 1.0016156596810815
P 0.42709926170291 4.140628778537998 2.4299753985274917 -1.0718232310444187 1.0380461345939735 -0.5490356830538351
P 4.679378631679117 4.7266015985869485 10.71984651460903 0.4075553322874401 0.07229659268188193 0.9933583047682957
P 6.778292582357219 7.876015996821744 13.214719334127219 -2.034016165953503 1.0386876248327144 -0.26900603912491095
P 8.563996414828559 1.8230255114306004 13.527259384075837 -1.2393429432973688 0.8740418916934496 0.16348128051751845
Ni 2.3829910732479096 2.2574094258170336 4.887290705006735 0.5851936210316309 0.6450270482494955 0.7893623519661824
Ni 6.14784819299673 7.03371399254657 2.0606742033372196 -0.26363731861382983 -0.3099475145342791 -0.6688807149386417
Ni 2.7789957987146003 3.0067254215317205 11.134663687178005 1.6339355447765538 -0.09023543654848976 0.8573361489029944
Ni 1.3317980970445296 7.017710965710979 4.3838261222638115 -0.019887482952546394 -0.36845528096218483 -0.8813014014693403
Ni 3.3441646838772825 6.124068256628756 12.510742440231471 0.663938797552334 1.3874328289604814 0.7503162938073142
Ni 4.846165733587833 2.4220534323191125 1.2724352901301892 0.5419589787127117 -0.07271388272495864 0.3322328082950407
Ni 2.7094153867130677 6.769242917474169 8.519584739886463 -1.0469514075034034 -1.7358754142461652 -1.668968882231603
Ni 6.1793488879257366 8.283026312673615 4.118759846895069 1.010580325073537 -1.411444875604363 1.1587504291552817
Ni 2.7814009319875517 1.4816369640998805 0.5283684743874807 0.8702101766521853 -1.2813144026331482 -1.7760836110339349
Ni 3.980121226925586 7.934562742952422 3.6583864554179217 -1.2143867875726633 -0.48891300673032567 -0.5104128284753144
Ni 6.26968644233741 4.482082835335296 5.19528439797481 -2.068284343107754 0.9080850973210876 -0.6424459177858807
Ni 8.553720787070967 0.11067262868714489 8.299280147181248 -0.661433514631977 0.32380293236013263 -0.357086634113927
Ni 5.04612870107092 7.305072920104934 11.22851535654685 -1.2697583223644324 -1.2305641686634743 0.18473041970428186
Ni 8.031956602764117 7.137640082025658 8.64532454588665 -1.6011850898184101 1.5799498345887177 0.062179044631905815
Ni -0.12453443181514354 8.716811283365615 10.703464468716806 0.9272498431749965 0.0464192106944878 -1.928187502952447
Ni 4.943531517913852 -0.012349470299559137 1.9299631646732514 2.0424362716963986 0.046856041121590274 -0.26434771441729316
Ni 1.7780579418721119 8.825491488419253 12.552861283843322 0.3205962524973769 -0.22411457792885917 -0.5972204702891779
Ni 0.07834932202781834 5.873981188717934 11.991964551751076 1.9568840995561911 -1.0870888989542373 0.6213698138418717
Ni 7.812256568850469 2.39860104328403 2.058031364285541 -0.4964219135128612 -0.7135857711555 -2.7714355491934914
Ni 8.99435617626803 5.6849957361343515 6.0863628793652484 0.9773704139804714 -0.501548178995833 0.19947029701761776
Ni 8.999091574852129 8.87814238255787 3.449670487350433 -1.0526898526490773 1.833134847520972 2.588096867630414
Ni 2.499775735166823 1.9723122272676474 9.116573444665342 -0.519739248082563 -0.0880469135376032 -2.18168079115374
Ni 1.287990980894002 4.63442977911108 8.089016284003463 0.13544802852938606 0.004935489628404403 -1.296860063677231
Ni 6.46318268961968 -0.034008771649437636 6.770437061464942 -1.1411980220938154 0.8083854300359046 -1.1473290746922173
P 6.267159648626527 9.089372978292449 8.825372635529888 1.0614264611911268 0.04277672884589407 1.8068077795906687
P 7.930678967433844 5.886568364796221 10.601503663235073 -2.399565843233119 -0.6350578528519257 -0.6398904983538786
P 4.006474749480572 7.179837536997401 1.4663433112023818 0.23061638360311895 -1.760974009086006 1.7162219016812958
P 6.0170632222204805 2.8357737892476598 3.8189445429045517 0.32898241967854314 -0.12243207588569235 -0.5041038555381511
P 2.395269418983755 7.645038976161379 10.355435133174078 -0.6413208030425019 0.8704978830959331 1.8865849969203121
P 4.639296196628335 6.5494212231225895 7.306829509658758 -1.098917001937417 1.103463997878151 0.3938225560823798
P 0.44173501238605684 7.760195259911057 2.075673063635116 1.8398510831988828 -1.3388400076534426 -2.4483916064865703
P 7.452796767239324 6.153032799351653 4.556547445995013 -0.3106445406013037 1.5127707656390592 -0.2706096361666049
Ni 4.148630291955794 4.6449487277445325 0.2965697778463164 -0.058305420609112486 -0.3034253971450452 0.8130514680530062
Ni 3.5095480115021758 0.1465793031683123 7.3631105640953445 0.35298701012325656 1.6028611919692526 0.011242405683038702
Ni 1.0185131108759622 4.383350710706357 4.430972349510795 1.1872639632139423 1.035579675331352 0.552660681400932
Ni 9.460689993354292 3.7963671731730524 0.3784304072827393 0.5542069428421293 0.3912758784011261 -1.3345269821003856
Ni 6.775587977237052 5.936355559395839 7.123315969233519 -0.4628471628812093 -0.03450754685856638 -1.3014080880592296
Ni 6.72427534791568 1.8643151923654708 8.806032369296888 0.39744164089220585 0.30592348097655053 -0.9919732514953108
Ni 6.944583684018985 0.8779775239242725 3.6397452687782645 0.564909416861298 1.4065782915406808 0.23364231491363632
Ni 4.075886708568045 8.420680418945373 13.664833007288657 -0.24620986716600177 1.3723247696744496 -3.26159091297135
Ni 8.539898289622917 9.22677440519312 12.689489699038369 -0.2747503978078559 -0.02981605492016801 1.5606189954705898
Ni 0.26527964905988416 2.2511485925111794 3.479831045763149 0.1910188238161549 -1.1749758898752085 0.9178979696464513
Ni 8.455821568517097 6.115299346602469 2.0836717695043436 -0.004634927668850082 -1.140234115518649 1.1608317371643428
Ni 6.202838710941721 5.667925840843053 12.732115773091438 -0.12327642616385867 0.5220020759748106 -0.4298018023904662
Ni 7.617955490978805 1.7711513723956989 11.154633780139683 -0.49402076027053626 -0.2694449264345424 0.591766132042826
Ni 2.788073539083327 5.6658108209220925 2.3294389560190774 -1.1449891137051313 0.42635241038928506 -0.5889075795481084
Ni 8.013726254064858 3.9480590222830507 11.99311564666381 0.6646029134988941 0.0875630319226492 1.0184466151954912
Ni 4.989154182138125 4.4285148086645805 2.697644271418444 0.13136126005452214 0.4877151297674826 0.3830015542074759
Ni 8.005135155447856 7.8365980149319725 6.3046394861551 1.618208363849284 -0.07154814455163161 -1.130616132812911
Ni 0.4185820951981899 0.5224024336812295 1.168032853244124 0.8080352457853375 0.03876195125954615 0.17058395300057075
Ni 4.358007905635724 1.480251906806508 3.6032424581512337 -0.14561622731163953 -0.44439949769898307 0.8641706553263245
Ni 6.8327215905886804 3.874894306610155 10.058619226903332 -1.4778888661602096 -0.16715692959689277 -0.017959155581581975
Ni 0.7138997063833353 3.927498408272645 10.37629615488122 -2.0576366335859206 -1.9800705649749835 -0.457811914450147
Ni 6.425561538813204 8.991922967509401 11.331052645334477 1.0284638902221772 0.32142286216373034 -2.6829510338978375
Ni 1.4786422456277233 9.015085243192493 8.630065519421485 0.19303816823902883 -0.8051630664438649 0.5409544487075975
Ni 8.476700371365169 4.775752415511232 8.657911721964936 -1.3912995110047395 -0.4132942916537463 -0.8466925531462192
P 2.2524400648522973 1.5788717294927417 2.7987431594899106 -0.2677274295228035 -0.9360191047271945 0.7679769443118709
P 1.0767978191403258 3.293769187088009 6.3241996770259 -0.895655356198167 -0.20939732632334263 0.9708351839651151
P 6.420348856972605 4.5846987354828155 0.8867969698247761 -0.258960996184083 -0.5634094352770039 0.480191824807244
P 2.116947770977625 4.1936165785047335 12.794793359014648 -0.739764486433397 0.7750706179338588 1.036575206475402
P 3.9951790457434027 2.5350479036717024 7.243165538338782 -2.3301748542338063 -1.1069478426616937 1.573583783161374
P 8.25905920640113 0.8907556133051592 5.570173550664223 0.2256055606520889 -0.6680368788811075 0.27057929714930173
P 6.772368654879482 3.8255095273052344 7.49720563463285 -0.2919531348393875 -1.1541592102401736 1.1510741435569467
P 1.0969747348464864 7.464438735299836 6.509890939290111 -0.9751075860882238 1.1311234114666326 0.605318416805964
