# total energy = -340888.8566841955 ev
CRYSTAL
PRIMVEC
9.11308555472840 0.00000000000000 0.00000000000000

0.00000000000000 9.11308555472840 0.00000000000000

0.00000000000000 0.00000000000000 13.33792187414931

PRIMCOORD
 96 1
Ni 6.659040998281285 2.331829001736964 11.193330550015675 -0.513290921354058 -0.7185017203998788 -0.054368547448551525
Ni 4.499011886103544 0.3637342304229303 5.831832549568947 0.9434447077673044 0.2723423025869955 0.4198796581807478
Ni 3.162486753345448 1.9090091695770202 4.641823961706745 -0.8612953906610584 0.0020501976608093726 -0.04781557682138216
Ni 3.93007283957947 4.428184984891244 5.011804300993662 -0.7081538015066513 0.5633983795334103 -0.1736044849944494
Ni 4.1094730425214845 2.67408915727355 2.351956162572976 -1.4302136715714338 -0.7662424781192675 -0.7446282422836015
Ni 4.91645499776487 4.684426725535537 2.3909692819875223 1.4827708768428591 1.443408572995153 1.9447055552121286
Ni 5.10298163363895 4.973156616311309 11.04921439186442 0.5769658338052 -0.546194356950298 0.6476727134024588
Ni 5.8984081963531025 8.01446667055486 12.333682845801745 -0.2455061562307578 0.32178230238567807 0.09243347264107307
Ni 1.8472315623564615 6.418145693772028 0.34686317506853875 1.5641000120406547 -0.11163010017418194 0.42987739282340803
Ni 2.6324059037808767 1.730775441590638 0.06322203128671271 1.2484983845443918 0.662895186779168 1.731030427449038
Ni 8.118228263092591 -0.03330650521753911 6.642818794620964 -0.1289472512963908 0.25109264917959984 -0.08987393944401297
Ni 8.651781198267287 2.556074698871687 1.0603366703724888 0.762100688036752 0.529856796132539 0.14218817546669704
Ni 6.818875406459686 0.6088671197319443 4.480487717022967 -0.039159186697964816 -0.006442156080917937 0.26040775593293863
Ni 0.7570586497594398 7.6528047557952945 2.060681898300231 1.6690696694755254 -0.9328630755967159 0.8705773301836168
Ni 7.814689608231642 4.294350209903617 3.7778332769325065 0.2895350123161981 -1.0989373136523912 0.25486574306878684
Ni 7.58961462030815 3.9992502722998213 12.498979637483318 0.9267258523507265 0.3722941950923008 0.7927780625159507
Ni 8.298658244706374 7.724342477683683 8.671116431965451 -0.713517636921726 -0.7921751388246293 1.111257525780641
Ni 7.445655207229058 0.6867384361059927 0.21332184143693794 -2.0818924208094924 -0.455960463063705 -0.30601475513877624
Ni 2.1462501267643344 6.574498903254715 9.04145673813321 -0.741406135801878 0.46049023261325855 0.9821734917960698
Ni 0.23392926188358926 4.89153070867382 1.5160018856190733 0.08524158287832417 -0.28062022632507155 0.7663604917543705
Ni 6.4611047792474245 1.9415519982220437 6.767408344276646 0.0893553479363816 0.05105413836333788 0.37733381439873726
Ni 3.5675998602023173 4.602572990758276 0.5961944629092701 -0.7835678567715925 -1.3981139628234114 -1.342445979837146
Ni 6.077771946952754 5.754995568409464 4.822752429102349 -0.5888312177842182 -0.8133736272791154 0.23015692746819716
Ni 5.461964301234798 3.1630426515664922 9.027892821539748 0.7778042148149379 -0.7254015328435056 0.5395244011292902
P 0.09104154766998446 5.571795208776053 12.785838611787282 -0.06855229514810131 0.5381414047388345 -1.2068524268688314
P 4.078588795454 6.3001312353701655 12.731580211487756 -0.46798396988714247 0.3053575811707515 -2.2376495932098757
P 2.4709493663673 8.590513923839818 1.1123040409544678 0.3499258546994296 0.49338466934843417 0.09427438250455376
P 6.333065926695596 8.038115127663186 5.878862450377789 0.13325950551849952 -1.0564860864667158 -0.39553799611158974
P 5.4129996923550125 1.0886218654294544 12.587303663030102 -1.1448988679841703 0.448690154654537 -0.9728265033635309
P 4.258016337652788 6.43518716382697 8.389806415477773 -0.4450242757671755 0.03882879994173958 -1.0038399210259097
P 4.798868854385778 0.9611753634410324 3.323303552150546 1.0773493030689703 -0.2751957128753906 2.371366755091084
P 0.4520236262444698 5.8858868167512375 3.57944504885334 -1.0268302112734962 -0.43408500314685244 -0.5684325995232081
Ni 0.6875103144555399 8.783164553230968 4.517527853407088 0.05601533902335514 1.3100269400764923 -0.41532957691622024
Ni 2.0146480577464723 6.729931691092721 4.711633842567102 0.3050490487913972 -0.24289905762521394 0.6961786314226462
Ni 6.251303322774243 5.919741929721347 9.047178844575722 0.5183765634070815 0.8744956914014166 0.7889867137943186
Ni 8.833596368890886 2.753783090765774 9.887267728462206 0.07354229216352495 -0.1483454533173445 1.0921801974342158
Ni 2.6258353690698537 5.2865191774392235 7.048611737662911 -0.7590349046272348 0.5466191031925425 -1.310258596471324
Ni 0.5908004275480296 0.4204832370144427 9.423254926814376 0.9741125691648063 0.062201927450041265 -2.0528471826170773
Ni 1.5230791078889485 1.4811224618285486 11.4222494374414 0.5510694256544123 0.447118696402359 -1.4889644072480808
Ni 4.191308551127564 6.758847511672575 1.5428645280153028 0.025008606229195637 2.327065362070547 0.17386236664152638
Ni 5.7268725862760155 8.296234163939202 8.001753004847027 -0.39937099670443477 -0.8633941821716163 -0.3628523329531106
Ni 5.450427134876746 2.750657302408103 4.612666644358732 1.0523386399572456 0.045382541899857326 -0.3459943808555073
Ni 0.6938958535290678 7.444461393016653 6.8686565478084125 1.0260809918122973 0.7153914569056712 -0.930187842757398
Ni 5.257730940057641 4.735323308560589 7.131159889562198 0.05655912734196711 0.37371292981669835 -0.5442269488112821
Ni 1.1511558587540556 7.363610097654388 11.704693121776584 -0.6880711718241633 0.8803125551935097 -1.348276470475994
Ni 4.7685769578817006 0.7248502713556014 10.355536341080972 -0.5416144508890995 -0.730201011114678 0.6110537766278444
Ni 8.08060944577345 7.14554307255028 4.728426525385412 -0.022256497405355218 0.5665973460866822 -0.0008302092107792153
Ni 7.417559564352382 6.0141717226140194 6.872457615808369 -0.21201162401773813 1.5690059339827043 0.2565734697885129
Ni 2.4883918121882393 5.1716487335662125 2.8624648382140205 -0.7064967255192025 -0.42077671607372047 -0.4448445556562016
Ni 2.5460503047217213 5.346638203082242 11.24440210428407 2.2097209851204074 0.20483464665332463 1.843710309043973
Ni 1.0401767024283495 3.0643752738740613 3.8319048589774196 0.38056337707962845 1.5806653725985036 -0.9623927096247167
Ni 1.8985291211475108 1.3048298210730231 2.417498385451126 -0.20947265964596828 -0.5850144151412892 -0.1599015335860601
Ni 1.2267215644736122 3.367057298689467 7.946680806004236 -0.49271155454080945 0.6153346633913854 -0.09213111090930584
Ni 3.6386090231264347 2.963693904266046 7.243452241521551 0.2202556091940852 -0.49341346570384054 -2.808778508618324
Ni 4.057255062085757 7.1003421680195276 5.932267865866008 1.2711091799653722 -0.4896545128820406 0.7598687133824398
Ni 0.6128130857927943 0.3475229624653183 13.39180685899277 0.9407116251068574 -1.2813593969384707 0.4480160114056478
P 0.47737623035829096 5.648162866027606 7.911788623893884 -0.7851724822545509 -0.8654685482021418 1.2902227608663714
P 8.440640118212247 1.7873039115108509 7.884992507022468 1.283863394307247 -0.24179039794206747 -0.3566773144906502
P 2.1870676371258746 3.450678972071359 10.264091083719313 -2.7173400529006684 -0.6541143552627444 0.9454879634495782
P 4.108853352701305 6.324672774866398 3.7731382152360866 -0.6909713761900939 -0.8131926216165608 0.582874485980151
P 7.207584959252975 4.347069410046843 10.289313370709184 -0.1298887892740537 -0.05644368481002537 -0.38497770409724025
P 6.539377071387473 8.14884823067794 10.17679410291862 0.22258657132010698 -1.2943511812124484 0.2802314755270851
P 2.4499254779091455 8.650332217658338 5.862830710206317 -0.386810900651237 -0.3927684037862526 -0.3934044947083547
P 6.804877706992098 4.122140231492804 1.7390246066675001 1.7214936916031964 -0.49916502347563707 -0.8783718865273712
Ni 5.529355569179336 3.0321422901391277 0.2509233438934576 -0.03909053824355849 -0.2299815782325975 -0.11082894442912525
Ni 1.4499557091077475 1.2122773238120712 6.7130560791955345 -0.2598464841128299 0.25759496907449186 0.4879231320132307
Ni 6.838577897507163 0.9391216963111089 9.222839948499798 1.2340865799944358 0.722441421773917 -0.9994147953750206
Ni 2.8878548059787637 1.7690504010723234 9.021410683758956 -0.9542801078199113 -0.9512981423734521 1.5468296549959812
Ni 6.796958435613625 1.8271736609709401 2.321184917766819 -0.824577980635367 0.567580793045874 0.3874487913455521
Ni 4.102118782449646 7.193277414875297 10.581587340471248 0.43994968945774554 0.3380846390901274 -0.7149263443437947
Ni 8.154224951176557 7.383385493386593 0.1889880802921768 0.3218949167041424 0.18094421318897225 0.24346598587227747
Ni 7.795032682612121 3.947961826594363 7.990522038164829 0.1314165387724898 -0.10710855815474457 0.29621628099111563
Ni 3.252997919434044 8.684879925133353 12.326386909477689 0.6303848728562885 -0.006135937694408788 1.3317167663451002
Ni 0.5548383691893088 5.161761035700111 10.381224306744539 -2.0876203244322045 -0.6752616787643209 -1.2058147296329362
Ni 8.673242514833804 1.9719350255820292 5.273881150341794 -0.6319745859409116 0.517819919572663 0.3012862393148553
Ni 3.8356339336012066 2.8522499805752055 11.465931190604152 0.6788699649408696 -0.2126474578295241 0.3932792819844001
Ni 1.1261677780638697 3.644304701620733 12.684937616816526 0.28892411820507663 -0.028625891266808763 0.06210756796402207
Ni 3.140123241305435 8.54297095631221 8.148443609677704 0.4220380992846473 0.3165753042634419 -0.47784517895193834
Ni 5.69504057830708 7.741611774878396 3.6381050694932595 -0.3115778510488505 1.2360413897279614 -0.7021803575320359
Ni 3.173841657991682 8.497314397501913 3.4298728863588264 0.41753866875239704 0.2954228385555428 -0.15072783750659205
Ni 3.5243035905600584 4.376395319478287 9.014701630146952 0.6210790220743304 1.4221694611107185 0.8299531289043514
Ni 7.671386337315094 6.24118779776837 11.433400208970397 -1.093578106223007 0.8074114961584093 -1.1916932026298894
Ni 8.011568709336961 8.642212458396866 2.438145903474377 -1.1492671722551948 1.4031558961226929 1.152814523286821
Ni 4.87065262958512 0.3863510862423701 1.2809362219623013 -0.7124915096500569 -1.0237795973726302 -1.0135792598008608
Ni 6.046222444637136 5.775472671732165 0.09101876495600728 0.4967610420198348 -0.27809411746910817 1.0488653366966647
Ni 8.363971729136194 8.996301399030411 11.105793895063941 -0.8668983386701328 -0.4038529437351884 1.3527365631298767
Ni 0.13670084040595804 5.061708468997866 5.741135476534298 1.0704214656008855 -1.113966697181688 -0.5619629326384644
Ni 7.510221418640426 6.201846607272551 2.4699296120896808 -0.3872713852274233 0.14375757683634596 -0.18433755514123737
P 8.895847856562169 1.4250860985302427 3.050662813985468 -0.7761221991268247 -0.2932201744772692 1.0662405947503186
P 1.968225999746542 3.4240596490604056 1.6110878206742891 0.06960207656885432 -1.048304064876556 -0.7518923800451824
P 4.7241233263694 1.2115938423927555 8.003099918897359 0.6488412797892632 0.09778728075381868 0.28722770433926015
P 8.658005435725856 1.885287807783966 12.16190391633938 -0.23891719015933044 0.7271115735560768 0.19442630683580708
P 6.345313913729735 7.79014806873541 1.4679048424875396 -0.5964920767635856 -0.6510200326081368 -1.626577818859902
P 2.02179271684972 3.5613482834869754 5.697266905116932 -0.18889946348030695 -0.5926786165547664 0.8986596902421298
P 7.021049210293303 3.910953586009809 5.863136909882171 -0.09088798253082413 0.5303589325799382 -0.5863521601161064
P 2.501013435731605 8.878150244344685 10.339676838227168 -0.39632449656862717 -0.3375400794405671 -1.0060361573462804
