# total energy = -340853.27827190876 ev
CRYSTAL
PRIMVEC
9.38234237573786 0.00000000000000 0.00000000000000

0.00000000000000 9.38234237573786 0.00000000000000

0.00000000000000 0.00000000000000 13.73200644859291

PRIMCOORD
 96 1
Ni 1.6317112559345472 1.914485663498164 1.4239402290904069 -1.500483206520958 -1.666423232991614 0.9264859684257786
Ni 3.2599885746724953 6.063582501827669 2.928941078938881 0.6004952843857077 -0.7855491488676793 -3.676058398997592
Ni 6.816365335248128 8.01935985276362 5.458651305873325 -2.0922380257098743 0.1670139762611253 -4.21646288873899
Ni 7.706149127533977 5.063790748803792 4.266204417309789 0.8145835884268163 2.2242598021665305 0.7525485255719426
Ni 3.970944927157337 0.003995939486424382 3.1162998823816004 0.17456016403949937 0.7839182981324757 -0.9179401357382966
Ni 6.806326229236214 0.17995238261486501 10.580977548600227 1.8316461787905876 0.5038714278123709 0.5281231012708839
Ni 3.8564991186215196 8.606112760962747 10.256751015549474 -1.9605301809492106 0.3321117093361442 0.2582040634134005
Ni 2.3818857982603228 2.0265202101227087 13.091215662808386 -1.4581556493973404 1.1423460196553294 -1.6681576991842173
Ni 5.242177218527641 4.138175792163273 0.13455592052267348 -1.3387538756975397 0.7124380307043021 0.1126449145919415
Ni 4.9333668117275185 1.6424821846277031 10.519746507801209 1.386523943992967 1.1717095604191112 -0.5727373975461492
Ni 7.217695017173 2.2529536535727344 11.830741164852343 -1.5214808918185472 -1.6452882507852118 1.8458690072581887
Ni 3.4135024555761717 7.1387707557036375 0.459845472929642 -2.7411577241455567 -0.9468750736050918 0.5123419271772273
Ni 3.8325084699556657 2.108756438341797 5.781504264045438 -0.02675129995191522 0.14171149294059462 -0.32949818297269706
Ni 2.33842678980501 6.228449016632668 6.5564556953023 -1.0828522351650707 1.7528786336723812 -0.8206552485421931
Ni 8.047863407963801 8.592442688570824 6.978756788215798 2.2157581924534226 3.209755416357298 2.528637793032832
Ni 3.764298843127055 7.605561038231428 4.401781136649375 -0.10055995840294941 -1.091484714029088 1.2330761364520504
Ni 4.005744033884616 3.59639244949228 9.049721152710877 -0.46666653662729957 0.3092525453497836 0.9889673747894515
Ni 3.4147033953607746 5.023887647991953 4.88630123098157 -0.18729303822513552 -1.5468052295159487 0.04266308608616524
Ni 0.8625581120752205 0.1255226015803645 13.416402947686821 2.072281122971973 -2.008558130891715 1.57077742406083
Ni 9.313972940565408 0.5223862886812448 11.445997587233885 -0.18784119741912167 2.492200119031089 -0.9660259355019298
Ni 5.312563548715844 2.024793859182342 7.884093688946459 1.6155117908537275 -0.13159085956682498 -0.920386283285944
Ni 2.17389803931443 2.2454383975769 3.785845391684401 0.6899735310531988 -1.6740632660353747 -1.5038991741810424
Ni 0.8172207587380524 0.9712600507974924 5.6115572110110445 0.5028190752884566 -0.20169224436960104 -0.5143872397420303
Ni 5.101723557781519 2.0247188004458043 3.5213393423598474 2.243398322768195 -0.8937895066340221 1.9299980737986246
P 6.921635213242215 3.1364043649632163 0.5672639072571197 2.259024973561858 -2.2103851010669677 -0.6565430193088951
P 2.813651797851221 9.176474717570459 5.589791115649327 -1.9464204810207055 2.3852692241047886 -1.1802381667154125
P 1.6610123102104413 6.54717655899783 4.180325025666003 -0.600277769058263 -0.17219834867554212 0.43158306266060514
P 0.4730117135525566 2.980038252071109 11.430425714104937 -0.3192531082059211 -1.0845435068245646 1.0595698675983622
P 5.109585960433841 6.050268958434299 1.0631732266247003 -0.6667538984036259 1.6541809252891513 -1.58169767051776
P 8.467573097998336 5.137798663029939 2.2266718369740683 0.6335344742288638 2.3465509815989845 -0.601095636973868
P 7.274627068836825 0.9411052033934822 8.418282963948252 -0.4724893139566637 -0.21276315747178198 0.09455514696976619
P 1.71258704455389 3.243137888319788 5.4337139788928885 -0.07735806636518937 1.1264218922259053 2.606394380388021
Ni 1.678988877611214 8.67599244467932 3.5447933210594567 -0.7709188005490143 0.41680179058637257 -0.31101169413273533
Ni 1.170090643885789 5.530843736909465 1.7684213621958518 -2.7620564219714367 3.9532654858760554 0.9064429337319743
Ni 7.523709486037094 2.9806011925951412 9.700837865725264 -1.1290960966239585 -1.6708961811613028 -2.684629192931209
Ni 8.774103595676127 6.801344205598527 0.7342095490642127 1.4762140495609481 1.461165896978574 0.33314966368235527
Ni 7.51447726144296 2.9861367744147946 5.016453080137896 -0.02207754862532972 -0.4617464736178628 -0.498286991746058
Ni 3.888277111203157 3.624117270300883 2.6839071423406127 2.042946121453282 2.171462455859841 1.9171348446827108
Ni 5.643713311977991 5.419081278204869 2.818370177676821 0.8395279170769798 -1.5873075605053695 0.6933702154395736
Ni 1.3837641021244105 7.25164971311423 12.70931493483629 0.2560911308354557 2.106904112362481 0.4109766992641632
Ni 6.538160128271242 6.037077385487803 11.385219713556712 -0.9325211188762649 0.5727050016463169 -0.750495756807972
Ni 4.161547206252691 7.283699793615817 7.890149990750842 -1.016840447050636 -0.4571652820050836 0.44596915617894806
Ni 7.523540603879884 8.842951221765308 0.6953394441139717 -0.0262915867066773 0.034611162315966205 -0.3163750153271777
Ni 8.843776867867222 5.449686478028105 9.972553306694262 1.6635304848248513 1.6833891714219913 -1.4840281462887281
Ni 6.676333879895032 1.0676260861697977 5.673337118820997 -0.9062076777927167 -1.2131799117487558 0.48983834675807253
Ni 0.20023888263258466 3.1926890350244044 13.618771621968662 0.5093391357951615 1.01534920721709 0.6654611477341313
Ni 0.08644889980726522 3.313786924085873 3.062937811874349 1.5254601881812697 2.1057149771503867 0.6968262923089741
Ni 2.5772730718099535 1.6219160908163806 10.63536980026646 -1.924616240661421 -0.2762989732418984 0.522844369370448
Ni 8.423476090282453 8.822141187060238 3.895001435762726 1.882983909832615 3.004714310120122 1.2631991810896763
Ni 5.294755863472281 0.9850333289521555 0.4147408016757407 2.843566305721471 2.7213484027291135 -0.9102849331858838
Ni 2.3661140812453443 4.027736243690153 1.4190651641522851 0.814440635091049 -2.1037377988193575 -3.533697445398456
Ni 8.696755567674055 6.372749437626346 6.5227027197155145 0.8664383683145789 -0.8081195779690277 -0.35328525808996575
Ni 7.994740587179263 4.2410813199564235 11.468202776204349 0.9673590524910567 -0.4976593854643881 1.31058229835933
Ni 6.4393077722511265 5.246980977666052 9.14169812846414 -0.45445585349372053 -0.01843506677673599 -0.7468504467459008
Ni 5.701480392085799 6.132477039627185 4.845461772431423 -1.2122085489744219 -0.12498543843516538 2.3083225342454052
Ni 4.738073361598559 7.565967554707805 12.331547128544802 0.772597730913334 -0.39280979854714937 -0.11082251667122206
P 4.628618959042498 8.40112735147836 6.1665358795653615 3.3020783315624356 -0.6146245246982383 1.722586410446743
P 1.3100282758182138 8.068654677984737 1.3299103968928367 0.36894199079061624 -0.64582768977392 -0.36991335356495003
P 2.578624129067632 5.145379595420244 8.38301849305444 1.8639832003603962 0.55911877832145 2.0272353955862443
P 7.656216303052289 7.276240831672386 9.452563268176982 -0.6364251655130976 -0.43605112573428767 -0.8733538644874894
P 5.60034812694335 4.009675235210777 10.76992947372596 -0.1532359486404264 -0.5494123496669635 0.3780596368211683
P 3.5427254528678436 1.30950286466245 8.782538321194547 0.5248819686257671 0.15759551116070275 -0.8078773800512344
P 3.757740586022076 1.7416347755939694 1.7984392274056809 -0.22250738134273937 -0.43118145634681226 -0.6379544576734304
P 7.46425358435719 7.336015732982576 12.700361365801554 0.30362182942656746 1.3281488464881834 1.900089202054334
Ni 2.020534275883829 4.325578692613709 10.88268364598706 1.31078618684002 -0.10870212789410957 -0.2724528600229308
Ni 6.540477566761843 6.82658270575932 7.244732112308077 -1.4222795043260215 -0.8939034065040671 2.019767369343973
Ni 3.9532498300185805 3.182631164328356 12.20025532482731 0.9766240227327503 1.2912406606079245 -1.423698496160735
Ni 2.0153833700889314 2.3584487077764344 7.577650447049893 0.3232128641846176 -0.6546830832820209 -0.5007560221118408
Ni 0.8291203831818938 5.1250199131344 12.882516722333799 -0.11554460473723972 0.11648768537679938 -0.5619763023749031
Ni 8.995479956751927 7.684907505093815 11.134898827203571 -1.4735835539166364 -1.4739640771845066 -0.20110577573851174
Ni 4.39697831574517 5.022405237945334 7.035593139990538 0.8021787870045604 -0.1837513436204642 0.5997486360276704
Ni 0.26080846831586685 7.761927151123535 8.624345466301955 -0.5359379693296125 -1.1887539174959074 -0.3486295044855093
Ni 7.254023445657234 3.5537497047968145 2.663734168661906 -2.9028130071979295 0.1800137309549029 -0.867444698091906
Ni 7.727221867816929 5.164988690340711 13.393718321036724 -1.245421545391281 -1.1240569915381544 1.857810238780465
Ni 0.003059581748116908 0.7075890299169201 9.048334442553344 -0.7653305078279593 0.7515884756515185 -0.06636531479911152
Ni 7.39681330957809 1.4040768726999184 2.6140799997396154 -1.7435180183930874 -2.2873924689609573 -0.5351344995917106
Ni 0.9161744440524939 4.489478826185786 7.408829275063565 -0.7465257164166303 -0.45832459242050744 -2.3284992663035964
Ni 5.274377416502302 8.302903612376749 1.1650298085747364 0.7933655595883046 -1.6952530127391128 1.2133187513194652
Ni 8.58270381750506 1.382262927393657 13.491036664128849 -3.7459029305945553 -0.45100569016159103 0.9719181326166486
Ni 1.842260394264788 6.52693884715886 9.988674985068348 -0.23183920026662652 0.3255104019695427 0.17968231575741314
Ni 8.609753109684824 2.0818103519247724 6.987764774834526 -0.4067315508345641 0.7965673543550539 1.112438947683252
Ni 7.5806321553588525 7.26318061151483 2.808085254302746 -1.8994238005561934 -2.07927786600478 -1.1633187652522545
Ni 2.079502295776239 9.162907850941275 8.630291056469945 0.9144863728617412 -0.3163806717541326 -0.4783789399682213
Ni 3.277768112889857 0.2274279717091501 0.18598241386146033 -1.3115274358814188 -2.322178723402207 0.38241482846607044
Ni 0.6026081280585034 3.0325136912530093 9.289715833384847 -0.5011499151161497 0.1441041615424873 0.3208106825010282
Ni 5.74918021915549 8.192679857771175 9.24122788958151 1.067829279393677 -1.1879648459357088 -1.2531947615787966
Ni 6.761065811103998 4.4862231534884645 6.739448894981147 0.5119354357674281 -0.11319024557245022 -0.0714913231717672
Ni 4.143467433089179 6.140255001200902 10.242373514565683 0.6976904400814823 -0.8972643525564997 0.3282429704093573
P 6.160896153748762 9.107261180140657 3.5355385788443616 0.34904885141111497 0.22749866390974366 -0.3255561676058136
P 4.488259121717048 0.27056516583155765 12.028468394513537 0.13505670662823838 0.6483041763388706 1.376117146837346
P 0.8113858802064551 8.245296032084084 6.429078204695249 -0.5478943703605403 -0.5811438764422894 1.1390737766619607
P 8.376489321209869 4.323833576989208 8.192102843734041 -1.0426427528257205 -0.3423128182388621 -0.6836337048781
P 0.012510414912416697 1.3433168254726717 2.7986653828672683 2.0107435685788078 -3.1003709176841827 0.619902485267726
P 1.5555172560067414 8.557211994108451 10.83978476335316 0.7167474567129333 0.8754817094637698 -0.6669274478670126
P 2.8931014704763487 5.784861266037086 12.352254895721337 1.0166393867834234 -0.3548559450111953 -0.7434591616761648
P 5.336113227304539 3.835069849340014 5.1848482937943725 0.06438479403397299 -0.7288023309949384 -0.5291019202443855
