# total energy = -381163.7827080006 ev
CRYSTAL
PRIMVEC
9.25812924184853 0.00000000000000 0.00000000000000

0.00000000000000 9.25812924184853 0.00000000000000

0.00000000000000 0.00000000000000 13.55020797149875

PRIMCOORD
 96 1
Ni 0.3122220803309183 5.577560032598698 13.136141256266118 0.44545262155384574 -0.195279913085354 0.4397684266848749
Ni 9.094464148630456 2.235699368366 9.868264155370632 -0.7682453674819091 -0.09288804367998842 0.6699942597177945
Ni 4.803265641750729 1.0988103411552976 5.805166513836017 0.22505251636209628 -0.1783473989960735 -2.183634058225368
Ni 0.3523144095220025 6.69704377661364 6.490563420761642 0.22257217314240377 -0.35913606044378793 0.5187054075014099
Ni 5.278503938029848 5.201698496863878 12.374903605253776 -1.323201015564605 2.073753079531809 0.25009351849112416
Ni 3.9027829477334985 8.347296076805664 13.299868496549127 -0.09527968384061655 -0.22248912651029423 0.8597570996396613
Ni 0.6694840341826092 7.9462339129544315 8.605452533303286 -0.5713410314192546 0.4455194702360392 0.6374235248706248
Ni 3.5823127999562487 3.5810259199752856 3.343635447630904 -1.1502025395852706 -0.42884278091130656 0.016888548225222528
Ni 2.2666585529439898 4.3132143384964925 5.223266235019645 1.3769098179419705 -0.07691223707702237 -1.7633880178441372
Ni 5.465860701876973 5.663456956795645 6.914860711866279 0.2598079175654106 0.5860461988399133 2.1873457027490004
Ni 6.786597661907568 5.917361154478471 0.9237243019611844 -3.3761199319598822 2.3734550050786805 -2.068259660517406
Ni 1.9024622602020733 2.293979292683717 11.308122688430421 0.29946152740129073 0.33234799371666635 -0.37820850369420667
Ni 7.482299792623195 3.8328748129403163 3.8288688203664836 -0.2838330768354144 0.20436901987081577 -0.12275834887685955
Ni 1.213870372834502 8.463763344147504 0.2616884328482501 0.2704720821474761 1.0043711109390316 -0.8600558618270026
Ni 7.846671989822941 8.23074548629959 0.6860783052464816 0.2731879384167424 0.6379184622291724 1.9279877282368147
Ni 5.627896481926009 2.395642811179802 4.123775421356428 -0.41976190165596095 0.5548247789317864 -0.6366228833462003
Ni 2.536514507513144 6.913563647943021 1.5266210923518446 -1.062498611209383 1.3361956280520602 0.24584579895836367
Ni 2.611977519921994 8.411528978301506 4.052040657640627 -1.524063050723427 -2.102993464454165 0.3545767232078797
Ni 6.005091188288589 9.293310251012652 1.3694921208633144 -1.899038649302633 0.605798441766176 0.05384944172028791
Ni 4.296077541052156 1.9064247395679164 2.058547840511794 2.005534770684359 -0.4265131043368655 -0.41973824750687716
Ni 7.315255364590697 1.196298443310272 5.256179810705414 0.6558063982531867 0.3274312731413393 0.9936971761649533
Ni 5.489357834191249 4.780990582511899 2.6323722530879192 0.3963270676717884 -1.0820737051278333 -0.38060425761989286
Ni 3.8158491130482934 0.8565325023220636 7.667357762950368 -0.9239274636699829 0.8328404777544753 1.202696752829245
Ni 4.563183831201554 6.974704334232808 11.15817617369895 -0.10589576879356602 1.4845390244868757 0.4172193377397653
P 8.222811269438543 0.5953171598840812 8.55919243833294 0.31458218509281305 -2.054819990072732 0.8107966105805585
Ni 0.6955364102000924 9.499396210553938 6.7927330242340735 -1.8252644436339598 -1.5032317158003723 -2.245376786650804
P 8.590683039536161 1.41621604811457 1.3280814340514449 -0.3194865643729659 -0.7508024894151134 1.1430674712023863
Ni 6.300888421322914 0.9472640216705137 7.4912727715983705 1.680883117170686 0.9852760419807933 1.0466382471383588
P 2.0575637013608845 4.280088751648392 13.023701275195638 -0.3216313786301106 -2.5002039631721718 -1.1680578225991367
P 4.415053761450406 6.357631496166962 14.267692046088165 -0.45775303618775354 -1.938938570821364 -3.8015002082438847
P 6.9782594559068345 7.556096341747345 10.903608168141048 -0.718700466674246 -0.7877471849602627 -0.7954540666862171
Ni 3.059543267545729 5.770767934200991 7.329443447834049 -0.41118187329643374 1.79982774872841 -2.8025862637646832
Ni 7.183188149278189 5.53016766840769 5.4112756969866105 1.3336291528764646 1.986252011195347 -0.885623682993778
Ni 3.677625241711753 4.127042615207377 8.52188865770492 -2.6310687432062494 -0.7537173490690632 1.034934071327553
Ni 3.950832639109027 3.4388580855316215 11.819711178013538 -0.5505125247096777 -0.739000868794495 -1.3180271846731495
Ni 6.573679202899012 2.537810645623466 1.8178281448497549 0.9638718652734045 -0.45917588467720916 0.8619319958037931
Ni 0.2852235234928997 8.616985385046348 2.7193236782189074 1.2207834351276268 -1.0806279738202422 -1.164643140490633
Ni 5.014175086688284 9.468474058493387 9.538126668916247 2.1274875929407875 -1.4858960527354024 -0.5768920431444711
Ni 7.414835803980906 1.1805503652698528 13.123918673885775 -1.704663764530051 1.1604776962590337 0.2152069910265842
Ni 7.584194764353265 6.991267127656857 2.786668236992459 0.5919890466869095 0.09535887381798415 1.6968913196734843
Ni 0.6352067360421935 4.35424636781756 10.794989942870147 -1.3423613905431397 -1.5450267974592877 1.0307074348407153
Ni 0.1821823953481292 5.662595950765216 3.9690591183789703 0.43570351258688184 -0.1877661212068121 0.05104308261974435
Ni 8.538698643182867 2.2680843048653445 7.41872514412481 0.1543114410927923 1.643957190678614 -1.1821358979587577
Ni 3.8680742207649326 3.7912502633402436 0.4916594403239715 0.3935687882003609 0.7046930966515607 2.288311381230801
Ni 4.685576301333441 4.918853386803421 4.977222189162989 0.8768413088154576 -1.8182458462242814 -0.9758951149865258
Ni 3.688651673778855 1.9621957108292236 9.824063068369824 -2.117123218987328 1.4119830074960198 -1.5707555696839595
Ni 2.799899029660044 5.277716997034296 10.783269151101088 0.882810639025015 -0.3042684618716308 -1.2100817324394062
Ni 7.688524624104872 0.48278367170706993 10.865789635520645 0.6149988773185215 -0.2826421418511068 -1.5645381280193376
Ni 2.83093227927291 1.3261529657058722 4.352990965476419 0.7438126883608416 1.4888620773422616 -1.06124494130794
Ni 9.613641526849511 3.141033322167579 0.46579500433248516 0.5983011049478663 0.4121498936366579 -0.3831884734073014
Ni 1.737417588111216 4.605743451866931 1.747475619847319 0.13288566711884855 0.24296564919709124 0.22933340312563727
Ni 0.2561779942535074 3.1074818613689437 2.936872127720123 0.6533723348903974 -0.8381534053269565 -2.487035029890381
Ni 7.611385890281961 0.47912856223596034 3.091968014001319 -0.9052941648395119 0.2599287594139911 -0.44112622626435
Ni 0.4739903004414674 1.0624814415488286 4.192814217802759 0.2540224212318851 -0.5537608564436464 1.410071906516236
Ni 1.9073227781157829 2.165291294587407 6.263299490310624 0.1523718008679182 -0.23214490443250343 0.2409568462971786
Ni 6.570438857623206 3.531744897394951 6.309884545621487 0.5326716398735148 -1.2682025478415384 -0.6139830344594975
P 6.094358071572375 7.623699202330025 4.616054230534547 3.7921192812496174 -0.020018609213771972 -0.253746284752363
Ni 0.9250195142585709 4.3061411276658745 6.939563252623155 -1.9617054322042344 0.22688956957083506 0.7565095671022198
P 8.070681687804115 3.2730449887039303 11.753301690305289 0.05634135490420619 -0.6075282799730892 0.4329526893146221
Ni 5.246794844973743 7.066683849418911 2.2823695984669707 0.5406502872036172 2.893886137021945 3.3454546416655417
P 5.0376444446144815 1.7466572012119437 12.496056411864432 0.1504406452834764 -1.0134543041872224 0.25119137954099324
P 7.7087628948846225 4.851935627793339 7.696883789103516 0.2223405167475719 -0.7564478606263487 -1.1668440047966937
P 2.04308398704271 6.393627103116492 5.142181686463739 -0.24244500080693082 1.4522192293082472 0.1197362742210841
Ni 5.766823971093868 2.5015928435693104 10.276329168269351 1.8156323198608344 0.060713001609340594 2.7989298979590185
Ni 3.2463352855019263 5.834815673109645 3.3095571992717163 -0.17134294265378233 0.28245702242349424 1.1812918047909076
Ni 2.596247958140294 1.3787021079500918 13.450952835378875 0.9494847433137972 0.15614360920552464 0.4046630983413095
Ni 4.270395490209051 7.077358472570354 5.206138695704669 -2.204237079187701 0.6487142672930957 1.118913242553686
Ni 4.100138491288825 3.1845372720276193 6.378706701840808 -0.7645198390012059 0.08797800797288075 -1.0283744158321644
Ni 8.51420163289777 8.177409403059817 5.018509742854378 -0.798930712380908 0.13115762868414832 -1.28733258380277
Ni 0.31137310986865707 1.3979497588883816 12.630081721536463 -0.08761188288271363 -1.8709346919775651 -0.7183335702531306
Ni 5.39845226201084 2.9366138259109946 8.17905457264699 1.7075508562698591 -0.5117063504757575 -0.09048149112102481
Ni 1.579677580084962 1.3558345284322584 8.393134001077222 0.9467218358566791 1.025904357025117 2.6092840432309905
Ni 7.546949309940211 8.11611132857092 7.166813295880136 0.9306740383651972 0.26829615754207986 0.5661440605993475
Ni 7.139563843736476 6.451638541682785 9.004980625119659 0.2102776720457669 1.220170484133976 -0.062463151531227896
Ni 4.864906267025924 -0.14450921535866845 3.746456656060432 0.8141544713091978 0.9501961675585248 -0.4154735586932522
Ni 2.630151227854588 6.223481201748579 12.817656977236469 0.9839287839242797 1.8775064316578116 0.2093063092714331
Ni 0.9605494373013197 9.333120207258274 10.65059923156728 0.5393683351674001 -0.5492148889441767 0.043916498877292105
Ni 7.375923886283151 4.3521355143236065 9.959958520172464 -0.34820938622895514 -0.3718879607928176 -0.1873310905519225
Ni 1.2760294533538274 5.628118677030637 8.842472680473291 0.02479520466680891 1.5902309047997516 -0.02835412566266084
Ni 8.51656245588443 7.701041614998844 12.306299015074405 1.1276519079782643 0.24788159844146987 -1.8756686071181246
Ni 5.265274071175199 8.338361981973799 6.946581840490552 -0.7538973262903533 -1.752934426610981 -0.3269543335049208
Ni 4.802793477153396 7.0180416377643775 8.904708603466299 -0.5152074216504805 -0.6080301593101722 -0.9458790282404098
Ni 0.22003240560835535 3.1802322418754767 5.034430947913818 -1.5726628140090013 0.33447583869294656 2.1168002884302703
Ni 8.156504546966186 4.584644175056752 1.469817839666959 1.882377386596868 -1.6234544427395718 1.9774511250742655
Ni 5.94700568468742 8.935789069538897 12.165404173417665 -1.3504410822274808 -0.23559275377178782 0.5393907037649033
Ni 3.239715723009922 -0.04176712479220809 1.9733573115849725 -1.1407640198801903 -0.5842484835095423 -0.6350077163402806
Ni 7.508990979566479 5.480710741369525 12.319199292523857 0.1887552245929588 -0.5427058841810652 -1.7243792406811078
Ni 6.1936885414698795 3.519848201168062 13.386656978603387 1.5211109100736382 -1.3657805407980286 -0.4343194877551616
P 0.23608415029176416 6.835582424348401 1.2861300724849838 -0.3786116526698963 -0.44142730244453654 1.6645825802384495
Ni 3.5652871000642263 0.22015183547709222 11.218285504378093 -1.524243285055033 -0.812117129164195 1.5437013937796447
P 2.217368272234295 2.1661060099710387 2.054997347902446 -0.6583031965331114 0.15193574177176414 0.2016405651960592
Ni 0.8899191684181005 6.49557762362272 10.996020963781175 -0.3403029868976849 3.537932823636042 -0.18117509825285572
P 4.821865223633856 4.809413039645401 10.09430879018501 2.0947525646016114 0.16528156695105084 1.1048163981409875
P 1.2915090456428224 3.560528421573471 8.879194124764599 0.8224128546632481 -1.9987401163600285 0.3643569425230951
P 2.75679317936246 7.779726456424781 9.598506336972688 -0.727745864705966 0.03569899606350626 0.374166215304033
Ni 2.699485358627485 8.170549129204467 7.281434492227702 -0.06139280128518458 -0.42073814952630123 -0.1374069520279698
