# total energy = -340859.1209801141 ev
CRYSTAL
PRIMVEC
9.40456610621110 0.00000000000000 0.00000000000000
0.00000000000000 9.40456610621110 0.00000000000000
0.00000000000000 0.00000000000000 13.76453312454568
PRIMCOORD
 96 1
Ni 4.514906389775731 6.700781433427993 0.30813025742585143 0.10172055436995385 0.43731379449679525 -0.41068153662124757
Ni 0.9837740228815439 7.498298028215843 6.790071203665305 -1.1474288334948755 0.963904518283553 -0.9409628218857149
Ni 0.7190166830333399 7.3842394527086315 9.377363215497764 2.3949579121474627 1.4484669613546666 -2.0201172964842242
Ni 7.523003822894062 2.082706955483223 6.926643369534219 0.38948047706360023 0.2341447084713516 -0.42769915422516663
Ni 2.245706892050752 0.7415622489191775 0.6733405872612898 -1.923844395492403 0.3601609021638765 0.616235320828784
Ni 6.571045446528094 2.6041054947885756 4.456680841236792 0.7566260380754259 0.5165999311226328 -0.009597156770131858
Ni 3.9053024266839227 7.358959979509144 9.35670232462278 -0.49155790055234055 -0.5092257501457488 0.7541611214747012
Ni 2.5189377457950646 1.2106967940238185 10.254136789596878 0.8818619019585006 -0.41214757964381277 0.06668670269427225
Ni 6.872254883891631 4.805958895943045 11.45750084357098 -0.7668829399167437 0.25180073099021794 -2.8894571547163137
Ni 1.4121802143459241 4.391753599021531 8.25445240162026 -1.1970799208630998 -0.13952091304717906 -0.4337245344836402
Ni 7.827429621803069 6.059145518804394 1.851660282183964 -0.5991210297460005 0.0308115860642179 0.19844545529752922
Ni 0.8598980210079095 9.025947502957344 11.512654860879653 0.528025142240439 1.0557193835040204 -2.777453730363113
Ni 2.601829589835348 5.762083495012648 1.2918027109954333 0.6939623404976177 0.33543460306179007 0.11442900307555776
Ni 1.0289065347432778 2.9630871806135897 4.13606320117914 0.3004912542173857 0.3909375212251009 -0.11941462921560725
Ni 8.584920384025065 7.593688540367035 4.245711035268733 0.10037252498249165 0.18535056978678402 0.3062777789921758
Ni 7.562465381504572 9.409926525004172 11.807739104457912 -0.010724585506355723 -0.24065834122015325 1.5655781392480779
Ni 5.154868291665137 2.3602733141177747 10.412043213260821 -1.3107327078942652 0.2664223375581347 -0.46293483749900916
Ni 0.9244754133708563 7.814310252341282 -0.5285939726926022 0.6845467036106726 1.6744515026127291 3.9141824038316653
Ni 7.056998176871814 5.1386266063171036 4.134920546419565 0.07972425260452076 0.19896404680516055 -0.37148018383143766
Ni 4.5640452467204184 0.09434660533380158 10.729811269843976 -0.9260933609730501 -0.6730330465441183 0.3573943951623329
Ni 8.277823688394086 5.076932653865974 7.72699544094768 -0.6685050767667777 -0.0968107757731623 0.09099494042233361
Ni 5.636344448629781 8.628642210998434 1.0417635168158297 -0.8398156235207278 2.5511002358014063 1.2938585578467459
Ni 3.855937860157096 2.986316458441988 12.383371894524725 0.08429001759833225 -0.8322812628168956 -0.07665204143710026
Ni 2.5763055979218774 1.79719373864422 2.964701004125878 -0.23445812594671234 -1.3730804168935515 0.09381904013469003
P 5.497881024553869 0.4807642313243159 3.349172825427042 -0.3139486652738722 0.36383140903692823 -0.5365475778891533
P 3.1056415908657593 3.2610050199042764 9.232945760736362 0.6288393827460396 -0.9098442461040395 -0.5916758863218649
P 5.579973480490746 6.062117361635882 9.966044840781946 0.9294933877935347 -0.3523768873430835 -0.42680543876630367
P 8.583378035213785 8.57421798800534 10.061776738676121 -1.1017004782198252 0.7897269343944529 -0.24833488392880457
P 0.15307059586662894 0.8392220828274506 13.190317507106402 -0.6946182289140619 0.1371845516045186 1.0477013982955505
P 6.50232628333291 4.0599605132782575 6.042079053024964 0.7008981483855026 0.6184662670418316 1.2540000310889112
P 0.3983501392328915 5.824924804506316 5.504849807902388 -0.06398113083765111 -0.028024767347700125 2.3952757004981975
P 0.9295012133998019 -0.08395173861974148 3.5142229573656607 -0.464717897541361 2.4362889096857656 0.9592461935759351
Ni 6.444290707025604 9.115027551374585 9.805908594537796 0.8780540981766362 -0.08094886904024123 -2.460937561472381
Ni 0.09033555796788588 5.221424404698163 3.6405403845527573 -1.699370377341596 0.2735694901258772 0.05944621908177504
Ni 3.0184894784626155 -0.17718108152195858 8.076628988245801 -1.6354242135069386 0.9594207714805864 0.14084400273397676
Ni 8.632874265663526 5.897189489054255 9.874868514620594 -0.9886914954202456 -1.4688838344481217 1.6809401956608663
Ni 6.011163423468165 7.873107598488303 5.50501438780603 0.7600759442972395 -1.8240737657599682 -0.08895785538764679
Ni 4.59572922931308 1.8514580840166317 0.9643159759880396 -0.7802624465474433 -0.6262304843682828 -1.5438384335781412
Ni 3.9811972736779193 2.3772015327781464 7.352531958701165 -0.02371945510412689 -0.6046540437490877 0.070581152652672
Ni 3.6568620087111317 8.593798294255837 3.5245322425298267 0.5858613365226167 -0.1483390255594413 -0.09400441667261876
Ni 6.91431210269673 1.3455770784832866 0.6890245818501235 0.6243805756437376 1.2644909033179061 -1.515277591221313
Ni 7.062829007743719 2.465736116371887 11.899149604310733 0.8373072552765773 0.49219861946013305 0.4100616436490615
Ni 6.522564909197976 4.936390820721204 -0.19660997426110338 -0.21033063677088937 0.31726795945509234 2.121128740602295
Ni 8.135598437949202 8.557581310888565 0.4516119578779724 1.4385129354657484 0.6801434323366544 0.18224313450605387
Ni 3.7450674324975877 4.9000327688650955 7.863209292854948 -1.308155434085392 0.9149581702918371 0.06255905367914388
Ni 3.7221673144764744 0.09254375004647206 12.916403881876121 0.2630904449714243 -0.4305458796453424 0.8364510779238692
Ni 4.682599204738551 4.604155720379576 4.607594970137408 0.9947978654282997 2.429330218979745 0.2381160344142738
Ni 5.563205139451056 6.078039291742553 6.874186581732097 0.9106885963822057 -1.6631216794222066 -0.3005051381744567
Ni 8.766278033273172 1.3973492138862547 4.3454220050046874 0.9744815224684507 -0.054693791998454186 -0.023614296984830297
Ni 0.8218302190671039 0.22191013750562022 6.012829912549619 -0.2795519329615573 0.9605813674475908 -0.6468697578851892
Ni 6.085421875991659 7.342069379112464 11.643363279895931 -2.1316152419559162 0.6160993094715518 -0.311826733834863
Ni 9.232923189778147 1.8772454037759305 1.9250939542760617 0.763230430765821 -0.1394916024711404 -0.4275487446902314
Ni 3.3619348213837776 6.484457608080296 5.846637125851426 1.6023156038784274 1.3695950294481123 0.8556950137551456
Ni 6.401161367705348 7.751957980275582 3.3348713020288057 -1.1668614882981903 -0.9888940983493549 -1.441555321836498
Ni 4.856461414946485 8.258149336484367 7.3165237566973715 0.5099993950869797 0.8983048780058722 0.8529375056146665
Ni 8.117964876844649 6.759296642597342 12.306607125182902 1.6512974330937689 -0.28347697904757635 0.024003047782816728
P 4.451623065683711 4.359900334242266 0.05257434487615142 -0.703226539408363 0.9612719657567121 1.354866979209318
P 8.522699775882277 3.6737714182396584 9.792267271667313 0.801912163606735 0.8244013458481867 -0.09648193167883384
P 3.843693115326094 6.267541295079485 3.343927899012104 -0.7719382429524642 1.05788579502772 0.6951267931193641
P 6.737073653322645 3.682423618888292 2.2856556071760434 1.0833152908444181 -0.5349498943847303 0.011676150786347634
P 6.6482287190534635 7.146633094678479 0.11026195224432715 0.36079442198281736 -1.921829936165535 -0.41047353437549955
P 2.5205365220018767 8.090842108724367 0.9536662455374817 1.522611662988881 -1.518758864901694 0.2711202572544363
P 3.6383162047121034 2.9442028122413535 5.008927297224301 -2.0545412824900486 -2.7123150888822516 0.2882607735894649
P 2.2493840773264218 6.546753452750461 7.910284788036256 3.032269336920255 -2.4310600571866585 2.625701565357065
Ni 1.6141338629641515 2.3182443090104425 12.438072611755938 -0.7551473966473704 -0.880059301532123 2.5549823444646322
Ni 9.087011349491672 4.0908733214652795 11.922067591007098 0.6512012953810076 0.8870663289775755 -1.5440526064714764
Ni 0.7855840815454725 0.6560681614881578 8.751861774170683 -0.7901568228430198 -0.3282617394624347 -0.11709369439191447
Ni 1.763713483960375 7.363257866135694 4.405407147827712 -0.19877404228154155 -0.15924898760372574 -0.02140314826612443
Ni 2.247888751344756 3.0504555980329493 0.9213465142884643 0.14091573651217668 1.7332274351003567 0.4151825098153947
Ni 5.68176850203511 3.845931402015632 8.125836498521723 2.006807466749195 -0.3753350388011536 0.3816208718098653
Ni 6.882261342033094 0.38041563201882056 5.1104956687299365 1.218876705023217 0.3189222072290636 0.11037154517673249
Ni 8.478347842992106 3.5912839705340387 0.1436039598091125 -0.48654270672593625 -0.9974795260255209 2.6168988794637706
Ni 8.874063763310124 3.8220061863089745 5.868976731743563 0.4529936671258972 -0.5864367494101127 -0.7041827326740453
Ni 4.131642114739007 4.61346624064278 10.566701299855156 0.774515259651021 -1.0863229673224906 -1.536280418725225
Ni 8.006671243718632 9.09421524698825 7.775515477454673 -0.259206793646302 2.261486804838789 1.381025639882557
Ni 2.2186687650237706 4.587857607636008 5.626432036147541 -0.44141496114936235 -1.309322714920616 0.05067181532325466
Ni 1.0854938078985295 6.625112296016135 11.4500543082736 0.6226725918136954 -1.6381238718262885 -1.118669759084312
Ni 0.23628219514827528 5.941560231076272 0.3510950168424656 -0.24887275871014558 -1.4815318622294356 0.36685708323712946
Ni 4.734822759305796 2.735327403104219 3.0126153865874663 0.3852314719792591 -0.05263305281468355 0.33127738636030685
Ni 5.292240786094049 5.2341205686934416 2.0989533431142187 -0.39256451530556263 0.17912670036425923 -0.2592774989832373
Ni 0.7550559201046778 7.645507698599615 2.3515327105494697 -0.39595554326498256 -1.256954999952177 -2.6220675681489034
Ni 6.9603098346233265 7.027749976853062 8.586397841331477 -0.3289903900983431 0.021897057183407447 -0.2949716099507371
Ni 4.539236001817053 0.7565503056297517 5.4576924929975545 -0.44172117953587153 0.4078281263328525 0.22919353511366336
Ni 7.525759360709334 0.262089264496011 2.543478960569641 0.5722218913623113 -0.29256608583303806 1.2005311126364937
Ni -0.282711596650712 1.5130253747321238 10.910016859766587 -0.20471483324600873 1.389801072082342 -0.42001618375861216
Ni 7.1681507415089945 2.107694887139116 9.404672194023311 0.582958561053525 -0.6894557108765158 -0.8845255648335928
Ni 1.428769868633088 3.166865315020768 10.511904656051534 -1.144708606350235 2.506457400281051 -2.22277550431152
Ni 3.4832066989534916 5.978774098431322 12.103194828390107 -1.0378407034513868 1.2435947765951871 0.7932526881595242
P 8.296068546283598 7.664881104399817 6.432000820278175 -2.2820147495888117 -1.352393320857845 -1.4093849077515406
P 1.557048147815011 4.949340907996388 12.655745051856911 0.6305288546333205 -1.2919559415073942 0.14840973089637666
P 0.5657570553916702 2.0658727824820766 7.131170107388822 -1.205060110855099 0.9123117338079255 -0.6527470426015726
P 2.8951674055218115 8.739211692548423 5.875707579574244 0.5283894675583932 0.07108714575481306 -0.1007929003493619
P 5.430365645796755 1.2874192428189892 12.477190903710277 0.3258857830310904 -0.1069190678517578 0.5607028349791182
P 0.9886361834634394 4.651216168255408 1.9864831987913052 0.1872516434642388 -2.4919216685587213 -1.9458008451588358
P 2.9094529411579804 8.260105486196233 11.394720663755809 -0.4415211477099235 -1.4782989571144347 -1.0278385979333524
P 5.833238440781742 0.9885045195405253 7.801874594822055 -0.36663056904862024 -0.3449132319761866 0.03628726446680847
