# total energy = -340872.4644643765 ev
CRYSTAL
PRIMVEC
9.20103148541048 0.00000000000000 0.00000000000000
0.00000000000000 9.20103148541048 0.00000000000000
0.00000000000000 0.00000000000000 13.46663963341286
PRIMCOORD
 96 1
Ni 5.588264985527547 0.4465932343715773 13.34697513272999 0.14157933823810454 0.15116312527179773 0.3448011318783546
Ni 3.429334914984956 8.911870845617324 12.286504707233789 -0.290360593541287 -0.0592587856613173 1.1904914690123045
Ni 2.7383374367299758 9.010275879304901 7.603103219739056 -0.6342818939178496 -1.1067735218673582 0.9978479651085331
Ni 0.5977588238488971 5.156966626097424 12.111720989568285 0.12121902941419768 -0.8841311576086515 -1.252551985788475
Ni 3.5843999016831076 2.105481277584093 13.0627617052325 0.3005583600098953 0.8498858632725365 -0.2596035148640884
Ni 0.26379909853604844 2.873905437323969 7.5771931145624105 -3.680439301674107 2.6403224005940333 -0.3444013253367746
Ni 6.058097265582594 2.008548408963371 5.967108263419299 -0.8398747588934374 -0.055246064957498404 1.2144091561701664
Ni 1.5908859784649914 4.033713881118866 0.5783897320849216 0.32664888644936 -0.2935886135602815 0.9510639148754589
Ni 5.554653616844917 0.17243469428070485 2.433448370971676 0.05824448546419002 0.9260725350374438 -0.19876401497921253
Ni 7.056703634556889 8.843249551438554 11.615704413592889 -0.15250729800451798 -2.4050109255080905 -0.2845828105172454
Ni 7.967973810940021 3.85691605762127 13.130566867902331 -0.12120771656028802 0.1762779180615545 0.28575831888258524
Ni 6.715474174123278 2.1664933185735573 1.3759406776725203 0.2724754857307501 -0.09185497442978374 0.9002758856893139
Ni 6.822160136311913 3.753165224534677 10.899979162730583 -0.9342650981505652 1.4537410652694125 0.034667983695830615
Ni 6.275066793341992 6.679994996012077 5.575135113337536 -0.2221422846938368 -0.7967177638899892 -0.21583382597730572
Ni 4.5411875817270575 4.610462149154245 11.50376926283775 1.2562029522775011 -1.3525362741936124 1.3494956875950759
Ni 7.3159058976716835 6.396216777312475 11.58990196048676 1.3181197443869557 -0.5660131914484382 -0.5943320929977892
Ni 1.4063684893980757 7.205649935195925 6.334558823899928 0.00473545780245636 -1.044945175706652 -0.8200790643237489
Ni 1.162329526471886 0.675427492466657 12.58695887572819 2.1605722913098986 -0.5390487470444523 0.13900180731891545
Ni 4.896319801010779 6.840378179014241 11.952235827256901 -0.6982859075736361 1.9551360065168326 -0.7476310336656672
Ni 3.6270558844952263 5.20935730041412 0.1492563754062425 0.14784794485563568 0.9200564107503509 0.04056043792086563
Ni 7.363769664407801 0.013668132542580202 6.898717320304197 -1.06071298006387 0.46570005894897215 2.725614891314951
Ni 4.675835479154267 7.5576077985542405 3.417779339313313 -0.9428261003466987 -1.6218793849429682 0.4562903355992981
Ni 2.553875153853067 3.492776028334731 11.097736936367525 -0.8687451620708846 1.2052992234490982 0.779531996139322
Ni 8.80650063095719 6.598345040991641 0.16077238664171434 -0.6832714364426749 0.2525700050560747 2.055806008135085
P 0.5316135272919433 -0.04510805775159841 6.931481273970219 0.5201938191214783 -0.007193946645277933 -0.6172267382077757
P 4.03259135525539 0.7185591686160028 6.174548282680311 0.8498223570244525 0.7408248093771113 -0.5317337014402778
P 1.7730111992982682 2.745541844525897 9.11199972511507 0.9324038765721102 -0.7892417672279182 -0.25877716230805115
P 2.1771849173715907 3.0303137746456255 3.291664478654861 0.5648837058296853 -0.43002394570360136 0.02323351660664386
P 5.164042219449995 4.357774216460283 5.675407956453684 -0.12240045131680857 -0.6022680600154144 1.061426975411759
P 5.142005748605512 5.73176427541922 1.9139866462034523 -2.0743110089178085 -1.4701470174312616 -0.610850916588419
P 2.3897655530254265 6.295253856821238 11.623150808521675 1.640667721294065 -0.3976131334730636 0.7724825454917084
P 2.523419739032508 6.913443571488579 4.052569555315776 -0.5810032370993672 0.8134322484311927 0.2144012072958372
Ni 8.82087264242236 1.756357331979473 0.3839213272692341 0.23197109785880052 -0.1127143343772962 0.8403792093336817
Ni 6.802239902751034 6.968530148083953 2.2942579242100534 1.072208125187663 -0.14689226581058573 -0.42085770582330095
Ni 4.323656791035923 1.5974647161074988 8.466772778891771 -0.2128973690568011 -1.0880422640064422 -0.0956028715079902
Ni 4.881736165817249 1.9488981206607476 11.137773385463808 1.6363575239544847 0.9167301745905954 -0.024228533530061498
Ni 1.2432618010222296 0.1686558305747219 4.8328676464230025 0.7810152655530678 -0.2127155920632982 0.48007278273087634
Ni 2.723698595346438 7.937141153821081 10.21089089854668 0.3754381400379212 -0.027245208869198238 -0.36246332504480805
Ni 7.403803353194584 1.7153851379625698 11.870021848995226 0.04008272695349871 2.0940290561720256 0.4797038294272319
Ni 6.156456294111831 5.489620725016606 -0.08428052997427156 -0.10643004403048122 -0.49437505828616146 1.276275297547344
Ni 7.428268896399377 7.846032538246103 9.588988567601364 1.2257847449969599 -0.13508781697648994 -1.1276657919353352
Ni 8.468831969779034 7.785084904478314 5.633916824250715 -0.021850777326504305 -1.208103268556797 -1.4412928122037307
Ni 1.5587283727858816 4.863122478753203 9.33481926880888 -0.12215953895059609 0.45684877920592937 -0.5653027956449748
Ni 4.62156779437733 5.87809748306459 7.260000429257872 0.6339116550626244 0.6007976461174749 -1.0079305461555157
Ni 4.285040061125987 7.597310250200982 0.9995494747202484 1.7986676669820378 -0.07675462845323555 -0.5282681114891805
Ni 8.120352096391162 5.377358937637259 7.768231374772327 0.8061907363774309 1.0513901600010473 -0.41315622341398517
Ni 7.4547218624444245 3.917541655280685 5.46408878224151 -0.3017007011444546 -1.2513597652525867 -0.04273147743025544
Ni 2.3871156559050877 5.8677371214065985 2.2602003054915336 0.2540887556934463 -0.09453380681352752 -1.4484307088000927
Ni 4.196645749893023 3.3453110937942174 1.7182356175732674 -0.30022385948861197 0.36880597943338417 -0.06345996822685844
Ni 5.449697448609838 2.809139375414025 3.7025991147977146 1.961976426477434 0.4629199251006737 -0.2014803854691111
Ni 3.971294082284222 5.74571303942767 9.631650991135649 -1.8102186050444309 0.020047148458862248 -0.3504483028618029
Ni 4.056992491238508 1.1561924383494349 3.915129144777377 -2.043501222625803 -2.5515362948975606 -0.2249926096584383
Ni 5.873386554850654 5.1084219830178865 3.7952489031770553 0.8259625196877195 0.8818647301719781 -0.040879254712865076
Ni 7.490983128247393 4.406263653349813 2.288830235629193 0.12703280788249735 -1.0400955609238347 -1.1150221350293956
Ni 7.692559330026488 9.030012092232424 1.5961600098169988 -0.5355751866735551 0.9137021863975489 -0.2916325182751752
Ni 0.3334481479521167 7.323239119910954 3.2309431902661006 -0.14347629815050128 0.11985248808397424 -0.45881387335210017
P 5.7608855406479424 2.9755492341586263 13.180594717286725 -0.7368902502093955 1.0903760543459415 -1.5172246876453546
P 2.7363408128580544 6.696271621032491 7.888811814882571 0.5440726826216048 -0.27403923067344416 1.237089885597134
P 8.680464899171081 5.402100511792087 9.833218911986243 -0.9317189346899438 0.4632654813655505 1.658239925849873
P 6.6723305366327645 7.228312076193822 7.604409766235889 -0.3535881340423652 -0.5803216376513103 0.19726043385049252
P 4.755323191732758 -0.31805298176548247 10.645647925780743 0.5311911986732465 0.2717697179129771 -0.4017693217332822
P 3.7361525169808356 0.5030498445822927 1.171960246318617 1.0272490439784696 -0.5953111690816071 0.18099460681093346
P 6.873584702303485 7.756902144479712 13.428004018112846 -0.8927950039312366 -1.0017118189393135 0.08339630213946929
P 0.8594214428316725 2.9657317333690383 12.36960658505141 -0.5655969298466259 -0.894065386003228 0.31079623568781956
Ni 0.8470534160637585 7.205705141385932 8.969415017771178 -1.0132367888597777 0.2449330573361072 -0.6031517481719483
Ni 8.09434998089784 5.625805194732345 4.152115516930166 0.5444156677833205 1.8375432610013127 -0.09442016405379867
Ni -0.3947868255657895 0.5543759595350193 8.740428022550413 1.6441109426476588 -0.8176457722919079 1.8096131102499478
Ni 2.058556016078096 1.696431012726814 1.260685794691623 -0.355503091676891 1.7096730448191846 0.15487245580258488
Ni 1.990201551817693 2.026499621747332 6.921408904603431 2.9833584701521656 -1.9056204162852086 -0.7653582757421012
Ni 8.575076282447613 2.7987790137560338 9.782921472373982 0.7644897570942188 -0.05437214699297732 0.5201056302830462
Ni 8.302458915161104 1.2748765458329367 5.209543161253811 -0.7048303935603732 -0.7655791335036557 -0.6818832978458965
Ni 3.6677244444670904 7.737892813053949 5.546639518262228 1.1205641478935475 0.8510302612896247 1.2837317538253894
Ni 1.1821209455894155 5.103002575365528 4.1508089704333315 0.9868762965883779 -0.03277770865165323 -0.4285908128015006
Ni 6.342280329675582 5.792601496806996 9.427240871602857 -0.0324159544368603 -1.0476517760045376 -0.3987786145360745
Ni 0.596309661361212 2.885866778492164 4.900578038466656 1.2436896503018386 0.6282953373171115 0.012004994880676098
Ni 6.298078573543266 3.9930729242420053 7.6006253819109055 -0.3494332313337272 -1.2179850464468829 0.9435213266415106
Ni 2.79845697764766 1.3570141555317679 10.532892043000833 -1.4352784876888507 -1.9979322757467526 -0.9588852106920907
Ni 3.9011730199435934 3.7413603009048346 7.7814422160410155 -1.4759800791732707 -0.28062896807581994 -0.6882251809035244
Ni 6.007059142921071 8.954167988194396 5.08163685972963 -1.0515336275574472 0.4939479980510718 -0.9588736407278647
Ni 3.7180632887218574 4.683389526153565 4.0086419899271615 -2.2751123660420234 0.5745379410899977 -0.5391577618184907
Ni 3.506927215039873 2.81082316420924 5.339873014519301 0.11642597890092853 0.12066212846946317 0.7647571518229926
Ni 2.080528079700904 8.875103523072625 2.5280653399216018 2.0163010080619275 -1.7353439672227273 0.27883870894461654
Ni 2.1459658169226006 7.386164975487329 13.92935351204292 -2.183285416636698 -0.010220649286743688 -1.8153626111392156
Ni 6.345942340279382 0.8134172045956263 9.609996363105383 0.6664201692132911 0.3565107070057989 -0.7419306408467803
Ni 4.83221621338092 7.817794572057494 8.70734111267285 -0.07186747556426332 1.1102766499246104 0.15097877717513353
Ni 0.5338788212885662 7.448400753688617 11.621279318680436 -0.19911239945756676 1.7743537728270216 -1.112107275375446
Ni 0.4873841680646239 1.2324413877808469 2.720813151815403 -3.0945363132802766 1.0149684268389036 1.8552535337968823
Ni 2.304711216287889 4.677427257632803 6.4032794892207106 -1.2707433119855212 0.8642467599798987 0.02766224180195881
P 7.493522612987717 1.95131799198939 7.951135002884703 -2.3947406539303335 1.7385228791713414 -0.9523785199218243
P 9.096691968729278 0.593298163696327 10.987916182689656 -1.281827851934457 -1.0480281855073499 -1.354410865508506
P 4.88722918172295 3.642679236267223 9.581743675266106 1.6096388770127181 -0.1347574302202647 1.0002311206287289
P 0.0451614237352719 5.00085272178914 5.973491939190448 1.1414157945315762 -0.15377562319398033 0.16824682022696186
P 0.23986721516798978 5.187422040917984 1.8809659837538988 -0.05771252422011996 0.6762878060359901 0.36643825053215595
P 7.661266621324155 8.491300889111907 3.717129384007571 -0.36064786910262403 -0.23785686721561614 0.6705478182284194
P 7.547891509113 2.1679286795137407 3.409954781982979 0.3291796232910137 1.2468209968419688 -0.3239327730697776
P 0.4059421563598818 8.733591656021204 1.0463790454969002 2.9367914210259034 0.23308181442447598 -0.990703640754268
