# total energy = -340861.955082207 ev
CRYSTAL
PRIMVEC
9.38323006017008 0.00000000000000 0.00000000000000
0.00000000000000 9.38323006017008 0.00000000000000
0.00000000000000 0.00000000000000 13.73330566449131
PRIMCOORD
 96 1
Ni 5.482686987131988 8.903737588977295 9.559507139135839 1.9618733252406662 -0.9983380173710743 -0.8001139340557318
Ni 3.692854626024809 0.3686858742037834 6.488711871076136 -0.00023936970431571682 -0.5719935774015892 -1.2785628080299398
Ni 1.944477375174993 1.883486380002322 11.030440106237183 -0.8524286842990481 0.5712579847871452 0.46617931257823586
Ni 8.883338446899543 8.462416131137873 2.670701846311001 -0.8857789776247196 -0.03486235909482383 -0.856081450560287
Ni 2.873041818603844 8.220385095832661 4.475849515467539 0.0897358712042519 0.21411915727904413 -0.15335396227552944
Ni 2.6641617349824855 2.6584191982062277 6.472904881773386 -0.17536851887340768 -1.7623073831854488 -1.6481496314934068
Ni 5.431435784726892 3.3348374843612296 5.568471291003851 -0.0816428097834723 0.024048556308771486 -0.9513534210914197
Ni 8.900237644177386 6.556747795352752 11.305037517995594 -0.7731474327692169 -0.6484993230688121 -0.8113056890064931
Ni 7.634167799923027 2.367576600302826 6.155885887064875 -0.6159931229109907 0.8422237187415883 1.0570622706851602
Ni 3.0555268761604757 5.579681435916587 4.029489263103852 0.03926254504504851 1.2786826214372558 2.0853245864194925
Ni 4.8595185313777405 2.094824869890641 11.238389373439908 -2.0257652387986207 -0.5251478206926439 -0.3906076486895079
Ni 8.37583706768276 9.125998158616534 8.632687038168926 0.7210540545080872 -0.85334836789984 0.18843949312475286
Ni 6.588153466251664 1.3765573778171598 8.251052306528482 0.5374114685513455 1.025744177298169 0.6591933124475486
Ni 1.4097833953412255 6.51367876953082 8.15872319971309 -0.9144745457871992 -1.3380594207336762 -0.5180163518541853
Ni 9.176958480890809 2.0932109543260715 9.374863000350093 -0.8654238110071354 -0.3857708894224969 0.1404840482913968
Ni 9.315464339312932 8.922344534119972 5.093202245251321 1.373927338274879 1.749493519250232 -0.7810661733956612
Ni 3.706019297752079 7.223266773829728 6.661367056856938 -0.752601233186749 -0.5821039263627136 1.2708739240261147
Ni 9.315933500814259 0.4248604574038188 11.530332624225425 -0.13939390055101153 -2.419380049745569 -1.487941108189889
Ni 1.4772019030820935 0.05467983465680361 1.2154501332300502 0.8749232658571383 -0.836492986905398 -1.162079750638831
Ni 3.5136724654375278 0.01835078296295274 10.596948015531927 -0.34774478788771074 -0.8081254915062985 0.8722894277787171
Ni 7.135233309720498 2.752495462452566 0.39331216140850267 -0.49849139444738017 -2.1707574593730166 -0.6408024686451868
Ni 7.010351901296946 8.993769681082183 6.2280128996330735 0.15437700422340508 -0.7506808762355845 0.921188467472265
Ni 0.6276545780299474 4.0628729188923645 0.810134943971566 1.3030787908934334 -0.846594079895142 -1.016014865825547
Ni 5.692111298094887 3.828188952697953 12.50851464971175 -1.0817597734318403 -0.1911818317565804 1.8066861664111402
P 7.439371944571542 8.299926736767851 10.932150771708917 1.0402063754700859 -1.1634810018617319 -1.3564237821734768
P 3.174468699977211 7.799744276971788 12.40139475740548 0.4119586035614583 -0.24001607965046404 -0.8026181885348241
P 5.409253828944092 7.5209778961125755 3.276588269002321 -1.078786292625813 -2.5431167033752975 1.2606792428812998
P 1.8975706082721957 3.26974601766695 2.475070883487152 -0.037338074328826014 0.099761373761054 0.3295336641963228
P 3.666525282570268 8.657502866620181 8.427154891021045 -1.0405545028381242 -0.15770555437600584 -0.41486806389876935
P 8.805044775557887 0.36085932203862575 0.7411728948913282 0.3916211775556868 0.24996316356084688 -0.12379964565718032
P 9.107287997943565 6.092550022708567 13.729363893499084 0.7008752655673671 0.032372245683118445 -0.3856238223216714
P 2.0923289307035744 4.662620832500306 8.854205394313064 1.2178834878720122 -0.018983483081038272 0.5591236634174565
Ni 6.803958373632628 0.5464445987960346 1.4289505193164895 -0.16834837880183265 -0.9131558269757756 0.4097924491480749
Ni 1.517793756177013 8.364098646919528 6.982205026186261 -0.040542954419368886 1.665879187562686 -0.7412927501524653
Ni 3.249534540189729 3.8027134831758294 10.70034651880966 0.24750853137276727 1.0722510626104567 0.12601747924410553
Ni 0.6741409762275548 1.8563688452255498 13.304043657823962 -0.28273007357922275 0.6722925688336681 1.1847185710842694
Ni 0.5820924279899569 7.955017967451383 12.79348053064951 1.8309730639829627 0.29046857987406105 1.2101552659898192
Ni 6.178650541432324 4.888418879859561 7.740530465566149 1.4259456403236992 -1.3088095227296235 -0.312336840702062
Ni 5.4612932226714195 7.246874980576565 11.796456040946845 0.3283077622090217 0.0690210072544037 -1.8431670349459934
Ni 4.0037210368049 1.6038942749007712 4.170955530599357 -0.8639305142910605 -0.15672827806440104 0.9732767035270722
Ni 7.9078297036477885 4.441533166614386 1.3939717144234613 -0.806594656684069 3.524848993868891 1.8414351398565512
Ni 0.7528934875175102 3.8584874024537306 6.741075719286601 -1.685198456716588 0.5997167543484704 2.0549647431807125
Ni 2.5508592324117156 0.5119762416164515 12.762649113428225 0.8938959503048992 -1.5188591379249843 0.5007030573867183
Ni 1.0239449766488817 0.5819300981104972 3.327277415928826 1.2672111304625466 1.4065916612771194 -0.3820276203299808
Ni 0.7335424522337258 6.547008002585178 5.081871994994244 0.06585829325570594 0.2769828866828004 -0.7838856451223274
Ni 5.632940649547369 0.027691788454397986 3.830561971571671 -1.048262155895027 0.29156361271045267 0.307577985860838
Ni 2.2265654194636104 6.629214480847912 10.43687292624774 1.4133225522430497 -0.7901889616325359 0.9586514974147295
Ni 4.482284534619757 5.616088368419659 9.480416831564927 0.13794611236089147 -0.09163823043328734 -0.024740697279789652
Ni 5.352672951883907 6.2918029123226695 5.428940783862828 1.0176994526168215 -0.14899234287272403 -0.5170349617775224
Ni 1.650538311362825 5.627629741352334 2.139950699734396 -2.2178932365185546 0.3070532237056196 3.0158109342539157
Ni 4.192990169670738 0.21003609756063138 1.6863813117412996 -0.32292927150592776 -0.1495613280023166 1.4553294928024547
Ni 6.89338055578579 6.163937636750671 13.390124471764665 0.32340184026697205 -1.0871531765332696 1.0092911739484682
Ni 1.7002131311234587 5.586108948484785 12.482490261233071 -2.2029448427388383 -2.267014676635554 -1.172181614959523
Ni 8.811397222285871 2.4638391571453537 2.5716168138764823 -0.2807827200448648 -0.07508623961187715 -1.6853509231340524
Ni 4.004434162286919 6.240795673898264 2.080499492609084 2.417582591525514 0.8042544385866665 0.03648781051338878
Ni 1.7241872838413317 0.45976231981062915 9.083935953376454 -0.9366608520762514 -2.649188078514779 -0.3294616733078068
P 8.739681195192835 7.667009105016003 6.548067369255177 0.010649252183730046 -0.9687006541206155 2.355583524114898
P 1.9805934275472408 0.7941712547273714 5.146501806771217 0.0011356562663399794 0.6108807413850899 1.7538744219267473
P 2.421708454326078 7.7698586893371795 2.4100028748679385 -0.49181783908194654 0.7248266341766421 0.025158501543498604
P 8.171667365534738 3.4555339721929323 8.035411605672984 -0.07348727055587344 0.34066217000931653 -0.3473876616586082
P 2.22749435923624 5.427213331214936 6.060411521544578 1.3591866896305949 -0.2109713556786818 0.5218663217278948
P 5.710183399126051 1.2299537918821115 6.263403628324268 -1.3789646435884702 1.1608916438680008 -0.734158195990213
P 6.810714299251755 5.244587525207907 11.550259789832841 0.5430411560332971 0.6650083764674288 -2.9829244679385405
P 2.325633562084081 3.4414497439230587 12.842810985868171 0.19107590230633542 -0.20085612162155086 -1.173336811609889
Ni 4.020854814833407 5.508716067225678 12.382291439394399 0.004204782109966952 0.4167166870717339 -0.11895980106637578
Ni 1.3302323711760093 3.998879290111193 4.580538212873922 0.41523238921672356 0.5227921759762739 -2.0026857312713378
Ni 6.356134337384797 4.819686719914974 3.5570905474164483 -0.5369874936400494 0.731204769788844 -0.8041410529372539
Ni 0.3981895643763111 1.2916579125368015 6.865677507455361 0.5854332478462627 0.015941353820604805 0.8420846220605626
Ni 7.565942334399874 0.8394331414065119 4.250183771651659 0.7584029274701907 0.7943374365832707 -0.9825020787800821
Ni 2.3650806611157593 6.725880516581583 0.42394183918421807 1.074413360369098 3.087140535036838 -0.3204594698091965
Ni 6.91187490216815 2.9092986194264903 10.709533639328669 1.2371641904784951 0.5952787731817747 -1.34411334023724
Ni 3.2664900368477316 2.1023502203719455 0.6423524695435586 -0.19131732889318018 0.2906161611955188 0.5761453947864336
Ni 7.688384103016517 8.394650443886022 13.165048933117456 -0.5540195094216717 -0.06244618225036342 0.23886011166914994
Ni 4.100039893027588 4.045241829672449 7.391113992544919 -1.1770947359904245 1.1191017044154081 0.8097488860423345
Ni 6.2934543608073445 0.4137460214373528 11.661897707396898 -0.3588851207752464 1.39983017418357 0.7110270092893883
Ni 6.640952901611144 7.361087656459912 1.6232218521094894 0.6192465968512818 0.5801306046864267 -0.0993260859958483
Ni 3.1395912339684697 4.531021031377735 0.8185132300622858 1.5125887315352402 -1.5428899536219427 -0.862941925125546
Ni 9.330974818546842 2.1989318070353767 4.70883417870414 1.6922350518483953 -0.03557121223639035 0.9913309899256219
Ni 5.159781892227814 8.718052849981603 13.507214045974157 -0.4435230086313007 -0.1972897444265312 0.3682999863312431
Ni 8.597994421791707 4.115747420092057 12.570506835528253 -0.9805518970322468 1.6944248604108625 0.47937035734721317
Ni 0.6706006835385319 4.202851944428658 10.456318732154795 -0.005695507722880514 0.18704904053512947 0.5192733641897379
Ni 4.056679987074832 3.7095943083922003 3.2252807672170642 -0.06214330629796394 -0.13451806051594897 -1.243442053067407
Ni 4.096192768716696 1.4577410840069982 8.461144703469273 0.26211933930740666 0.060724571573566394 0.4812210374027067
Ni 7.662486388143199 7.389218580079553 4.507573277864352 -1.4732331125557532 -0.6817884241392451 -0.7462760622996696
Ni 8.23707786204992 5.313141403781989 9.185919465566178 -0.19957314114406918 -0.17170932485426557 0.11452336256157696
Ni 2.022226819175109 2.554237195221279 8.780361250650005 0.36817683048981753 2.379132515079432 -1.1212102661179786
Ni 8.178601572524368 5.6223282163873245 6.173903565361885 -0.6438237719700137 -1.3729983987027063 0.462624505347442
Ni 6.002114451712535 2.2924450774801217 2.777753241038073 0.09290115630611098 0.6829279370603271 0.1053172705822767
P 0.8193830554857483 7.949190981604886 9.751512421877424 -1.7147018654923436 1.0156816508558442 0.026380803986373918
P 5.0911904807336255 3.1728454011826153 9.160664501949679 0.6715688032937659 1.0552578704865698 1.293842617007146
P 8.031425609557699 4.009960884772566 4.496503881402013 0.8331644367527974 -1.2019087097103107 0.8069399558386295
P 8.36453027550075 6.359230803293563 2.714662278985457 0.27218829350763446 -0.6783336328214253 0.004343107460044133
P 5.344622140521114 1.5220631258390998 13.631514632459062 -0.4340708620794653 -0.33551173615662866 -0.4831352237062841
P 8.857731612157048 2.3770818123197355 11.563278083171697 -0.014781529184548736 0.47351878366244254 -1.4951098580241864
P 5.753336874018222 6.885367277343104 7.984805031170713 -0.7462079280658955 1.0415713741384125 -0.2675716206712295
P 5.542758425762056 4.153224040818157 1.446501851081179 -0.18734137496456768 0.08457669560081563 0.31085845638432275
