# total energy = -340855.156855373 ev
CRYSTAL
PRIMVEC
9.43236520007558 0.00000000000000 0.00000000000000

0.00000000000000 9.43236520007558 0.00000000000000

0.00000000000000 0.00000000000000 13.80521990839047

PRIMCOORD
 96 1
Ni 3.8717218037421515 6.7197301488227055 6.18415856693444 3.190267482836015 0.39851919022710075 -0.3385620929471782
Ni 5.782851044088416 4.160465366899089 10.942638716507606 0.9686561740359251 -0.4455762916159036 -0.3713423727019927
Ni 4.002869409326042 4.727076976150378 12.356182396053597 0.17582643234643267 1.5206802502941228 -0.795195670818508
Ni 7.433722464147663 5.882022931682565 5.5458194798420895 0.7561136172153816 0.7205290352425526 -0.15941559508857706
Ni 2.3727303279515914 1.2348192239502238 3.047226500521843 3.18067186872778 -1.1012672473371485 1.7984167273134963
Ni 6.273947137638855 6.713372734685511 11.434159266491536 -0.7330737046767827 -0.10136677057496091 0.028000084757351777
Ni 7.00571002897935 9.302226846206127 10.352851785987646 -0.21786114081997962 -0.6907181225287072 -0.6902460679882951
Ni 8.348680752183377 7.540553432275046 3.665340710176552 -0.6125391029241193 -0.22130384795294142 -0.5384339962785888
Ni 8.218674462787321 9.114371861107681 0.9330778615632365 0.37577058367667543 0.2542849308646524 -0.4565965539858071
Ni 7.3739307012164 4.177462488969153 7.289100724891692 -1.3887098959006923 -0.8156230854349243 -1.5647471587063504
Ni 2.81787193830261 3.3477633498742314 13.757495127659384 -0.8004831444696923 -0.4575843718203732 0.4717431798192585
Ni 2.911988078155607 6.505417379369916 2.869400949328559 -0.3925318622954143 0.12922261644496455 0.6204794408171186
Ni 5.308271021983419 8.695169255025629 12.519277422531665 -0.8253701375193591 0.08992947527229674 -1.5629923807987727
Ni 6.177604959601321 1.091098275569776 0.6362215211074846 0.018839244193690135 -0.005435054972642252 -0.3785304058099997
Ni 1.5521711507245342 9.011474189263991 7.120608499052642 1.4717382731777815 0.19799834045778159 -0.2420138268067832
Ni 5.49423953404412 6.761411770591636 2.553869469035671 0.22038956366878815 -1.2690402132514855 -0.19593940104622387
Ni 4.045833832760638 7.9294592813709475 0.7706610221422371 -2.065879076100371 -0.8997536946372569 -0.6472088863921628
Ni 3.0631511626699504 4.175028938750465 7.187756563594584 -0.06095777063029502 0.031094150301643222 0.9393764512352015
Ni 1.7379698802118386 7.298245402942151 10.517589930481588 -0.10551807373917312 0.34015437713496255 -0.07005356228397612
Ni 4.382757917301531 3.9899565013826916 3.4902222477924294 1.2305723961935902 0.9283836996691238 -0.6400164824087816
Ni 4.750063650115276 2.221614405263191 7.185865374374246 1.051489404583073 0.43888756674181834 1.2290269060833414
Ni 9.3048396113634 0.4996776593991301 11.205752656973768 0.5294814150709913 -0.7149682533253235 0.8214314645865853
Ni 5.531101217201618 2.0626507547377804 9.250187544223467 -0.27501367877157157 1.6852892166581817 2.2817802649805023
Ni 0.5886333522573807 7.4116507296060705 1.3333940428279258 -0.04304849445004199 1.074273492357124 0.49037107933309093
P 3.347584134935646 5.695629963188371 0.9999401254399605 -0.18568635585964796 -0.9165571393478408 -0.49316535424877644
P 8.195951895047708 0.2896179434099321 3.0417727069697285 0.1441967212562936 -0.1039036780642017 0.9113861366698627
P 3.824135521365085 8.233502140863981 7.852132751553863 -0.018925376149593214 1.1265237079110924 -1.1857989486326417
P 7.594138698912136 7.606542259135296 8.918806860703981 -1.3800079972513202 0.12481446007493989 -1.060155564898503
P 1.6058035791875667 5.544891335107519 9.09003352921124 -1.8523363601500873 -1.5258983041599525 0.8227728091058282
P 2.2261230758233967 6.3522074716096215 4.947707543806568 -0.0801597974800426 0.6397542298863304 -2.9725865763476422
P 6.0915346272542985 5.983647234225778 0.45462208060219594 -0.41278084235243745 -2.8135635887117934 -1.0006445540170636
P 4.423760408776875 1.69803324600282 1.6848854721662705 -0.6016453388297509 0.6280292281399185 0.6838247378429837
Ni 5.397416305381963 2.965903477574301 12.974463558572147 -0.49531068272655343 0.8924630745131146 1.2520282520745212
Ni 7.197092718658373 3.7594294961705015 0.6652401926105659 -0.4909187243064449 1.9205446416952086 -2.6723241503116104
Ni 4.300007777500936 8.764742380657589 2.8367102580575114 -0.7567216831130258 1.1532030169744911 1.1626983580594363
Ni 9.06954926173091 7.4437207712477 12.978645869296823 0.21796835582180527 0.4207268366723916 0.01187541128134729
Ni 4.966668484308923 7.624256240959702 9.53637022023167 2.135263637341781 1.3472714262502474 1.9202839318346543
Ni 5.078715550385667 4.197553426821116 1.1474208145846299 -2.0814419635356347 0.3290610954352784 0.5370710544927911
Ni 3.7377161915060797 2.7872827779956078 5.300238419788709 -1.0830856913321154 -2.4760368790076646 -0.3790019461297795
Ni 8.07196345464205 2.6036912219624626 2.0273237173964866 1.8813993389543147 -3.5502460937857565 2.3797704057737468
Ni 7.68335944123219 5.417724187633266 12.86578856305037 0.46309578855690564 0.6904694968530107 -0.3963350380915884
Ni 8.911123256021254 1.3161922384332665 9.133450706174894 1.4982507176460134 0.386696743670876 0.6659504286657241
Ni 9.207940923779733 4.213739365484951 5.648585098573137 0.8333752672120228 0.20675577493543748 -0.06463367681998547
Ni 2.5334012365761596 0.3007736017186251 11.394055679418676 -1.2189358403959265 0.4389577578581214 -0.945133922544269
Ni 5.821797279952619 1.4036396960978417 11.647284501167066 0.16021520817173696 -0.7889103520304285 -0.879273315295718
Ni 6.139507636604101 6.8067720147841655 7.372029136394355 -0.4163456768855604 -0.7838581343185016 0.5678042219105899
Ni 1.834642191030977 6.296631975917713 6.894616575023186 -3.51385778496471 0.06452234805310178 2.509545038067439
Ni 4.517687901326097 0.48579699078741734 5.794119890779374 -0.012576294003113825 -2.008940196821482 -1.1757194529094526
Ni 1.0283919117951998 0.9111249748230217 13.415802039279075 -0.8224277670615835 2.1294241478418683 -0.2784725838544494
Ni 8.74160478884967 9.152355995722637 7.688278419678103 -0.8080979807024727 -3.499189384319258 1.1006962053250269
Ni 9.048675437568283 1.5593963424590895 6.5418932787911945 -0.03769365789603186 2.3444776440097232 -0.5102526487483664
Ni 8.122568093879506 3.3201831140624294 9.1470210499719 -1.562867168074818 0.39131675894139056 3.0422794128580897
Ni 6.0865920678954115 0.834117258949316 3.3128937822445903 0.32263410886301214 0.02501066311172467 -0.5242484488068261
Ni 6.218230156469116 7.937646574354752 0.6021612504110355 2.4038081634492405 2.0494165596689737 0.5522379920412167
Ni 2.5015953011598135 1.9218821366614003 8.526752488108087 -0.4360953487086618 -1.060612964150896 -0.2831697322198027
Ni 4.345226536215636 0.4468535846327704 10.131429842892123 0.07715572054639615 -1.040345986371744 -0.47428111574976384
P 2.276161773149529 9.429620370444908 1.3345212104679773 0.3667372698298136 -1.5608982172739052 -0.31444437396336816
P 5.7679856365510025 2.1020403117658533 4.994438310661018 -0.9874617367782025 0.7217536516782731 0.800092593899493
P 1.1250736549795268 9.175625640643196 9.351600561786453 0.14132145659102757 0.40030482137261386 0.4363398606193002
P 7.0327431876102064 1.5884008654143875 8.022613319974695 2.227887628727105 0.3772083445644665 -1.3319234830392674
P 5.244366747829876 4.747894206121871 8.655126978326496 0.1364319897092102 -0.43987692723828115 -0.1470233920718113
P 8.334664257512948 3.825682429256034 11.60774685600553 -0.5799884226816076 -0.7628367948718281 -1.4437970666828233
P 3.5498706387728243 7.07337781684319 11.66644635104794 1.0685677002215983 -0.02645690863994798 0.5754272856734864
P 1.5857220737007924 2.7487704309300853 6.315653283557275 0.1223405446131506 -0.27228959497218913 -0.4335813240375565
Ni 8.601883163309239 7.263524866682492 10.694958955199738 0.5299035902100744 -0.11744233598058482 0.4127826421246504
Ni 0.5877023778132545 3.4766000259868877 8.040449922546555 1.9258580834883223 -0.20050696581224822 -0.27690138271258763
Ni 7.5679167236875085 8.895286314869402 5.781529569725478 -1.5781456915004435 -0.2785142357256623 -0.4566639168886329
Ni 6.038619058545608 9.227541378641881 7.485410882145301 -0.8214155237469853 -0.5088377706787108 1.1740893735051972
Ni 2.0668953190727017 8.418348201467225 13.25227972665796 -0.09169736580599691 -3.3750071585116777 -0.6161882696409323
Ni 0.10924282390613849 9.195801469781856 5.008133161678513 2.8166591969179815 0.7474762532553578 -1.4549186305172814
Ni 0.7507728801418319 5.154278227912461 1.5168346810180517 0.11202759272291676 -0.6205138935994797 -0.9248821142737684
Ni 7.606532826770106 2.9165816400025104 4.471538168167273 0.054369061669183795 -3.121299183196418 2.2528532975335076
Ni 2.164492001680334 3.352205993878116 2.3999134611889485 0.15328479960049088 0.9642901837577457 -1.011152395526923
Ni 7.627265165454902 4.547635660800267 3.217016619810861 -1.6602919232828957 4.474456121693165 -1.726095452041266
Ni 3.5165272278307174 3.5513137906466974 9.890460266179506 -0.042940251006951854 0.7391178539883335 0.5660260469642444
Ni 0.5023517349301307 5.219040847298177 11.347587132316473 -0.14515702828703386 2.452879981275227 -0.04061494530788489
Ni 5.913413843030607 7.874223350825834 4.667600254216417 -0.9293033832699157 -0.13414447922661413 0.20163825120321405
Ni 3.6299325544946357 0.7787747426775696 13.50781381845847 0.7594817623566662 1.4925752645277908 0.35691077065769505
Ni 7.242066235878166 5.437352939590982 9.476096463439262 -1.5941870612340223 1.0110433807528845 0.8603042303923828
Ni 3.5026239215425514 6.263788480330609 8.717678651311978 -0.0446052974142006 -1.9330854544746967 -0.4504112511107017
Ni 0.8101892349385843 3.214616082870333 10.52228347539949 0.7083944567625478 -2.1680845405265434 -0.5657067159516128
Ni 0.4746375595326488 1.0957389992426236 1.922639555586054 -0.6728651535076864 -0.1820420742388413 -0.00502342135652038
Ni 1.9979164324476304 5.836530634377393 13.15473209234931 -0.4050400220647541 0.8160925688721751 -0.12570971819569962
Ni 2.316645484539493 4.277219183205001 4.635723576061156 -2.086086147175865 0.9184497283848634 -0.2739173603835992
Ni 7.819619388748364 2.0868447714468337 12.79634843376757 0.9467251782907888 -0.39839372039283 0.5221882238436878
Ni 5.292132245145528 4.413186727400325 6.128427437216918 0.11440997691216426 0.49279254429038993 -0.05655989867291549
Ni 9.01646391044882 5.482741480879078 8.125034657376355 1.6340227051737213 2.6206038391191835 -0.907291911995831
Ni 0.6445625616438653 2.320757995761773 4.194922740169983 0.2584364911391807 -2.25255556378743 1.6162802935886358
P 7.60731571308077 9.156459074579727 12.521085606938342 -0.24542053849548698 0.07071407868611047 0.010640510432981675
P 7.933901925374832 6.3056304523077475 1.7533040762991323 1.6937869697165473 0.835452975676658 0.35391723524700985
P 5.57372607548942 5.740650642234107 4.444341829618651 -0.4164456927985344 -0.17388242124618442 0.24501893218169415
P 2.6730757002906484 2.488767284503161 11.749981263632234 -0.004752941303953105 0.1373781556725634 -0.6167616256458991
P 9.284899591354456 7.361027225638238 6.314024314089185 -0.489199427622493 -0.3031744574765037 -0.24210921473406688
P 0.5129895563899632 2.91401603667118 0.5210268747672672 -0.09583838455756397 -0.04406587997096282 0.5651277035196913
P 0.1781292733523606 3.9899470690175027 3.2121155628588047 0.49922827261340474 1.3414707604080702 0.2663837710107155
P 2.479825402304259 0.4145307556040825 5.159424526359424 -0.8973072899792933 0.4318620273536046 -0.6487014117772893
