# total energy = -340890.8156300873 ev
CRYSTAL
PRIMVEC
9.10719729440653 0.00000000000000 0.00000000000000

0.00000000000000 9.10719729440653 0.00000000000000

0.00000000000000 0.00000000000000 13.32930380997218

PRIMCOORD
 96 1
Ni 6.223858727817179 2.0819144410853596 11.624112609101166 1.5830989217406606 -0.7628830747287313 -0.9055831568348405
Ni 4.832470210730289 0.19124477111947802 6.177839148452922 -0.44488055110045954 -0.03861514126903672 -1.4528663759739429
Ni 2.586689966177538 1.545773728023321 4.840923511390459 0.9597334176249986 -1.5128679533385558 0.252236790086372
Ni 3.6225608169521677 4.566002720948019 5.147057399605575 0.13833460604856176 -0.7179869855469893 -1.5124329226836661
Ni 5.084174933468671 4.371427447726167 2.849058306393828 0.24647803322572392 0.2914453419650336 -0.1850790612929522
Ni 7.436645995985101 6.004247768843542 2.4093382247468007 -0.663818984145018 -0.21322261360670375 1.7712005719100208
Ni 4.8570141078205245 4.694104560083923 11.212463642111368 1.8546107580065607 0.9442741456471351 0.42386281119821195
Ni 5.398892355267294 7.89467427663788 12.484985928982283 0.2172885561459613 0.36389182996121844 -0.10165936211471524
Ni 1.9794402555345858 6.580451043426897 0.379896723128904 -0.28177053787943085 -0.3786160235452706 0.09552162464809356
Ni 2.2108359279905105 1.4913400089478699 0.3374590045162577 1.6317894449678285 -1.3038588635925674 -0.5563797821237322
Ni 0.694993004340867 8.831968822364377 4.671067904169358 0.21592612858079588 0.5739882392341147 0.4520315603229441
Ni 8.59733098762121 2.5957516276264383 1.459958428022625 0.5941600861962993 -0.6970296665690318 -0.5909374654939437
Ni 7.022195655063965 0.6869349560494232 4.869541057893852 -0.7800104784376373 -0.5080983214095249 0.5260384508277135
Ni 0.6159443520351784 7.288899931979572 2.447526525035772 -0.13380303672679536 0.5182387522776364 0.1246715067391724
Ni 7.976866733498504 3.8428639229309463 3.6042972432138525 -1.9941818075653848 -0.7655925032400943 0.18929104249177078
Ni 7.69519022399798 3.964117149594918 12.640658897636177 1.0212771426657508 -0.6579738382181507 0.6150747248617794
Ni 7.894911063771218 8.935854623517745 7.053014411187661 0.7076596354790522 -0.3041782161506697 0.04775412745582743
Ni 6.927999911982588 0.6149015779287472 0.6593283084614334 -0.4209752052377717 0.5680533618069185 -1.4079589739382914
Ni 2.069683474928704 6.401239612279712 9.11740387224677 0.4232645154925807 0.9564413771372882 0.505655002075355
Ni 9.264843023698702 4.994469038723283 1.168381484189339 0.4164719180507795 -0.6209453247099435 0.7442875711147311
Ni 6.272099552636095 1.9477472084570269 7.172791361147243 1.17338257724616 0.23450903378930577 -0.2985212749752085
Ni 3.573964811433244 4.515958671036759 0.7009491114640632 -0.18121392191059113 -0.6270079859642556 0.4185596538177436
Ni 6.098616548676205 5.788143080882796 4.781821442909272 -0.11894925954341451 -1.903428293729896 0.4382995554488322
Ni 5.413809944667594 2.8952600297068063 9.350173820795801 0.41933998362719394 -0.23284835825743122 -0.014960220854258108
P 0.28290871331362477 6.006205816292299 12.60183036136745 -0.8810995698711793 -0.7188629603940393 -1.6307154951773593
P 3.8768155549726533 6.159716736274866 12.70293300298435 1.9635998210134697 1.1725274283347162 -0.4020264320494108
P 2.2558528049170548 8.475148826818756 1.4211699634226158 -0.002177210156976895 0.558940857982689 0.12363278106201289
P 6.547683347051881 7.661730380617822 5.902815446679456 -1.4555590923147579 0.40443812681469704 0.27938198304259626
P 4.4717978706692065 1.1836988795570822 13.01619873751166 0.14091856472565406 -0.01809285294596884 -2.4875235394910256
P 4.241586133879972 6.01654248538225 8.244174817604124 0.09174878786922264 0.7411006887463172 -0.5495640447534793
P 4.840648474027888 1.0419271370696224 3.8115943605341656 -0.8176133763920758 -1.089237312755808 0.9513431366787743
P 0.1948630606608327 5.497222765984651 3.751892127741942 0.5028123904202373 0.2652622558117625 -2.156925695696247
Ni 1.151058683946171 0.9331963068802615 2.4949258448115947 0.6232783437184943 0.4331159543653638 0.21923976633506112
Ni 1.6753600403413056 6.541790990310737 4.942812104146092 1.6085798396205846 0.4992642680576627 -0.30103144299157186
Ni 6.495544641730322 5.619842072264034 9.098849778910244 -1.9033974404919607 0.9023003723185105 1.2826755446467328
Ni 8.713547934103028 2.504260722183577 10.423448842160154 -0.17328283998897254 -0.06517797935922967 0.0016452489129068438
Ni 2.4519034441235523 5.24195712904876 6.999164463467863 -0.7119497782139739 -0.4156795040564712 0.8473337862746438
Ni 0.38431553532489016 9.176321064620005 9.098102988720488 1.7472548597277004 1.375640978531876 0.048609019256954995
Ni 1.4119525688975592 1.0321824358130165 11.466627308157493 -0.6909160974721262 1.219940370401041 -0.43947197849037856
Ni 4.087920391540991 7.1898773742570725 1.460891915759823 0.09795774489341193 -0.1524803014213245 0.7668099205869632
Ni 5.730093804425222 7.917542449399878 8.060509966910695 -0.02700095406887608 -0.32909991909301384 0.27224202956370536
Ni 5.305006256898744 2.7733692992223093 4.905356933250725 -0.5187573437852678 0.17507952687807912 -0.1646799288113099
Ni 0.8349342001436746 7.395818429879153 7.076527373528132 -0.4306852334366841 0.30239464188768567 0.059428478469962166
Ni 5.25743025749266 4.404595860788371 7.019944355857766 0.6112142134651086 0.4018950486778691 0.437895120921562
Ni 8.270409921258238 7.316549383395512 9.122628671415852 -0.396716075580091 -1.4565122002566464 -0.4090861671096696
Ni 4.738238038859167 0.6277600299887487 10.556062386905891 -0.6303974712617788 -0.6800349317832481 -0.33316740429416813
Ni 8.261512189363188 7.09660145811674 4.7268777207774 -0.21562993749661574 0.5465486549659232 -0.2187106333044685
Ni 7.558163331374718 5.964595031206849 6.8714697160573515 -0.5096875202735157 0.327156679323714 0.9571155203861775
Ni 2.223822791534361 5.4912575516640185 2.7092874151830753 0.02203024032716206 -1.2358737538018456 -0.5757898112192278
Ni 2.510052899752924 5.292720647557471 11.367057407869087 -0.928658036376433 0.9389843580031054 -0.4305739046698004
Ni 1.0713251703932891 3.2258786182288244 4.057653531581923 0.7450565880702718 0.3407688707905099 -1.1118234255864399
Ni 3.3739343269471793 2.5648964427129988 2.8519516630192707 -0.029753834223664885 0.6878451718562864 -0.4721905517693223
Ni 1.212204407532013 3.2323811571981858 8.27664470862298 -1.2878989978292013 0.7212427734801257 -0.9895019071366828
Ni 3.7216015890695395 2.4874943717037534 6.932743851127043 0.3969449037614454 0.7560025455588141 0.39063515949333366
Ni 4.077019076210004 6.863020058276156 6.078548839125801 0.4977905117256137 0.2417379474375772 -0.18529529106881637
Ni 0.7262088342727752 7.550367570369434 10.960313577418361 -0.5123486120454467 -0.7617044810395979 1.294274562338242
P 0.4127609557967429 5.4229535708934185 8.091673885817217 -0.6153092094700887 0.8333163889496293 -1.4460367546466193
P 8.353248989136825 1.7366150502963806 8.062376031665348 0.7928348838958152 -0.06648692797864034 1.6224617398089993
P 1.8322952665598389 3.3725682473317673 10.40106881518073 -0.587245361354337 0.2790600809268033 1.1652897729356964
P 3.9261310290890274 6.2108263282861484 3.749959580446006 0.995680525143569 0.22359701486249234 0.38547315567642004
P 6.993899592630064 3.9968119883904456 10.594130472188708 -0.4508851054233267 0.4538791550546441 -0.6834493567814359
P 6.486865482573737 7.6638432504229925 10.394777563191886 -0.7994503323298038 0.8287459959701275 -0.6720156610231975
P 2.499133370027064 8.507288126570684 5.953520679124575 -0.5568868036671377 0.255089943264451 -1.425253756462997
P 6.863520954135141 3.9739073868387043 1.5257388043836881 0.5025370252716636 0.5327572576087857 0.7378266459807358
Ni 5.53865140712138 3.1173936823702375 0.10697769468291556 -1.1883602816019148 0.4655871875201917 1.6093588838784543
Ni 1.6537759824177956 1.0557063267904117 7.165754229688384 -1.1076572100238924 0.46586949464730093 -0.6719017611531526
Ni 7.1634391801001325 0.5229653305312616 9.44257271382304 -1.3339942495253672 0.1525954868429501 0.5432239614680644
Ni 2.6898471915360185 1.785957846005063 9.38043066283769 1.2989262021776404 -2.2524483487856046 -0.349910685190778
Ni 6.4926121241559045 1.7503213824376813 2.668539992414565 0.4571398280837869 2.172273896017543 0.25201567521450147
Ni 4.257669444552089 7.242881263335059 10.094748229418174 -0.014654773798697342 -0.12499340885496536 0.7943546629744513
Ni 8.00988943140173 7.272962336466433 0.557882325501193 0.737982969052942 0.03614996755799581 -0.8741293092009333
Ni 7.7677836947609755 3.9246283415120744 8.328695984849153 0.6768807024249827 -1.4704745759740092 -0.6409107120882768
Ni 2.973636570841712 8.413866495271373 12.404183230450407 0.427919754876405 0.2681362349254479 -0.08557351229644618
Ni 0.2290997479822888 5.005853035518383 10.124459550333643 -0.5567963008358604 -0.09722652315434224 1.7205236143804434
Ni 8.761652150960403 2.2857881628894505 6.060114960795432 0.40417098919623945 0.5229451566143704 -0.6779333120592131
Ni 3.627897634649711 2.855534434490625 11.777306598612958 -0.6017710657743377 -1.0951588204465654 0.015282637190683358
Ni 1.2365206246863472 3.6629057015940023 12.50624577067707 -0.9984053802738999 -0.5912447123217173 0.7959538891407711
Ni 3.1627748471942247 8.52769735602494 7.940120102563664 0.49376647816788505 -1.1015230721016966 2.222173094840831
Ni 5.534070486811031 7.841752352336818 3.8642048186829134 -0.12256551613976312 1.2323114903718841 -0.9650298901372476
Ni 3.077759159128417 8.421552969907426 3.6367935451052738 0.14586793831112943 -0.09188299945424175 -0.1300199155352793
Ni 3.5201594889808825 4.272040602106224 9.28572673813938 -0.33600950172865357 -0.22161880809019896 -0.7718616240782579
Ni 7.355664796383476 6.1508918619593045 11.651744756841978 0.17689009772425665 -0.26667841943299875 -0.4770581642742687
Ni 0.46505357275497156 -0.1528378980920408 0.048361039825072845 0.5792926821661637 -0.274890780040462 1.165763113027689
Ni 4.55993732745559 0.6513913858958896 1.6784528445905984 -0.7207923162062684 -1.4532594976473037 0.381270173338666
Ni 5.946826889009057 5.82742242342461 0.4648140534624026 -0.5668783676622109 -1.1160608607065552 -0.5161402178773951
Ni 7.7665086871199245 8.756670513962867 11.89640415164381 -0.4679371758096071 -0.29616871558263186 -1.569003362879543
Ni 0.14314419714107707 4.883215514844127 5.761938030980219 0.042460226046739775 -1.85366176382973 1.109498634108005
Ni 7.899992879940552 8.912266982158297 2.6608353033836414 0.4787926304668722 -0.9883469675966333 0.4557702014297699
P 8.745960449778037 1.4972870088736303 3.917935462116299 -0.5957446570745998 0.7175694383935965 -1.0330751637419433
P 1.8660738618502601 3.196935944776962 1.3748644180588663 -1.1577878081316963 2.0213791939157835 1.3217138894961173
P 4.612403891884848 1.044923405026093 8.23984252378378 0.6929639811400904 -0.25463640066680016 1.4170771341894757
P 8.475686151467485 1.5862916494164416 12.545261004493236 -0.133032477109358 0.9970738059466699 0.11294419099991516
P 6.201855738811609 7.817955245436341 1.5034252599455482 -0.41342927456971384 0.17937686870185235 0.7376368985674329
P 1.9371191090491213 3.2353136747726032 6.049584308400092 -0.734460043501348 0.31743688093278877 0.2788068272654166
P 7.018516347299789 3.6541901136476738 5.772641720126844 0.2670162623883917 1.9395672055442985 0.598152238074828
P 2.3526167776754066 8.691927447389773 10.220177106106588 1.3800619904177072 -0.5730775544943872 -1.105559446954599
