# total energy = -340891.0381608389 ev
CRYSTAL
PRIMVEC
9.06446364576755 0.00000000000000 0.00000000000000

0.00000000000000 9.06446364576755 0.00000000000000

0.00000000000000 0.00000000000000 13.26675879560749

PRIMCOORD
 96 1
Ni 6.253917977376203 2.0091202569643656 11.554020507126976 1.4873366418366707 -0.8039212236169638 -0.8518008209070619
Ni 4.4334020172548385 0.3767227384300414 5.929405643588157 -0.20571422104480053 0.09660071664488525 0.5545977505226448
Ni 2.776671852282039 1.7338415579291802 4.529709225053551 -0.8670130098711262 -0.2986426310444212 2.4068379514145004
Ni 3.4436622869722187 4.3330674682206105 4.690569011309873 0.5498417238948982 -0.4723769567485155 -0.1992772071702052
Ni 4.761834731606377 4.655735183639475 2.4550538017631798 0.4392236099249984 -0.5087205283745562 -0.4640044164141041
Ni 7.311432702972665 6.339840029078745 2.5090227123689153 -0.789173375883828 -0.8043071462014729 0.4722856825862899
Ni 5.162094256559345 4.384200108125035 11.76010652872085 0.028990473695079105 1.1175186761990044 -1.6454060073099985
Ni 5.601394426800092 7.706788353047368 12.632117004070183 0.5157370689017053 0.8074379785209708 -0.6379128058022174
Ni 1.9466932952515887 6.471510429229725 0.3874387474523799 -0.6639835347473403 0.4985119632726705 -0.13171375829793444
Ni 2.7772973002794514 1.569910731360925 0.5686745417287606 -0.6313441514457644 0.4318638271258175 -2.131525510455587
Ni 0.4553605870786584 8.957666218945407 4.772942325461878 -0.1350397373473739 0.621445918495446 -0.3052521659411388
Ni 8.549312127880995 2.153743775786401 1.4535991585551071 -0.16004037315676953 1.7915801640076372 -0.7231240496632384
Ni 6.768697937101818 0.7329452856869138 5.050390150667801 0.22668902352425474 0.045018473692219244 -1.8563660501347707
Ni 0.49451816394856185 7.138609637484672 2.438350714446767 1.745991676744561 1.3886918981785632 -0.6191103283837337
Ni 7.624138572751579 3.4783247962781076 3.8297549615606012 0.24433450452015987 1.1965898686005587 0.1802451302394186
Ni 7.241391591726167 3.756150609621597 12.77216115581551 2.0472066965018483 0.20558180923199434 0.28607507879205574
Ni 7.713668281018909 9.033581102689345 6.993293593633618 1.2390608932805758 -0.3353692970414934 1.0616971983540102
Ni 6.8018194875735025 0.7036407808921936 0.3727724451362374 -0.2158456530518476 0.36040515696419867 -0.33466172945150746
Ni 2.160533059120635 6.357932698685062 9.267415260655392 -0.9043497986483715 1.494795669217877 -1.0085141865731275
Ni -0.024535690426041045 5.0149689457476585 1.3285992972634901 -0.4872392185723286 -1.5187136134860553 -0.29489550529716313
Ni 6.377602584980506 2.076306062135718 7.012808477599269 0.7226537948950393 -0.8552602402105722 0.9833333164321257
Ni 3.1229524957191677 4.201442390388284 0.13219613904735575 0.07586631231101126 -0.16786963939320124 0.5046440443123373
Ni 6.041863912862088 5.513994867509457 4.439269444627668 -0.15356325007285812 0.20296519754475367 0.9996881036410655
Ni 5.490418197346116 2.8150145338625596 9.465752978652333 -0.8650013787577361 0.48286834319814265 -0.6097983069541885
P 0.08734064027638483 5.485260517483394 12.467264321540526 1.3985986157693138 0.7082617878394254 0.09192799375956426
P 4.04747340945998 6.051000892302553 12.716533448347072 -0.7467414319718623 0.12715416395171006 -0.3004681142889341
P 2.2861937198182143 8.489577311896213 1.6372769193605168 0.6794651753227072 -1.7590629081062223 -1.3640812987187347
P 6.41232854553251 7.670439853487584 5.761488265871176 -0.05214197211087794 0.15438831707731474 -0.57671412280571
P 4.818433243140365 0.8002253612810644 12.59615102487983 -0.7532812899729092 -0.06156480808667462 0.7425939854623921
P 4.068729576908282 6.165892970088156 8.00273493583474 -1.3038228681483093 0.20756490110029416 2.3366159818734595
P 4.708862005564636 1.2348609584860342 3.884201569404941 1.0130532120940616 -1.2266951726263713 -0.17606683049201288
P 0.1477607297192026 5.4135515449104625 3.568692060994146 -0.3410478354835094 -1.2675309756958106 0.0017043842856164196
Ni 1.3619266110618593 1.1255888482134153 2.499828626806948 0.9386570565706737 0.414331474669009 1.2371384794468823
Ni 1.7519342275354968 6.469706600947332 4.649322075550062 1.1651846148163998 0.117596602170262 0.47194295453489044
Ni 5.997448040582053 5.735321878419996 9.170633981403567 -0.14180250999250416 -0.8798458999697362 1.1560479426224541
Ni -0.43667872732985147 2.262925241421714 10.307727446983884 0.31291071092766115 0.30132969095828105 -0.19903732324525722
Ni 2.2630884017688646 5.437227924174842 7.048230588965783 0.3223926822761673 0.20631020275758663 -1.4288610141982812
Ni 0.8635814305262297 9.199705529480411 8.958976033954482 -0.8439342736747916 -0.023126558715134363 0.5043447679043637
Ni 1.664244605405483 1.2176475418615877 11.586908194434411 -0.521205033994812 -0.3570673508402173 -0.7268950866698966
Ni 4.334300235287974 6.90932402741865 1.4543814217750597 -0.9256364759412896 0.2981379234938607 1.3648310324005657
Ni 5.46457541125012 7.815072436773349 7.886531230147315 0.8959700592251086 1.4932242109656992 0.8429497982743354
Ni 5.332388336666495 2.921277242176613 5.100445025834656 0.1131701909677922 0.4857068410882022 -1.2124494613406345
Ni 0.6512354902799897 7.593473491950893 7.1312946152540615 0.5441690989901531 -0.4524035989503821 -0.6793011389410172
Ni 5.378290780998353 5.0440205520042944 6.835114169302441 -0.014206116297052953 -1.5288465881549993 -0.6486106518356959
Ni 8.379235594903381 7.145643661339633 9.361184418609534 0.13114554449929025 0.8498858632725365 -0.12310776179647831
Ni 4.429531491241864 0.1299409004711776 10.4310685114128 0.4599744693191046 0.7965177320640411 -0.24296847741056868
Ni 8.39282322603558 6.936816545913619 4.842154944723396 -1.734811491758025 0.26838691748367327 0.6449802541719601
Ni 7.308504881187675 6.435941473550773 7.340497905924896 1.7840625154743532 -0.8769611222227734 -1.4981656141313748
Ni 2.204586352851446 5.246910443686753 2.454828096616287 0.6084101683574102 -0.4520647275537247 0.3513790422061884
Ni 2.2060729249032676 5.462971001169801 11.300890825217559 0.009777391101738 -1.4094571557503726 2.047754084364886
Ni 1.2026095965324899 3.2594905128934903 3.7649204782809713 -0.9175346727697617 1.1199098021390004 -0.04373163655999565
Ni 3.5915671416647377 2.494087195479974 2.5347866376304555 0.657084750744978 1.4839309585892313 -0.5341405111095575
Ni 1.4825111720702915 3.4667676050215674 8.14555100058889 -1.164659338440549 -0.3230727390623275 0.3393141406218544
Ni 4.1352536762273 2.940122262272571 7.235451648643493 -1.6507423319212473 0.34789211209885246 -0.0468239023320742
Ni 4.268628195559636 6.940895554592398 5.932628966890766 -0.7546794558720165 0.2750537879808876 -1.25978398476054
Ni 0.6847069290516754 7.5217554549142305 11.488854264474806 0.07101978285198737 -0.44425731569416393 0.6301367614012244
P 9.324885773600267 5.568943646644474 8.036591614314975 0.14817678894996414 0.5426045827165108 0.0730003036171259
P 8.743028782268066 1.838563307409028 7.987901847385953 -0.007874003431438053 -1.6809931603859887 0.7696774719427455
P 1.8910374879455847 3.221646376818153 10.366446136584466 0.14529895318153688 0.22645171070246808 1.0252057882961956
P 3.8762547540523067 6.154462681323844 3.838471349883965 0.6235526804258036 1.5951429973893885 -1.6295659549539485
P 7.057926845818428 3.998144597837948 10.391321744400406 -0.8098311613434955 0.5586222983010056 0.9791902407980297
P 6.254860681604187 7.648086885927876 10.245175395671625 -0.4986788278678379 1.072697920339888 -0.8777843894550172
P 2.30033428323798 8.32451342736163 5.6316062844142465 0.4411352251254145 1.0092752331088684 2.722602843961505
P 6.793543632187446 4.004544109231765 1.6774488097218765 -0.2060461504629226 -0.5255795089134239 0.6770090004727308
Ni 5.076670750361986 2.8364066682668216 0.336307013994328 0.6576717335966995 -0.4139216408251 1.6756293249709144
Ni 1.6872411498900648 1.1436543244285402 6.80202615734656 0.836772980039662 -0.06136451915041045 0.24633636544153703
Ni 6.770166380226178 0.7607985698383615 9.225638053767339 0.15485805762488167 -0.818041722178746 -0.12290875841179479
Ni 2.8620772295519363 1.613066643182405 9.111053261302205 -0.18039296867119256 0.20172695426227838 0.5651804111344976
Ni 6.415854621923721 1.7080078362969144 2.6439454421064417 -0.532783997081663 0.4777402779429578 -0.21908241482159044
Ni 4.1813464742974995 6.858979995858789 10.644703418401532 -0.015277494984360786 -0.9942440498073586 -0.4844523998558109
Ni 8.05429269908813 7.330540592516811 0.27519621241523695 0.3614899053879452 -0.05809818969431285 0.06773391301186399
Ni 7.621564265052083 3.7036401712301177 8.277622050036761 1.068531190556708 0.9183952209978441 0.06604032735952498
Ni 3.223178271188628 8.268504105970132 12.548403962178792 -0.8141045919078689 0.6605050892804367 0.2663439189117155
Ni 0.030096738924776146 4.943024297117732 10.247165045460497 0.3880709983105833 -1.2201278038214987 -0.5627820861056502
Ni 8.909624561173123 2.218065210418877 5.866109399803614 -0.9248818571634523 0.9924694744054391 -0.8378196761366216
Ni 3.8696286310652233 2.4393468990107623 11.540461882278715 -1.6049005909967844 0.33833917830309473 -1.089845378653452
Ni 0.8765327363045391 3.275407711204458 12.686869084342245 -0.2844714817503617 0.7605222878060386 -0.4488770738543625
Ni 3.1496110835509197 8.38654155267026 7.963610897480638 -0.8042202429146214 0.1400968401553071 0.03258024792886647
Ni 5.397072349848196 8.037405603157985 3.669546003800139 1.2173124458598905 -0.45851022606875225 0.22260379771128758
Ni 3.0961398120039947 8.470632582699217 3.660272150957342 -0.32005143573750044 -0.2997384352117612 -0.19849173515443233
Ni 3.653767491784249 4.381317608658698 9.50710506219142 0.06389962686743834 0.008587484558694888 -0.23245652213565127
Ni 7.418393374993976 6.270215883163857 11.435429221692907 -0.8810023821716826 -1.405717486202282 0.22663528746818387
Ni 0.6440863477356501 9.218740903314712 13.760945491620923 -0.8093387950881095 -0.7525395267108782 -1.7787701567271623
Ni 4.352891450399476 0.252197855037909 1.5789833531089024 1.538683628850079 0.07431722265633653 0.4120017980945679
Ni 6.033053254115926 5.6462363288754664 0.42445801732823024 0.7938211590684844 -0.5719868925333698 0.2846010653496905
Ni 7.742139761596784 8.763070311576467 11.309805725296624 0.2504419029694784 1.2835648892302218 0.6255373149560001
Ni 0.24769644234928334 4.7738542105131785 5.6923943910845285 -0.9648288298700353 -0.5371427882709909 0.9512228090508262
Ni 8.08574638823338 8.894994516711902 2.4785751786977643 0.28336127940531847 0.32730040399042987 0.6809170772778853
P 8.690337054601974 1.5832898798273196 3.621081942018008 -1.4508704285898368 0.047982184306233494 1.451558970016429
P 1.6592682148173727 3.255629051344246 1.5438259240833214 -0.03793302760034758 -0.1947019290946969 -0.28078117738296804
P 4.759305746225534 1.0810007511224977 8.221542932274538 0.14681256161258588 -1.1651247081127418 -0.41023467889181603
P 8.423216372924347 1.6321835971902816 12.457287972758605 0.3996327350062536 -0.4352291440536247 -0.11474653431597658
P 6.375001083889819 8.085193455945813 1.5896359108851266 -1.63863115048001 -1.3655707387800675 -0.22860963758573533
P 2.10106111258404 3.4663597041536893 5.983360957498297 -0.866336809739708 -1.9091495124843894 0.7514671195823058
P 7.08180264328488 3.9604998799646847 6.120804514599308 0.5703442147236242 0.20761863715636503 -1.6178491807376525
P 2.2844896006368574 8.425246812800005 10.45360911337173 1.079164244790522 -0.14650042968880575 -0.9765142366277634
