# total energy = -340859.96662284824 ev
CRYSTAL
PRIMVEC
9.33728490045053 0.00000000000000 0.00000000000000
0.00000000000000 9.33728490045053 0.00000000000000
0.00000000000000 0.00000000000000 13.66606027903073
PRIMCOORD
 96 1
Ni 0.7514525377773883 7.520697322990081 8.4155462775046 -1.9671515429204702 1.4100783342741394 1.2628356271026702
Ni 2.2224044912075778 3.8813598717854023 8.46475750302268 -3.813470493231884 1.208932963546944 -0.9239338914278862
Ni 2.489152041792073 3.793570720616422 2.298371706161386 -0.22769355352936915 0.9496060993830098 1.308816721818475
Ni 0.23539108095509 0.275874746422368 2.173190464504074 -1.2424321237456537 0.3156430222571597 0.17643424113376063
Ni 8.02270710000019 7.703278588886511 11.683947953758814 -0.09732473929510335 -2.092989559163918 0.6082934402738878
Ni 2.0281422820956196 9.326453494322926 3.64307049764558 0.9006510096405457 -0.25022721585551094 -0.06726134425081964
Ni 8.476816606270365 0.4642778093570731 0.012194493876482462 0.983457500714816 0.3130456938436286 -0.45906275613811265
Ni 8.268259014214383 3.8682783358581805 10.473572539425396 1.7934131034513179 -0.8443317662235265 -1.249312910025887
Ni 1.6825226872732624 2.553271176133425 6.60345382474405 -1.2425002579794278 -0.3055810100354673 0.23631857619421878
Ni 0.4314880665193675 5.226124957991283 1.5752316831866549 -0.2418544184107835 0.4679160927636845 -0.592049981831832
Ni 1.5760683038997734 2.317570097324813 4.292058473820858 -0.7215366505714605 0.29966670143356133 -0.7902244428561616
Ni 7.08699912117166 8.98170226698182 2.091713317822461 2.61590206276814 -1.874879535557926 -2.960498791945172
Ni 7.439070779752554 8.04795511794966 7.653840467349136 0.15379104981294803 1.0652293798769847 -1.9483104989545672
Ni 5.138699960927344 8.01770231537707 11.383772923788555 -0.5882087537088708 1.4132186796753339 1.7503324702117598
Ni 8.183607190719597 8.74305994347865 9.614195929655715 0.8390365792628582 1.0553090354394794 -0.09618059838833114
Ni 0.771544507090876 3.0865328451838 11.711225897411765 0.15414689049047 -0.8478302662950883 0.5885964760655927
Ni 4.677157976000446 2.892849547726008 11.201358795289053 0.983739550731609 -0.9081596593127649 1.0538008263250689
Ni 6.967397840877737 5.974060140605371 7.3529007137582925 -1.050285356972643 -1.6976857905503215 0.3676266144133023
Ni 3.0180531988667076 6.8141076372252005 0.08792454179777726 1.7592984211557958 0.19427949684529766 -0.9543207312498595
Ni 8.697764775182467 2.889553486211155 0.4747066226883466 0.6746878085387219 0.026245821070406416 1.3279148761005066
Ni 4.225980377140084 4.0092993473562775 9.183414695591516 2.0587753751760545 1.1697573217887467 0.9831124586705714
Ni 0.01687807590438721 2.3539014722661555 8.469813642711895 1.0326175073792345 -1.0964541422192213 -0.305406432130816
Ni 2.4454722237567097 8.798850219827795 9.340232525420571 0.6882010125338084 -0.19648421780610031 -0.6867920480014236
Ni 2.2076795931653015 1.5604657010915022 1.6080167573819881 -1.004663702478786 0.9995001559999752 -1.3102958774671627
P 2.302359660475816 4.94656665273716 0.5007202979868766 0.6477195074799942 -0.357906558912061 0.6482278145749804
P 0.47891867183664777 6.9950828901455555 10.81162986733308 0.5031114097178948 0.9318636877979243 -1.8332304925585718
P 1.3107120087422275 1.1161883556574195 13.12078426991756 -0.7228702817812196 -0.02483608520707336 1.1861380771396153
P 4.43783403071092 8.882820421536222 5.226052127170275 0.7828947419639678 0.46570880069972054 -0.3864720292545796
P 8.566202433130677 7.506317904483355 5.659539306353467 -0.4442398321926672 0.19052542911950412 -0.24092290773544958
P 5.175246093417812 4.218575910337595 13.051374630039904 -0.5283061638159675 -0.47405434445093847 1.8593899245627588
P 1.8680825470032285 0.5930763151244537 7.451623825363231 1.3954117334009002 0.0677663089116962 2.4915892249199674
P 0.41693964315876464 3.1138724149160666 2.4723682724636062 0.13631397607410717 -0.933589155129463 -0.5742623188311078
Ni 4.031410037631553 5.292690460935726 11.580728939549338 -0.9655348547981243 0.6940636419621724 -0.23996877135229638
Ni 6.235802906566746 4.1705449176112355 3.1228446118271784 -0.5477025660647084 -0.6772797376356142 0.36384812120747656
Ni 1.225780066705103 8.113185389175623 13.181488759227802 -0.5548607743760444 1.1370850283667062 0.6038616297547794
Ni 3.597441054555538 2.0827093741432177 7.961819599908955 1.670711833064639 -1.5248042997648255 -1.4139162199629907
Ni 4.6416109329776525 0.7570175594851858 9.877445733374872 -0.5860963353515584 -0.08828448346970601 0.4462663757043927
Ni 1.4023107720870154 5.823953951050752 12.287441877472848 0.062505317623073 -1.6588999280313752 -0.17859062535513115
Ni 5.701616846326653 3.5581590976348942 7.483971914632515 -2.0205502702565847 -0.06814914617241168 -2.1727405512413163
Ni 6.78373344995093 1.4890914965035758 8.888377973416224 0.0906270155599536 0.5480566069700175 0.7599538168970783
Ni 3.687219047375124 2.9528042530712564 5.660987519217359 0.7188231082950394 -0.21724613294380005 -0.6587999336638718
Ni 3.454954089352535 9.21538649228559 13.534223365025564 1.0214118684714024 -0.12119280416195258 1.4171601808215852
Ni 4.4633715044874736 2.832371954435061 1.526717952838998 1.5983440208251891 -0.5477154215805148 -0.816024177528085
Ni 6.97993781428977 0.39470570072485955 11.539730789692632 0.31056483640330385 -1.0830993181788702 -3.2423886290112867
Ni 8.579087886078261 7.313811104903387 0.4998565991479986 -0.765201695559579 -0.7628149404949572 0.4762346399317089
Ni 2.7754612039165614 3.151931187535165 13.059752041912784 0.63425464022434 0.12415111545932812 0.11363453219872043
Ni 5.6003353187016875 7.192678509911344 3.7397169971233133 -0.18142603792139722 1.4667516185964675 -0.3960689289143953
Ni 6.921449062649429 5.847848062712251 5.153813290014996 -0.7494912268028576 -0.5981560947295699 -1.9731617536702921
Ni 7.962892453926111 6.963774974396822 3.020268002808133 0.4992750666909401 -0.6946017738538295 0.19502460254143833
Ni 6.71328363655272 9.031292586260532 5.170198357284867 1.826304711973016 -3.3010961701548247 1.9542636312142083
Ni 2.907910588019091 1.0514249486686889 11.73285945243659 0.4488284800046141 0.2674857458256425 -1.7258578821091632
Ni 6.098834276647818 0.7526365054830069 3.4620775038842106 -3.3139550283953634 2.696149791976299 1.8492194117876604
Ni 0.546181669951515 -0.1347939763019054 11.13507807952932 1.304909930564901 1.2333998383400566 0.2509872339499871
Ni 3.0558225156587224 8.158573930319253 6.694948010499698 -1.4973678008204276 0.46361875093991123 0.4076898009827753
Ni 7.348275022895804 4.9669499453346795 1.2763405298687822 -0.046085481504152884 0.8361672281348631 -0.8931968673553455
Ni 5.97597428397802 6.3179803496042055 13.11542746965957 -1.1708189302840415 -0.041118881527496924 1.4356145308720307
P 8.834836115233585 4.7410530155079265 12.813229983813622 -0.7981408694897609 -0.6701780935938264 0.25737411131293736
P 8.662469838847777 0.9639345906115366 4.256307877990632 0.8402033458774497 -1.3309372078665982 -0.30891290262217763
P 4.35864451879174 5.935058302227065 8.301380230660524 0.14737074810890105 1.356870125682276 -0.6244008873587118
P 0.7666807154674 7.545964015509041 2.0918636481068495 0.5895593541994942 -0.3400566752148337 0.39597996874501484
P 8.922802674812713 2.9277523181014224 6.179888444330498 0.04795853015714966 0.70690733069406 0.41476496266200186
P 6.094417740963609 8.537462270686715 9.392081533879008 -0.6545239319963372 0.22755831350308553 0.07383591214454381
P 1.829528898292665 5.0917054068076375 4.624279998763151 0.8989638517461099 -0.3194233152351983 0.35511176977574327
P 5.936253474674378 7.247516383216537 1.5642585061547694 -0.06939844519848047 -1.5953772248873817 -0.5385666652017111
Ni 6.5847092256192115 8.430251567248911 -0.3704558385145896 -1.3620899793203187 1.1174204600582434 2.1453901842528214
Ni 1.6453509567049036 7.277657138372192 4.707766529121806 -0.5819663723435848 -0.7306252431362901 -0.09173876056689362
Ni 4.165241339876288 5.467652502480542 4.071392290908045 -1.1249188253178175 -1.3341096920573088 0.8486072536704288
Ni 2.844006211226866 7.774073881820271 11.364408328956674 -0.46805441811376164 -0.19688042480325446 0.6532342666506362
Ni 6.828020191494694 4.79575082954195 11.782412422576325 -0.4690936580115534 -0.045265813816334946 -0.2754299403733837
Ni 1.713895964015208 6.1664829046226375 7.029083678814638 -0.8666944501894428 -0.22478692140553547 -1.4783380378824862
Ni 5.027614284320519 9.31160721157897 7.54162871420211 0.043130512640887006 -1.1258210254171126 0.8782289331916037
Ni 2.446237881105769 6.17066600818823 9.48173067216912 0.4969453901164991 -0.08371254782830745 0.5185087181095716
Ni 4.448609257306218 5.228393918184228 1.6890980031904286 0.6454885612669464 0.8835765706567621 -1.1014096864522838
Ni 5.770283238338637 1.500641717732679 6.150642201053378 -4.056837748742767 1.7291046711812348 -0.6314858192299512
Ni 8.637856756260941 4.537276113241194 3.5281117153266854 -1.0121754374747987 -0.08090310340397035 0.3141677232632138
Ni 3.4051303379552067 5.01873452652838 6.556347223207408 1.995972066696588 -0.9459109099196098 -0.8765260915678841
Ni 7.773905810694868 3.8231605759721443 7.962652485708175 1.9933842513647542 1.241278726867501 -0.15643774340717573
Ni 4.9975855765818 6.879842121827372 6.357178270962149 0.5536754958186916 0.22669056618615152 -0.46158835077344373
Ni 0.7844047493696502 9.247898917766381 5.871418170593113 -1.498483916702742 -0.13846933185421315 -1.0944967613825343
Ni 8.121019371076365 6.074053122935577 9.322125662843792 -0.17324761587566292 1.2101799485801674 1.905609617651931
Ni 7.28071976776843 2.4686847136318515 4.864229542130567 1.0417150988051285 1.2970176723010178 -1.3617984162218288
Ni 3.837213189512807 1.7486960242584317 3.674339196798386 0.5276587600399558 -0.4669616992702152 -0.5156234261419764
Ni 2.1278644831682327 1.7157634209641335 9.589337276480096 -1.5235084637715373 -0.055010551907924615 0.5901815611645256
Ni 7.740991881970059 1.0342163328843417 6.838319216568017 2.864588673609408 -0.2015760305067109 0.27816070904098544
Ni 3.3951954669869244 7.48206897600156 2.233553209192662 -0.0627850536470209 -0.6803419215007057 1.2048621359116798
Ni 5.647516618516286 6.483670467397607 10.014324725360254 0.6999887491973558 -2.2311079354366155 -1.66200839175337
Ni 9.13389067103449 5.344559077692129 5.650779065806058 1.2084642514406414 -0.3111124813766577 1.30834286750585
Ni 7.284604078222196 2.270696927906787 12.440200789623415 -0.3588815212308206 3.141394668394712 0.13441393083791692
P 3.6687498981502524 0.19727441717057492 2.0907702520632543 0.8768137980116318 0.16494192422344497 0.4653794423847598
P 5.576105064789381 3.8379601722923775 5.153607869750614 -0.39495204170113274 0.8056047819669738 0.4829205365923167
P 5.3458196111326535 1.1201006779654181 12.600039231067358 -1.7680414574557488 -0.3163238503742681 0.3738360856581239
P 8.68265704846566 1.6617192168622341 10.378675847108806 -0.2789333255409519 -0.8038739153187962 0.7416948706868903
P 6.315683377557028 3.6849127380432014 9.663462245153788 -0.4368327410953186 -0.25380927677981446 0.3502809240460032
P 0.26634324615505306 5.180325576318889 8.225587622931439 0.7538759861341146 -1.036319381710854 -0.43838054519841274
P 2.6329742387135577 3.5737336885889315 10.57252908314895 -0.4185609393693243 0.438456906962303 1.9479456594159803
P 6.5785372804030136 1.7794717147767212 1.762292978303557 0.1542625901327279 2.250137441264241 -2.055622945590002
