# total energy = -381173.97134292166 ev
CRYSTAL
PRIMVEC
9.19122670430584 0.00000000000000 0.00000000000000
0.00000000000000 9.19122670430584 0.00000000000000
0.00000000000000 0.00000000000000 13.45228934519259
PRIMCOORD
 96 1
Ni 6.417645256721855 4.725503685185124 8.176866237817254 -1.3474292919843505 -1.7320709528984104 1.090079349041129
Ni 8.482546211950648 3.9420802995362263 8.927839998154859 0.30826215641205623 -1.516543345307614 0.4950923960681603
Ni 2.9833986061587487 8.190090574567826 2.210171048114388 -0.002694773223343746 3.6252554574131115e-05 -0.6878829670727572
Ni 4.993869117797829 7.449286906400437 3.9146426500590206 -0.9022620628814073 0.18045750336054084 0.48621360552129167
Ni 6.70192989370764 6.30766303990414 0.1084757747872596 1.7903488627036974 0.049794812034940045 -0.367969856685334
Ni 2.7149964086398706 2.193449449664073 9.791221539994966 0.46220824374562974 1.9139857575307682 -0.6161551024101517
Ni 2.106022502783737 4.199829865491363 6.279313620753834 0.08711411731068869 -1.2540080015087114 -1.7499164657202635
Ni 2.1322450721119117 4.839208348752896 3.7837788856574717 -0.40358117813104044 -0.7240982406510498 0.544632668890133
Ni 7.125911982925787 3.5955894413050546 4.439860584916232 -0.8433264648874637 1.4974068815884791 -1.3322523271335958
Ni 4.790154772691042 7.243945714195476 0.8301175738570742 -0.9955884796503952 0.6485360898440186 -0.5607321455551569
Ni 2.846173593866548 5.478145653140347 10.336752085512979 0.7024348967450031 -0.09093477660835952 -0.8478264096403464
Ni 8.196294652484585 6.019885736831882 8.95681625895542 -0.34462706819433553 2.2691620619958597 0.33986487091900175
Ni 7.9134989941988225 1.3328105698244999 4.412647201366684 0.7286388088338805 -0.7857100999255758 -0.7155940598347805
Ni 7.2276312870810315 6.2139309116150665 4.608633563195824 -0.4655375652291789 0.2921030301536905 0.12989521703195694
Ni 7.5779548867807796 6.4662944188158 11.368811935999284 1.9271708887624746 0.2799861922854985 -0.10666684263163566
Ni 5.712439208956857 6.18468442875413 6.584276679216847 0.4388173756255152 0.6276258220539127 -0.7791116207724518
Ni 1.7627853387489107 0.14591531698893756 10.021618934879752 -2.9210634687676857 0.3067529188563814 1.0127804180486493
Ni 8.348960925369614 5.085597558700453 2.537868605432374 -0.12287199163658838 0.12257940009683407 0.45808805092966914
Ni 0.17829784634646487 3.0288767950952398 7.152192456981186 0.3260660173626965 0.5748215337686874 -1.1920480148661472
Ni 6.899385013538407 7.929500919610793 9.451874103033287 -1.0417066141646962 -0.07961112406542419 0.31903353599594736
Ni 6.80111241933692 8.315321036220956 6.946291519079735 0.7490873064962196 0.5486423042701584 -0.7203709123981336
Ni 7.281436727265797 3.0262481043038423 1.7342962129551462 -0.14949885019549736 -0.9820277102468249 -0.5458462295822598
Ni 1.1471845585550227 0.31171401435910207 12.394441604395862 -2.1244462350113023 -0.21001181997888993 0.46507553799109586
Ni 3.819873751415858 1.2331133355087929 7.8739610949772985 -1.7386511772190893 0.7222498745884013 -1.0692636978473584
P 5.06047793655748 4.35211010686157 3.832503415809074 0.10432405343107194 -0.38888783778492375 -0.926886803408623
Ni 3.7663256655743065 0.5664010636299951 3.8276872131003588 -0.43405852078429114 -0.38677387676571456 2.0511939632843705
P 8.609596536459362 8.633199606222682 10.758104564817074 0.7528562866203486 -0.09382315389974809 0.8732525630229347
Ni 5.108446947887218 3.4596695831820092 6.081268424178984 -0.7728106182550883 0.6749374626556828 -0.10764257628134366
P 6.254703192561363 1.2400251378693914 0.49200819511078236 0.9672649501153534 -0.1478371462223583 -0.17951545116224568
P 7.379856381091978 4.698380375655701 6.277994679744864 0.7854977268044536 -0.17254184805788994 -0.21921045575902245
P 1.0859893722294047 8.730736902300702 1.2462659806923253 0.7044128464069803 -0.2915119335369109 -0.3349342663866038
Ni 3.2730233457662203 8.921905223175818 13.36463438989623 0.974413902455309 -1.5137297871182187 0.418678181673479
Ni 8.589964076562769 4.196291243272174 11.326168321328764 -0.30239129945357596 -0.008661018109107665 1.5452188588654356
Ni 2.7671382368202897 8.279144368546334 8.393044805239478 0.6887005778780462 -1.3157576719126822 -1.4539526670595861
Ni 1.306192777754961 5.297060107783284 8.114985385991503 -0.32679646777081783 0.21974833054036347 0.6160771979843648
Ni 5.276885365520633 1.0868441562979363 5.88608905204035 0.14349635275515932 0.039907120607582884 -0.9777977313258773
Ni 0.9430474170272407 7.023815838482266 9.801553397752347 -0.16482468191929034 1.072885610870662 0.17295913810096664
Ni 8.97355991634944 5.14023020927412 0.1718437670677252 -1.0455997785715154 -0.5340919172598092 -0.6385920912574293
Ni 2.339305023680479 6.194666100780207 0.45262470849518605 0.023817414134571887 1.5480707264919338 -2.858672308124974
Ni 5.42771339309699 1.1175704266323523 11.692527853978692 0.5938009030846677 0.8976299634260346 0.7731903701920103
Ni 6.079178339263026 6.1970006723222175 2.481234105717566 1.309212414594997 -1.160016183241583 0.2977574002259904
Ni 8.520597889840113 0.6593473420496121 1.5970427078606608 -0.2719622935397574 1.2944763939364028 0.030546505328289328
Ni 4.449766888884653 2.5335340229945302 13.51981997797679 -0.38486637533035656 0.48364455924253474 -0.04595178413976603
Ni 4.919052533734969 6.107845774851731 9.706485784246524 0.6022441487560145 1.3911601572133976 -0.43855332333085123
Ni 1.8046697581069524 1.9852038298714139 3.80141501114885 0.06528622280231983 1.5060468166516643 0.12301443075172361
Ni 2.664747973127381 7.273449551399627 4.295813844283558 -1.2821183865916823 -0.048909838326825446 1.1893069617859002
Ni 0.27783331507500886 8.246919928285353 7.90621954277649 0.40917924104410824 0.2962077963506834 -0.09476957697341742
Ni 6.575964133931042 3.257425834322157 12.563106126202243 0.5531301648381829 -0.025466519702220653 0.841365741616667
Ni 6.536478624700814 8.53968806737065 1.9125389119423508 -1.8835649791470657 1.0273398039200627 -0.5210358554067994
Ni 6.939284127963086 2.4248569603459713 10.112018324424207 -0.6161358191364421 0.17430433927495143 0.19851667485509683
Ni 7.173899376708613 2.416796254667455 6.460986485487017 -0.5824944769329129 0.559278958048398 1.1617125971073992
Ni 6.768989082567915 8.391038360485066 12.308696651972959 -0.2048079071804473 0.48332060024421275 0.7488453656887426
Ni 3.0210734437599367 1.4919382749695016 11.979371328434146 0.0858686749393618 0.7555047799867891 -1.0680817617241152
Ni 3.6418580757242736 4.2100045532748505 7.941478006919431 1.1775367086238495 -2.9630922637039614 2.226334168197056
Ni 4.619519651913766 5.5915286237791 12.289876696502798 -0.1351235553104318 0.17067728404532542 0.5462946299735881
Ni 3.9960511817987716 0.08404733288034655 10.277817940917027 1.387068246532211 -0.9419750652003133 -0.6995529472115178
P 3.3451928565845965 4.410547925224183 0.34441456015502925 0.9661467773505104 -1.1429211754325093 0.4174815902622165
Ni 5.7421176794653315 2.039836480445081 3.3651442520422448 -0.7931629566591952 -0.34153274553972796 0.06667744672289162
P 1.6321320534352044 7.076582670067633 6.482819325018088 -0.0025644182930665512 -0.29638931623387016 -0.4607547991285549
Ni 2.6116134924802807 7.668047289358687 11.582246003175664 0.37360031549823397 -0.3587308545855693 -0.715905163317296
P 4.784759522710096 7.648469976821354 11.728485770461582 0.15380981886602543 0.8531293099104985 0.06311132663818808
P 4.974953573571617 2.8904293496727735 9.167344979421447 -0.14214883758832939 -0.17718063238148196 -0.03317700097260093
P 6.314115280937571 8.973403665498203 4.345909705435426 0.515560434114525 0.8103135002965528 -0.027385333991488316
Ni 1.0040128226892748 9.12123535322143 3.5752152494264124 0.41948165141138083 -0.7393327982126171 -0.9321318538576463
Ni 4.208322558817418 3.6034663224527046 11.195492977071352 0.41991616784563807 -1.153634190974639 -0.48294341941045216
Ni 8.578337174985432 6.5780137774502085 6.644367999234609 -0.5199770751249819 -2.8055839129404263 0.6042655500614174
Ni 1.4110370989349432 1.2699241978149058 7.854656761868302 -0.4010694674527802 0.350736523526183 1.35374315001752
Ni 4.418535101090353 0.8478584793310464 1.725713445608967 1.0377720549969807 -0.027270662790494966 -0.7162815728201083
Ni 4.14929650195603 8.25564240227499 6.172770760908641 0.22419016836180097 -0.20538229162667854 -0.1785777698393247
Ni 1.0340589422594828 6.6422788334413045 2.153765409940509 -0.5177772392601856 0.09925846598270648 1.145446512957524
Ni 8.897585237742117 8.395854563193781 5.382018291214076 -0.7541984024705397 1.0662917597032282 -0.47791254185476406
Ni 1.8935489187811376 0.10614028412259462 5.9874930971251565 0.7201287144803404 -0.13243932361004931 -1.1558286275227965
Ni 3.513778333842705 3.271718191597065 2.474507966133143 1.035253916560817 -0.4115798800658009 -0.5073102782905908
Ni 3.5134382584606008 6.175529967116955 7.264747298108383 -1.5229304797808803 2.879855369960492 2.0375072098258973
Ni 0.07077795911971356 2.639701880796755 0.20298548084190035 -0.6281757810201117 -0.08376756943595895 -0.19953046083159184
Ni 8.338528883242912 7.799307195624254 2.919725465157044 0.19908077488868295 -0.9853896847405224 1.1134936142000114
Ni 2.2843874450839685 1.5245027906125872 0.834878629206529 -1.379024036071496 1.0920380154293967 1.1057358246314635
Ni 9.110141542783607 7.372062220983218 13.381018670332404 -0.2716905279356095 1.214987911491772 -0.1871716821559228
Ni 6.429648998587468 4.698950231701389 10.752670711684647 -0.8728666404384258 -0.4567472206310586 -1.204900445348783
Ni 5.9292050957552 0.9417606453111719 8.29947076604695 1.0497593092658437 0.1980327932401428 0.7280004039189333
Ni 8.144823783841831 0.6654383678798895 8.956830045795236 0.8982524275013821 1.1279082469634447 0.14236609580545803
Ni 3.538806043720244 5.7519614830932575 2.3194703567999317 1.4951553665501411 0.21332288662999388 0.8069525542441198
Ni 1.319759028132944 4.209866684876701 1.5134769952511855 1.1660143098065467 -0.9004944294580234 0.7767775733226364
Ni 3.8922362779916444 5.4298917137877645 5.302704440003555 0.43992269287455205 -0.061692849024106655 -2.7447698669768474
Ni 7.9171295286834455 1.3134262730445767 12.122288467324642 0.6947095030762873 -0.3928311387033879 -0.2108723682069723
Ni 0.3650672461979345 6.160254148601909 4.492337892865484 0.8553970228987526 0.6385000457642551 0.12214796898637029
Ni 5.692356378959639 4.545401601068201 1.0055073161252235 -1.742381076575167 -1.0660896709947512 0.026721732265560436
Ni 0.2906955174997715 2.299470247841604 10.239263502935641 0.4319245051604238 -1.9951536845603512 0.40686756219179604
P 3.156570505461988 2.0493126350112734 5.584273988668435 0.318321083309955 -0.09729414316748405 0.7892055146733441
Ni 0.24096362891901857 3.770038921097819 4.6789482844977535 -0.0898744536646452 -0.23260410345710908 0.7494464896078512
P 8.574881273805133 0.9354554639024345 6.767645325247277 1.1041764505641436 -1.1598094665474155 -0.18391023779583163
Ni 1.1409253332790021 5.941107734128837 11.728660403765904 -1.7984483518823804 -0.5824237715959777 1.762215337692275
P -0.006149849680154837 2.8197488175544194 2.7297253491755873 0.07647129288486185 -0.17715569268081746 -0.30501588156061665
P 1.2451906071867536 4.172357289353293 10.245223094226349 0.049047649456270374 -0.05074689153556421 -1.3377943399977477
P 5.061341911852555 7.7429557856869815 8.153835781467585 -0.7527794106358261 0.3295884286936582 0.28979366529422346
Ni 1.789072246662889 3.6209664177912413 12.343148126425396 0.5075583897456549 -0.10097416312223256 0.2559831445026817
