# total energy = -381169.91843233304 ev
CRYSTAL
PRIMVEC
9.19720617404932 0.00000000000000 0.00000000000000
0.00000000000000 9.19720617404932 0.00000000000000
0.00000000000000 0.00000000000000 13.46104090356799
PRIMCOORD
 96 1
Ni 5.664991595483883 0.9826938957453587 9.29807936446615 -1.1799401758590196 0.4366105977821835 0.6711517703610054
Ni 3.7055635936404467 3.0085809099209713 3.8053422447599186 0.6846580323775563 1.24028525260598 -0.6268958858664235
Ni 4.89717202925923 6.2108825749973 12.60719370399874 0.23449694960444775 -3.732827842578152 -1.4851172655878486
Ni 4.86848594297857 6.062347694127575 2.126063904325528 0.7431575712753459 1.1617964150704572 -2.783199374597639
Ni 7.87095071074608 2.9043581687435265 1.657942661385376 0.6358862622904919 0.8284657457255473 0.48710963497299975
Ni 5.557338296376754 7.806294350838082 0.21005407372727988 -0.6134729275922983 3.237172632027986 1.2118100279844228
Ni 0.8312793696000724 7.68885522428542 9.152713840868728 -0.21468505708484317 0.7137768041203837 0.364522778676998
Ni 6.970976487975478 1.7871183428283097 5.711640745283224 1.0842984806932938 -1.2971973924119917 0.8150661844901899
Ni 3.58254176289658 0.8169869110940938 2.7832180863975515 -0.8562909954679317 -0.7827147647426778 1.0294915601557433
Ni 0.7387067295741871 4.050725546839203 0.11406743074295242 0.34237889559010715 -0.6563751262724631 1.129976699456699
Ni 7.008924160945664 9.21909559666844 7.637054719267804 -0.492214560299733 0.2827403579918679 -0.8785253813860998
Ni 1.6904740995974072 7.7075991306143665 4.688184831456463 0.7396608709759971 0.13351738716557648 -0.05736748217587539
Ni 5.0995657499043805 2.173005525283484 0.1759305991141 -0.5645826296494986 -0.3134100191615828 -2.272333774855622
Ni 3.4744010118584234 4.4412113324172795 10.476391399015375 -0.5173964588819993 0.23292574846258596 -0.18136613121773926
Ni 7.690676271122088 1.1095877503187086 11.095020323564977 -2.2087750762673704 1.5488968219376549 -0.8078712094036474
Ni 0.6615835566000025 4.1117214186613715 2.780808418361151 -0.5045715392031891 -0.322088006551555 -0.2012513001774405
Ni 2.1763992943881854 1.9120347980588117 12.26318324102196 -0.3531713582199208 -0.1967081608914483 0.3538812398027518
Ni 2.848540324037746 0.6470262185541449 9.106152064528723 0.29338163975579795 -0.17847235460971198 -0.23453834436534446
Ni 7.485725727140605 3.7149631384236574 10.531959079711271 1.4106609462504869 0.07914344040038628 1.054172864952507
Ni 1.6298645104375629 5.680304943883146 11.838393715588285 0.3121962013591397 1.4968234982811834 1.1265522471561824
Ni 3.1013991153536193 7.39465499089466 12.776533585117097 -0.7046244481971542 0.171174278286402 1.026769790349206
Ni 3.0153960397491115 9.35797341098007 0.6544759556132456 -0.07424008956149795 -0.5590573289558952 -1.137666611901789
Ni 1.7004622655803499 6.596576616121313 7.1102966879075336 -1.940628556929277 -1.5954458733417878 -0.16993526367297832
Ni 8.162410176675593 4.736193328338932 8.528350458224867 -0.20009250398264894 -0.37838102471632895 -1.4358618709961464
P 5.211670496834478 7.6499694362781625 8.871566282582013 -0.6760206684175325 1.0642724152803542 -0.1900387192910727
Ni 4.671444996368477 5.5563909841334365 8.353140920080438 0.5540578188587748 0.9042544107210877 -0.9013922586819443
P 7.014598837199324 6.423945054887581 4.698374416256189 0.3196341456944237 0.1015364633836058 0.8043883930613694
Ni 0.869464330491399 8.043775413310973 0.4815859528840082 0.2696935521102387 -0.3130112410612674 0.4263259280267238
P 6.769612854429858 5.66793470148254 0.6761482524108569 -1.0493466472084574 0.26601584614833546 -0.4519577696622152
P 0.5410081827175196 1.789684363370889 0.6365487611989256 0.6661118939442529 0.10326938691431246 0.7156246559623998
P 9.026947563781114 0.232938562308088 8.245533607004539 0.5000391985504743 -1.538987533243743 -0.5075434773473194
Ni 7.484907175784728 0.7354932257119035 3.032463295379449 1.297915758635255 0.4776366624855581 -0.5829405633313961
Ni 2.926514238589667 6.5119899102786585 9.387675788550892 -0.034136536672392824 1.6201904272763192 0.7971918753129303
Ni 5.799877822284836 6.015377561830256 10.33175245471137 0.5402247696304244 0.3928126267606267 0.1713750814432984
Ni 6.841948881553102 8.775569522670814 4.810235437220774 -0.8793090536296599 -1.707432328414124 1.2956454745438395
Ni 5.612098462364267 7.492605237412465 6.618457689500703 1.6699217330631757 -1.0407504208990142 0.94551573136372
Ni 2.0097459172142274 5.847914830506667 0.8569828018952192 1.06282822663466 -0.13439824710863305 1.0622098763243706
Ni 8.571787023882548 2.5936581473477953 12.388411481544194 -1.0863013700559356 0.8990021611832131 1.1710950667635638
Ni 4.181666172160707 2.1283622861663543 11.072500044351504 0.8418259690825373 -0.1319922087703017 -0.1310324159601937
Ni 2.651664927140078 2.318422553235882 1.204136869966817 -0.5629006139613854 1.4928462588009903 0.6952823448606219
Ni 0.5976123885573167 0.8994076748658613 10.087906005795762 0.9278517384250536 1.1720630871037878 -0.44196286323303235
Ni 0.9773595161227928 5.282902859208225 9.67046596787311 0.578633708425926 -0.0406339714712784 -1.8880682663340578
Ni 0.7756105196354734 3.1033029370465006 8.422291034960136 1.2886322764508 0.7312698186988246 0.33678880309683934
Ni 0.3008176232846156 5.687782272560984 4.73613262677771 -2.214579084543657 1.8217574589219658 -0.41050001673806075
Ni 4.8353208172562026 0.7339057879138777 6.9257455473792415 -0.43951003081716566 0.7477253931516864 0.5521284630465458
Ni 7.388750384484854 8.349665295840149 12.127832555305593 -0.05107110764420236 -1.642875784688977 1.9253130096181295
Ni 8.248109744473988 6.313413030225516 10.30637920212045 -0.1053524946955863 0.4755507264908068 0.3963409516288594
Ni 6.128714734397293 4.619692316823341 6.946247039821762 0.6433118653306018 3.062324247324107 -0.10964803674714665
Ni 7.95186773129666 1.9483913543484728 8.772344982161036 -2.041776526625213 1.6804167190572286 0.7720436581820768
Ni 1.3602943953730644 8.867688740428783 6.751896276038567 -1.1450469635262601 1.120930787204347 1.1815298889436427
Ni 6.143614208515494 3.362489406259487 4.289253251382866 -0.10460790322007792 -0.7847289669592291 -0.5403885489017983
Ni 1.0303722129236037 0.3103256951015272 2.5154239518591175 -0.3892439355727619 -1.4070277203732737 -1.4243613265557147
Ni 2.428319970666987 2.2277748884772435 6.3996883431349 -0.2530574862154545 -1.4502011704369542 -0.5911778636395237
Ni 0.1012906718262823 0.38279416199471067 4.841774496878882 -0.7447583401035626 0.9968845727539992 -0.6369555840952708
Ni 0.3597891900120826 0.4162158897713358 12.328186335605423 -0.3224111942189286 0.2636038942727331 0.7686523731123407
Ni 2.8198910265820682 4.556590284770883 7.67400449536032 -3.0794192551331805 0.25054063333087173 0.07909793187443151
P 0.3276458739036242 7.546270935856729 11.853887329229964 0.26855069675504717 -1.434261616388562 -0.9980821926065263
Ni 3.4063876716707067 8.007115349215201 7.283082762206193 1.4508783990096366 -0.27314654365584573 1.0947420446241212
P 8.260939847186885 2.629048996981647 3.838603941147867 0.7024881185804418 0.4013211784522701 0.2200262667920985
Ni 7.37926806484543 8.075533366477732 1.4745089814159495 -0.07726267843790566 -0.16931254248731487 0.7057454491754749
P 0.4691614469665524 4.745712436803339 6.666297877508875 1.0439694420569439 0.33715055731163224 2.325029819697757
P 1.1699858037348996 7.164770820780803 2.5749758623006946 0.24342973331770332 -0.021668229002053004 -0.8337629895687447
P 2.2756923330178793 2.649439203228593 10.021018403652532 0.22784807682936245 -0.929529897458425 -0.44314351380469486
Ni 9.173597017370449 1.7469449459466404 6.756149983927251 0.2636334619590879 0.3905839945404241 -1.2313905212195115
Ni 3.2193532854560485 3.9840366043508824 12.963521065579902 0.7935607063182463 0.8254184742587914 0.1259999957426088
Ni 8.287703717362172 5.310577252801849 12.373698710712782 -0.69059573801823 -0.16391014052482095 0.66603836039384
Ni 0.815866691373355 3.6832971573193563 11.212024422262216 0.2467130320546654 -0.5011709981620724 -1.20027965874732
Ni 7.91220018075851 3.925597555865048 5.901159296904873 1.4069148489444931 -0.30020354777363784 -1.350679680600848
Ni 3.8053624786136595 2.7088531555764837 8.248791257456801 0.6401103276741685 -1.5295371864641205 0.9884176729335686
Ni 8.743839161122793 6.151900891342963 1.2153970095735542 0.7760741194977085 -0.7676612128436651 0.7940088495992584
Ni 4.291434828704371 3.7394461014499862 6.063916737513108 -0.08347729188904979 -2.395940587775706 -0.8482341866017263
Ni 4.55552340884637 8.10481727116437 10.95528165074874 0.6807077894805568 0.49037673576004576 -0.15645137025393055
Ni 2.507958579549399 5.7048982733844245 3.449162958199314 0.7855080112170988 -0.8602913748765764 -0.09584378387420268
Ni 5.541004058084207 3.69632959856966 9.439716340651524 0.6410683207120637 -0.7148584672203366 -0.6737154173231236
Ni 1.7043066977910957 2.0194949558347792 3.6424634010292385 -0.9640580131422816 0.9793799882113325 1.5232552101101509
Ni 8.332530900604219 7.721422531601808 6.51943780789651 1.4554804165580224 -0.5673609637255842 -1.7109801936663824
Ni 5.025068379313373 1.1488506237820435 4.682880802614509 -1.2425907608107052 -0.07967925829919825 -1.157706818382116
Ni 7.695182902182531 1.0416571849872045 0.4859003623339146 -1.1230858858741366 -1.687208288057765 -0.7782508154340532
Ni 5.565891698185352 1.62147665834139 2.232069064073409 0.7612779350251405 0.07711252601328655 0.7074189802231557
Ni 5.4820959520798365 4.181325875529612 11.732629522644043 0.37812674261367785 -1.075895344231263 1.2716974483686743
Ni 4.995287825489461 5.277917973423 4.086785953087749 0.25270781618551963 0.16784032881716254 2.0484058590162717
Ni 4.415827043178862 7.8212949942249885 4.946273154243701 -1.4318892595016435 0.34899871489946993 -3.211609695957217
Ni 7.232324300656228 4.982862399851381 2.9946370255317083 2.2141425112268704 1.4286231871558621 0.5680189090245573
Ni 1.6641792869406553 4.034501675021606 5.0392890996106345 1.9474970019143367 -1.4912136082935736 0.613018613663699
Ni 7.244538190550656 8.44896753167609 9.903610547601103 -0.1578729331918055 -0.7184585258667692 -1.4257972876712928
Ni 3.5560814005274035 5.762969433620428 5.833274717604598 -0.7986046965000569 1.7574837365445604 -0.07674074449616461
Ni 3.4573034054474747 7.725864782218531 2.461983584967877 -1.1429106339095478 0.6634608294746509 -0.3626916390055302
Ni 2.3053993091918246 8.793807582656243 11.216075791613491 -0.7548496629012935 -0.28268147972947444 -0.25117646714265773
P 2.9950610167396405 0.1619793569598408 5.4755475412328245 0.542133299507047 1.5898763496738102 -0.20495034629558254
Ni 8.553981232590672 7.68554423003693 3.586896640053968 -0.14520536502646605 -0.7193355291550837 -0.37731658800755663
P 6.021493703983715 2.6907622508909883 7.405860866984546 -0.4637264801623691 -2.4287267810677915 1.5049558975803308
Ni 5.767724389249508 3.966525123658873 1.6989989900666425 -1.5014021187908015 -0.9164998037473441 -0.9819094395014057
P 3.537714579654534 4.304807566585769 1.9783825241954132 -0.7150214751607622 -0.044815356542477654 -0.672386671209371
P 5.49352807944337 8.395844468400329 2.9893339164103785 0.3966687672819233 1.2177641886853285 -0.6572652421869004
P 5.53845643195412 0.6061795861752827 12.00706036120945 0.6226808193438115 0.024512383319067462 0.5695114344096837
Ni 7.101236520034792 6.82406951261126 8.153661794094583 0.5124601979226465 -1.6300516363411153 1.68691775340054
