# total energy = -340891.3330314219 ev
CRYSTAL
PRIMVEC
9.06983924765441 0.00000000000000 0.00000000000000

0.00000000000000 9.06983924765441 0.00000000000000

0.00000000000000 0.00000000000000 13.27462653234501

PRIMCOORD
 96 1
Ni 6.456292413664032 2.0544818161310365 11.573589060393374 0.6231783278055203 0.45347189231389645 -0.7087556967567084
Ni 4.740015828206542 0.36364885033640865 6.074229975961016 0.18700841710518115 -0.15804185466950202 0.06967123924389293
Ni 2.9097676444588374 1.6143043843133822 5.163723339179441 -0.6274589574587451 -0.39426555715706935 -0.7185816817081946
Ni 3.45695103812815 4.0234894684639695 4.741962215680127 -0.758575448492313 1.5863462250333646 0.6248384891167627
Ni 5.095598870620025 4.577584079537162 2.73591334041092 -0.5230611133669443 -0.5036312867771069 0.31905539037281827
Ni 7.395601231531905 6.140879688680707 2.707174648198412 -0.4279801758006952 -0.027274776555553028 -0.8076886610791961
Ni 5.018895241243904 4.584722042918858 11.107901799087333 0.7214556608218801 0.9386460008270803 1.5412236216631134
Ni 5.558278573276293 7.686552600428273 12.831293673328739 0.029731208515845573 0.3381926254229014 -0.6976811841101017
Ni 1.8415310636039057 6.091240459216889 0.42656541727731134 0.32363529643401684 0.4844212895075592 -0.394938671964694
Ni 2.921349829005758 1.7985672357270364 0.36154464766226185 -0.13824153211412318 -1.0822405697230006 -0.00010438678834820733
Ni 0.8417917216959225 0.2142159950833527 4.573573396681525 0.07134888405663195 -0.8191573238404278 0.620642448757544
Ni 8.507509087714496 2.344934343876206 1.4513284452972395 -0.30449369050855946 0.2728794060373881 -0.7201490261953146
Ni 7.131197281718416 0.6708542779066501 4.783511148655416 -1.8921624910080899 -0.3769257803270412 1.8430490213108903
Ni 1.0209827190777538 7.409251339396522 2.252611544564101 -0.36937110790823485 -0.41324235536988835 1.0918793783643452
Ni 7.793513213084368 4.034210018295183 3.8363405942446533 -0.7421754098677348 -0.6249503321042785 -0.04383962289276966
Ni 7.576988943946832 3.9781493427395715 12.598616020731482 0.7919118578609137 -0.16052502610267194 0.3643345739255919
Ni 8.220775194005535 8.897893102803417 7.0650745266511725 -1.4443357127951124 -1.0161560193891015 -1.0293118400447692
Ni 6.744776786321746 0.6129605878663619 0.4825870925247379 0.5964352553837211 1.1641572019931499 -0.6030938983508194
Ni 1.7731263370159072 6.590870686418305 9.06933120171171 0.18477001469296564 -0.574902780628584 0.5769367803394774
Ni 0.10092826266223683 4.749121946675695 1.6065487648881107 -0.0063663085376600035 -0.13722646058604754 0.09748826145616113
Ni 6.20597392399257 2.2696546792407797 6.995342882600986 0.15794518119063766 -0.8917634773429287 0.9304161567181202
Ni 3.678291391834531 4.232531120333526 0.5529028342137828 -1.3102452267348854 0.5305407095734411 -0.31822903781678097
Ni 5.9046829385077215 5.9442274370391015 4.7422542644995564 2.192457055833637 -2.353526384475553 0.9800829278156281
Ni 5.089794173587895 2.99946835328346 9.287048154692565 2.128616564338908 -1.3161055421704044 -0.21337379447258736
P 0.291504629082243 5.537245616373937 12.242165901698824 -0.3030302185891555 0.1887508537175846 0.6008272138038298
P 4.053755521583056 6.037229567300748 12.685219379499117 -0.26929760222340077 0.39790083991681147 -0.7624619280309126
P 2.2627162523195623 8.631657045489161 0.9068614684421807 1.1614693707483417 -0.12568400716408676 0.6829901577568301
P 6.401002674433001 7.918903738817473 6.082619577140266 0.9402295432641162 0.6522449061541735 -2.010633525363505
P 4.744369350980639 1.2336704462706163 12.512556852310608 0.1601650716600919 -0.5460511465042145 1.5541187324582268
P 4.048413386345675 6.152035590789331 8.214179607002778 -1.4246474903375659 0.06283416171740146 0.215408565514429
P 4.424866128557484 1.0716468403613073 3.74226278106424 2.4552140287250426 -0.4696852688489653 0.015254097945593086
P 0.2306487295877462 5.777551003664977 3.7434182785671988 0.5670033232758493 -0.4030093647879704 -0.21295367621603323
Ni 1.3094670917354672 1.1810472397387193 2.3877603101985625 1.269860909380568 -0.23494380733387923 -0.1854377301839516
Ni 2.0264560132727873 6.341948951970199 4.925988344292941 0.5813462222610827 0.2997651746846386 -1.1547582772767533
Ni 5.939719727000089 5.457603359125301 8.995258732662185 0.7023953017563193 0.017500984998240827 0.5443261933933077
Ni 8.700215959342076 2.1826658523108544 10.303021601628375 -0.6049566625911711 0.9658667842162463 -0.08608464760490982
Ni 2.330921442447081 5.216581454544357 6.978006792120967 0.2498721465089374 -0.47293591457577905 0.823544140054214
Ni 0.5030187190939217 0.17401211924847845 9.231825532270967 0.35759108455417127 -0.9250854885338261 0.4071670957100859
Ni 1.6318817325137986 1.2033953233124168 11.512671485992911 -0.7876070598379725 -0.38377031405270035 0.3742518330393038
Ni 3.9412441673899874 6.8369626310632485 1.5885614599598 0.2984708813532473 0.6316223448078154 0.010489072456781936
Ni 5.764862298746307 7.73487670322075 8.127562643476473 -1.1019753291477667 0.1522368179519507 -0.22112747027607724
Ni 5.40651295540345 2.8957638128688252 4.954900270432501 0.2611166090745051 -0.7446878918769433 -0.9689258827575442
Ni 0.8075857304662782 7.341635688811327 6.8266230144747695 0.610261362633536 -0.3424722266348618 -0.1316721064267216
Ni 4.94993725447003 4.625799344260286 6.863738610091769 0.4304420070776264 -0.6304321811544562 -0.306106286411318
Ni 8.231151089950465 7.398993351360055 9.251153359420137 -0.7951519620647661 -1.1468346515543024 -0.48303160824888425
Ni 4.725059663509696 0.5219946364855169 10.482016690485372 0.06973603104355731 -0.47947937212125163 -1.0137972893489378
Ni 8.199941773563658 7.526651336871336 4.626101369902739 0.3982687647791915 -0.6021826993904597 0.9180324383417867
Ni 7.524157131115343 6.265562766963022 6.935925459589763 -1.3774667188867051 0.1748265303270086 -0.28333119749833136
Ni 2.5107128631781737 5.093331410841849 2.7062848969814564 -0.9762563549806864 0.5267491037414928 -0.2508897891401744
Ni 2.357759096381567 5.322752991197647 11.471825465548857 0.15935414572302234 -0.44246088591537347 -1.0399297247699317
Ni 0.9906259675675403 3.395294271840002 3.7810517619975332 0.6260553922429992 -0.2989879301989819 0.13548813773870214
Ni 3.4472916594731227 2.6586600787845693 2.7941498703696683 0.4360961200396103 0.31347866761598914 -0.5260014269421909
Ni 1.0841994976932872 3.1330308040571104 8.072047972235447 -0.5274440729259884 0.4780542096389509 0.14175185926022685
Ni 3.4941464483293414 2.728071557514078 7.371280457951194 -0.10522548219941877 0.4173787461357651 -0.9504525065437051
Ni 4.442461616436127 6.891372595900349 6.168161764731715 -1.9539934082719574 0.788311542104165 0.28938948787726937
Ni 0.5301910500916658 7.57664429006055 11.23482059271093 0.5812657467321344 -0.999957298142052 0.9900027580325015
P 0.013795225290419775 5.570087503801031 8.186408666623596 1.8098254833710703 1.0775359651584797 -0.8285696182932635
P 8.573365189511826 1.561010009687145 8.073747660085168 -1.1883098879799534 2.3933131774551883 -0.4267843557203811
P 1.6307207931073728 3.191005215665502 10.225604175914086 1.3295675812125813 0.07782677847149176 1.3470312852149833
P 4.068185635611365 6.20845905990945 3.7739500779722874 -0.9777920748989224 0.5109324484242103 0.13148672988879292
P 6.997598551588315 3.9100892700378562 10.22853736188313 -0.4330359930570478 -0.19335647081039603 0.6243001001147893
P 6.30066304432918 7.957033342447272 10.142159842109404 -0.13678525928357088 -1.168368154750704 2.0732643128208488
P 2.6879465892794836 8.29067644404713 5.761121897096229 -1.1499731971832838 0.8736135459067793 1.1577461562604836
P 6.854929982345512 3.9648529586003507 1.742029486634097 1.882415438923655 0.018212409242968634 -0.7275694870291017
Ni 5.300903748775148 2.7206161497634365 0.8849859234862547 0.009843211342666918 -0.8190989597986668 -1.1669833585880354
Ni 1.4076481001304666 0.8286676644998427 6.894748390018096 0.37911584599982445 0.24304818160856848 0.531913935771884
Ni 6.733992747616743 0.7441984388754262 9.049485486749207 0.29755556862782945 0.8980287415263503 0.25279703346521626
Ni 2.5936384021856087 1.4085641538808493 9.302513137363634 0.5928498520253079 0.48219779949367914 -0.3701738063151883
Ni 6.409219948669109 2.0337209544020616 2.806296198909399 0.052232989162787465 -0.7300313183060331 0.7862312625363685
Ni 4.1480002198031425 6.965318994186208 10.420674647614433 0.4720164880853032 -0.1731234315929728 -0.5504798716995294
Ni 8.020721752696666 6.578853149593975 0.3062812109646571 0.5768434492947226 0.9438110899677874 0.25265510857071327
Ni 7.685164915044029 3.95347031051391 7.8186484582174 0.4105876913558606 -0.6917406502559506 1.87353973370058
Ni 3.286945973799664 8.525957140469734 12.079870200616135 -0.4036819653749628 -0.1000807047736857 2.356310374978593
Ni 0.028306060886831737 4.7801407964411355 10.188328951128701 -0.08334796540003711 -0.43329207493191185 0.18789313370297964
Ni 8.59908725323545 2.3529611514909474 5.9725598004593605 0.4944920434799999 0.3695922227801054 -0.4034148277565052
Ni 3.6472090531953008 2.7850573566591845 11.339212626930307 -1.1356578090018763 -0.2733445185992648 0.3872940109352426
Ni 1.0650893466828237 3.3513509013389604 12.643922588051161 -0.10708670377787365 0.4369600107018023 0.09915305075309376
Ni 3.0974135458615293 8.423613075922002 8.139496737780966 1.0557250399309754 -0.512846891838104 -0.6606171893782687
Ni 5.911557876555149 7.878461326213935 3.6608237886873773 -1.3682721968716305 2.06308582962595 -1.1785798051763832
Ni 2.997808572725836 8.491500821680578 3.5903620225886184 0.23816514248465434 -0.5785609462064616 -0.47890035968933
Ni 3.3504983364623664 4.306541007493174 9.323791886905946 -1.7675136099767366 1.4380789332521235 -0.40279107812957726
Ni 7.176419499534348 6.103149157971867 11.392098858796475 -0.13010579038086625 0.47729650553731995 -1.2081462059795904
Ni 0.2181214678052822 8.881839487573934 0.4428902206962637 -0.46720595407053733 0.1497148228610454 -0.9391393955237309
Ni 4.647222304244488 0.21090278285548267 1.679027663205535 -0.39810524261813374 0.08121472110711819 -0.20160791218591087
Ni 5.941787650317785 5.436488773670931 0.42921018236257524 -0.5896781391655457 -0.022512322169903166 0.05267213358273509
Ni 7.694534058847451 8.866974021268216 11.51543325200273 -0.24400180377108943 0.09294923593522703 0.19441782219537482
Ni 0.08933247335664729 4.858440717501092 5.902947878285461 0.5381185219206991 -0.06933468184008058 -0.5456659952506537
Ni 8.197229891668961 9.010105152305767 2.64265906862194 -0.5654208092800779 -1.2954004484125692 -0.9301086527800304
P 8.552495489713499 1.668886676093623 3.7254445783975565 0.7223336925514592 2.3831408649078765 -0.42845505855458466
P 1.8058049673389727 3.287698770446018 1.566857334963104 -0.7977783439440196 -0.0008656904344049607 -0.6610455351649389
P 4.585737864899481 1.1204062954311935 8.270477005359231 0.7848356677404225 -0.5977053803453964 -0.5903347989129382
P 8.689404711119735 1.5418454396420056 12.49814034304097 -1.04773662240886 0.5766125642308392 0.5952561474739555
P 6.611277824421885 7.833583762284285 1.5351709450389681 -0.7561329004890913 0.06934753735588702 -0.004043059721122069
P 1.7392051387344016 3.2738854054773725 5.931899711717117 0.3528412285740117 0.1349677464588579 0.15855684663270758
P 6.95706544059365 4.224767338053052 5.850977700169679 -0.933434888939786 -0.055258149142356446 -0.13439233357136207
P 2.2232715220184214 8.419921651403133 10.230927264489328 1.1285037144555985 0.1858593911024025 -0.14403448464681645
