# total energy = -381170.32276247634 ev
CRYSTAL
PRIMVEC
9.18912741690099 0.00000000000000 0.00000000000000
0.00000000000000 9.18912741690099 0.00000000000000
0.00000000000000 0.00000000000000 13.44921682586600
PRIMCOORD
 96 1
Ni 8.512210235003213 1.7372045155665687 12.227825587477575 -0.5546283466502642 -0.29996314962805765 -0.7783778279302207
Ni 6.028205343979913 1.3618746111057567 3.876548214484007 -0.6265991805616111 -0.2905236014817126 1.5759165450596084
Ni 4.110645826947991 1.5441868966854484 13.171463502032939 -1.8576014652037687 -0.14294356557548285 4.142995929898091
Ni 2.2601761283141197 6.775253825873673 7.9466038283340845 -1.3204463356376033 0.478270439414815 -0.014686912588213417
Ni 0.9828598665987021 6.944361335527054 11.301847337762283 -0.7439882947067574 -0.14444817514546734 0.6512938550948139
Ni 2.2402632894607333 5.624765899116466 5.229539696231402 -0.1159500677057745 -0.5449717973971065 -1.1280411729968831
Ni 8.393284549520734 2.1309678093858917 9.92908636754734 0.696002253745782 2.097168630242272 0.4802381046641471
Ni 3.726384090754142 0.31767180632077496 5.703368775105384 0.00399729408485118 0.6195116775872105 -0.9576125146272539
Ni 4.243878983632464 4.135667820578711 0.5309303158997978 0.061438052700823226 0.10538540481605077 -0.3802227059107581
Ni 6.756544762696241 8.431024295331007 12.054922968250384 2.239149060573537 -0.7708902613039239 0.7065124092484865
Ni 0.3374817269484312 6.620839730768777 3.9781569895746043 -1.1139013911613913 1.1685674152457035 0.3733845999430021
Ni 2.998954395640253 8.757642635988494 1.5416837784096467 -1.05607008197522 -0.8340039019349573 -1.016814736019023
Ni 3.8183948223826425 7.274793164012947 6.325637178515515 0.30636391094807885 -0.6187681145529665 0.44583160215981926
Ni 3.7715578405479806 7.545854041030576 3.9839534910737813 0.6659116050079887 0.32691191030275957 0.11900119582727249
Ni 6.196246914866799 2.903470173893349 12.532329374381227 0.6681464078757783 -0.22314578625768663 -0.0030902088895495166
Ni 0.17536622425561466 4.814762706108469 2.2478884272920854 0.29333150324415286 -0.37390653388474315 0.31770633254409153
Ni 0.8165816892401798 3.453770251223259 6.115990914877086 1.4322173322650238 1.4846819778226432 1.040124614389557
Ni 8.219159776362995 9.266315966661347 5.678716184392017 0.43351961756168567 -0.5010077331113306 -0.7694440157757007
Ni 8.398650999862395 4.399901176014399 7.761717668198401 -0.40795616727028455 -1.2772847126484648 -2.3956397687058355
Ni 8.446122031480575 2.3260070362724323 5.099028359052409 -0.32452309835560883 -1.5991120093394653 -0.18131856580925546
Ni 5.437298513122953 7.830524015575599 8.307338641908494 -1.5532707826356347 -1.6843952440890024 0.13396295934342736
Ni 3.5538582257461417 2.7369999437743116 4.94901585592295 0.5371332751892943 -0.17257681506088343 0.4517078584349382
Ni 7.825497562943942 2.937276973220349 3.033646107925989 -0.21135445004971343 0.283270519463725 -0.12673841657053012
Ni 5.694079486320479 1.615384254985421 6.490229151014971 0.025612558361781695 0.2656795458548392 -0.22082073766893584
P 4.681667386333456 6.66651888256397 0.4010796769734839 0.23647258527357987 -0.14082086280552522 -0.34014666382547865
Ni 4.5557579641049815 1.8243358206001692 11.222309008614493 0.36053319790163074 0.5695170908366386 -4.830582191666036
P 8.50566757636749 8.42631027302746 3.3470394565771113 -0.08947747533654268 1.2710706134179528 0.4191767185764523
Ni 7.153845870525049 5.953313956506401 8.67899473327582 -3.3457883708558764 -0.7370378315308532 1.9663185054962133
P 2.5584000656227546 1.2095005022608751 11.646577448322873 -1.6441474523125492 -0.42358950293216724 -1.0804495392608489
P 1.9694964645166204 5.576835411133418 9.835465700816341 -0.8564480898710862 -0.46339249386171805 0.4315560660774116
P 0.41913814993826265 5.870960997667429 6.285289558378252 0.10897183661572847 -0.291462311245898 0.942408810303622
Ni 6.2682621054962375 8.027107015848097 3.25067583534785 0.6956273869048665 -0.24656133696814958 1.1129655096106832
Ni 8.931987948201373 9.205300161406853 10.059300895914626 -0.5871183488581696 -2.369038364068223 0.9937825367899077
Ni 4.702756433480904 8.530285248397126 12.622439794484633 -2.5572564852107895 -0.8087818941433749 -0.18194797186313824
Ni 7.838077478214032 6.925468489803674 6.725953239010588 0.7896917102811433 1.2147251447486886 -0.11306169041438593
Ni 4.600426311897466 5.876400961027469 2.4945200093896727 2.0176642069580413 1.6315709011991189 -1.256724629108926
Ni 1.3074474101234728 3.6878632691235937 8.421052254387908 0.4930136591622606 0.1481670187579513 0.2902407801339711
Ni 6.855107342087762 3.77783401449208 5.798185866210499 -2.7692359704390115 -1.1998346007901015 1.5205270125457104
Ni 5.974063005943847 8.350325379405561 5.8391794819967675 -0.29196444769329716 0.08973535698361965 -0.23049065665853208
Ni 8.34471082262687 4.8099659816592455 4.784397234954332 3.8131084819067746 -1.4137318718663265 -0.615469646307353
Ni 3.307378264248961 4.2954575551525656 3.215290343951162 -0.4053120447792181 -0.9884292428977945 -0.4615222734221987
Ni 8.839517760208002 2.7427615265897587 0.7319617726969486 -0.7918637782317974 1.599852744160232 1.3297521864195616
Ni 8.81666440061946 5.642050647562806 13.599310187910913 0.8326774698140498 -1.0213499048852153 -1.678616689734012
Ni 6.715846117896218 6.235355840644378 4.764626827574054 -2.6371026081051547 1.2356662657767299 -0.19115509228370306
Ni 5.616128119456945 4.063036958420351 7.913600158732874 -0.1400654726967394 -2.0359290667055 0.9100216522221682
Ni 1.7838669039825805 2.4672623010875037 13.422600513244424 0.22989776026953954 -0.8303799320291247 -2.235295491155402
Ni 5.42002295380391 6.263768622247826 10.860619444713887 1.82552875303894 -0.02996157935909679 -0.030073422346612724
Ni 3.3337051139559075 4.5945085139179636 7.0768299568203865 0.4875408089731475 0.03277822287228548 -0.1887246284653395
Ni 5.60157254181792 3.8112640595998886 3.5764699112867646 0.25403836207148506 0.4676566684547107 0.5277459204371233
Ni 6.285317125760144 5.181381317891381 12.907361551117605 -1.4716184597704656 1.8808995164997604 -1.4728844709670825
Ni 1.6232409588246666 4.975985944540711 12.431366594939636 -0.2820045082671079 -1.5589583199387151 -0.15086462019477245
Ni 7.020750550750036 0.030599793900220437 7.904871406713108 1.5040660387762097 1.7306200793844968 -0.26291998083183105
Ni 8.986755146893659 4.5662519474785705 9.943234866847089 -0.8872761309955365 -1.0606322474246055 2.6179648588344397
Ni 3.9860872064322286 5.803310642504239 9.178753691557501 0.5661895691253024 0.3339978706152635 -0.6872828715949131
Ni 2.1423898946165147 8.53888627154746 10.165671476770719 0.6274669278785452 -0.011941231522276208 0.18803788681096
Ni 2.4645515085347816 6.41062925471429 0.4559111995568519 0.8358826070149088 0.3878653100576804 1.0044862963606571
P 7.1051526849763205 7.767826600025688 9.7410124991522 0.03294200214365939 1.181892157379068 0.730695177142277
Ni 5.7262046753520615 5.915794749751265 6.871231503756446 -1.1656754384098893 0.9430752402430274 -1.6156840547655336
P 4.352540413923788 5.225011294299262 5.154882631503973 1.1905614030182914 -0.41011126594007435 -0.381286371288582
Ni 7.120691499236162 6.780546763196955 1.0308188408763719 -1.9407830802292703 1.1407863884776932 1.7473574467438358
P 3.997160104825552 0.5890487893174327 3.1468341023239934 0.9449765710307984 -0.09610500795538932 1.375283080971825
P 2.157974654512843 4.144535328420668 1.1181127934631359 -0.6913850666887448 1.4425817062184834 1.3878843146756032
P 4.6388552422550395 4.0957502515989646 11.265023747943557 -0.3163814430850809 0.9588528147922581 0.3447553662420837
Ni 5.287745466358363 8.734495224326436 1.3127816985195924 0.35978912064675456 -0.9808254624086077 1.4771558446489268
Ni 1.6361516826774622 3.332437014388871 10.83624896020855 -0.008290779253882495 -1.6548710093776402 0.19052671467108478
Ni 1.436913024616027 3.335827802361598 3.8761714602648154 -1.789494999343834 -0.6752423954906113 -0.03993051764635059
Ni 1.4697182090676146 1.2308100884634612 5.338424422316052 -0.4610304213874447 0.25644311485823573 0.5956441269409934
Ni 2.0501126782963905 8.574604409352311 12.817762046491932 -0.11159539028150457 0.17224154320865176 -1.024354496039494
Ni 4.778575922811451 1.7300186180200303 8.798531495723573 1.004178021091619 -0.6635734437931152 -0.49010394171463334
Ni 3.4710458105423023 3.500267235347918 9.28809603618156 0.4666883910041705 0.27800078642435344 0.7862351191911104
Ni 8.950366202796099 1.741358001104977 7.750339690778805 0.4617066215188629 0.7155241258287935 -2.4753851043562785
Ni 3.346211516207619 6.540306219134684 11.707193526539932 -0.392903129591904 0.16264618621073276 -0.35730209255884277
Ni 6.439097171081522 0.6611788440380874 10.393675778923821 0.6461804451276484 1.0061459434512672 -1.4121545000768776
Ni 0.47994168635218715 0.5321065241938603 0.6786124563466454 -0.551474888622947 -0.6685048196564616 -0.5015219537435879
Ni 5.082258201734721 1.9594435592533048 1.7501060502920671 0.7202873515453918 1.5649325352442789 1.347798502398311
Ni 2.6171277781802047 2.016930739625611 2.103457400083045 0.22925292759668905 0.08366061154444945 0.408461131931161
Ni 1.9632202905725211 9.006089070727311 3.5817417136172622 -0.6265372169754242 -0.8360561564782956 0.5909333517288855
Ni 6.8252610566259255 4.07137149687906 1.2339270404427267 -0.08163252537082714 -0.4812164094170165 1.750807352965649
Ni 3.479775481474798 9.155155093745142 8.09816378050042 -0.9956522430087951 -0.554582066793361 -0.26245126872552865
Ni 0.18547793993363346 8.680398831926857 7.850993715543206 1.3040429545789154 -0.9085985466223965 -0.9128298110949247
Ni 7.359048272202473 0.6885835783770146 2.0825438652669757 0.7261085862128591 0.43250068937886804 -1.3966330074025108
Ni 2.811413496628361 2.296500748520598 7.239027242746149 0.268842259853537 -1.3121727827749015 -0.16840777128485834
Ni 1.5306880686856215 1.2653152614650613 9.149327349213154 0.9423841277132737 1.108740415785742 0.2886433537398642
Ni 4.489605436691262 8.467247835137213 10.397979047237175 -0.503311698654159 0.3151971929689926 -1.1827743028737048
Ni 0.38412941276076723 1.3176473414235461 2.8123250580562598 -0.43900095239123105 0.30929291166941575 1.1238065660902452
Ni 0.5314844202758288 7.5103196857716705 1.5597321433343982 -0.3529929236605276 0.36718798421398696 0.5086896751366207
Ni -0.009300315737661593 6.570428178415441 9.037698749717512 2.4772082736079466 2.240126336885142 -0.4955387395769595
Ni 2.0892675497104563 6.215240840990449 2.7238163028407842 1.7229432795655293 0.03662382187062079 -0.08627028125315464
P 6.205537122564434 1.0432600003242722 0.12143064158373963 1.5233143454828604 -0.7924281353756998 -0.7442850000115698
Ni 1.4926175142926446 7.814727905751432 5.720570821406048 -0.09853804287691416 1.2217614827701797 0.6409487644150639
P 8.023991901694291 4.184379384382035 12.001959595246568 1.0072476611558783 -1.1363314380301333 -0.23576064680821976
Ni 7.858753014633099 6.34848318680222 11.270255118113946 0.10580269485912747 0.19457954458421975 0.3301628131398895
P 7.337159770980153 5.386344802259074 2.963897875000811 -0.5795438789450212 -0.5184385269932684 -1.698618586777236
P 8.518789650148126 7.825589454216915 13.17518877423929 1.3931031398723814 0.4000559385866013 -0.6866778910210626
P 6.986171864730057 2.2944056274967988 8.270030785081198 -1.312110047857766 0.11010800710270068 -0.8911806082562651
Ni 6.313785042127376 3.3469282681368138 10.075453543877932 0.492548546600384 0.7323036592799775 0.7207213537590168
