# total energy = -381164.46919325524 ev
CRYSTAL
PRIMVEC
9.31833204812510 0.00000000000000 0.00000000000000
0.00000000000000 9.31833204812510 0.00000000000000
0.00000000000000 0.00000000000000 13.63832086386613
PRIMCOORD
 96 1
Ni 2.9677583690849985 2.8025070647345616 8.732030251593056 -0.4676682384189365 0.11516768101379521 0.627340686713326
Ni 6.830132545402888 8.89512156652495 11.342487420222279 1.0628678216233436 1.002806337555073 -0.35497447286693057
Ni 1.6823037517488943 6.934581731737841 4.0902959243025245 0.11389164251484901 -0.06635245928330508 -0.6794919147955847
Ni 6.476837295986936 7.3916738842303396 4.527813988043556 -0.599250099124697 0.17653425704673467 -0.6456027182473074
Ni 9.344982693181432 8.66330941482055 7.609365035223528 0.37149920999483116 -0.07801626877447854 0.45564318893360234
Ni 2.641793788196161 1.1763555832019594 12.39521575745899 0.7484255045425046 1.8859782165742485 -2.403928233966873
Ni 0.8927232539502935 6.40059470141181 1.041410290870183 -1.1120278282877623 0.5558295660472169 0.48901610796709327
Ni 3.1472574034654244 3.3011776157841637 5.273352320234742 0.16718058374597658 -1.1259760629377382 -0.46997040418955194
Ni 7.981971596421133 4.682033318827935 11.063638190921163 1.5118647088850221 0.5818110777126432 0.3875498356997906
Ni 6.177476553708706 1.1979927507164356 6.74689095146509 1.5939518052947645 -2.1724484739221936 -0.596057046108696
Ni 7.887511662272018 7.28351600165475 6.811522904040631 -1.2198717219466346 -2.4886849067889787 -1.257634799628021
Ni 6.917398727045035 0.32796802232536315 4.168512141650934 0.6252799475295554 0.8250706040010695 1.575649407441151
Ni 4.22681415112028 0.11020325650729933 0.5532415002808795 -0.04257721124057828 0.5543259849184968 0.745992983841612
Ni 3.0422118438656454 9.297179648672707 10.45535516562973 0.10835348630543919 -1.641271930536967 1.2012147689670796
Ni 4.677383471028744 0.5806383289670597 9.088686623456239 1.3447250056793096 -0.27180879868102864 -1.7775360272097454
Ni 2.1154943819870318 7.988960345618315 8.523704956357319 0.8679221519489567 -0.4569405675887872 -0.5936152694364228
Ni 9.057474869541622 8.419029334548377 5.0217387124716595 -0.20223140470252268 0.5526735369167385 1.2015762660715565
Ni 1.4174022021789028 0.8410801247160228 9.26215203769643 -0.7095990185936102 0.4659944502609394 -0.6283318469820017
Ni 0.4978244464801303 0.23805822982022815 11.849205283014129 0.20040746411990648 -0.4335985504287371 0.07353894972941528
Ni 1.2047485416070447 7.526556743735955 10.618073747271108 -0.24150500549116474 -0.19581341699132082 0.1663287772686426
Ni 2.9586916317931875 0.6396131220257877 4.810590894393488 1.5537613491188078 0.7549363090778288 0.16472260912378728
Ni 2.5032395057789594 5.168002983003192 2.0878636631610523 -0.3513625871459562 -0.9433899432699688 2.007551544004072
Ni 6.884607515811857 3.4152805943434905 1.1406924619653522 0.2999772906954447 -0.15232500679038283 0.7584443222310874
Ni 2.295282284667608 7.596546737362669 12.893423187395125 -3.5803753090709693 1.43569294951845 -1.1702131783792427
P 2.2306316954275416 3.15915691376516 11.130056467791503 -0.5010933508466016 -0.7546059223216036 -0.01267039637881689
Ni 4.4236452835097175 2.316080802278422 7.121004286989608 -0.9332664816827216 0.8921445148314312 -0.4459197909982514
P 1.00610033442634 4.374099710867828 0.510186146060106 -1.457469421963593 0.029983947956599973 -0.013754887692247279
Ni 3.0975161458460136 7.393779827321758 1.412493304742802 -0.6433686867104662 0.7408214669430017 1.5475847879944507
P 5.808675599407273 8.358152669874789 6.2461461396537645 -0.3887723952529821 0.03875758038417196 1.120515296933483
P 7.391282514275298 4.815127058539072 6.851387661294584 -0.7995912287830423 1.3747716885530452 -1.2721095962054285
P 2.654997865012704 0.053892574642537154 2.7897185855369444 2.48245795204266 -0.19862491829818696 -1.933667809340728
Ni 8.845986000502627 4.350123641955362 2.4730639504119796 -1.217519162554058 2.445253575078221 -0.5953258243696263
Ni 0.6742447038808909 4.5220189172092535 4.779167614336504 1.4178379236149001 0.5923353742827348 -1.3939266642149413
Ni 9.469848345504419 8.37622091613257 0.3105837416556792 -1.444684354383783 1.2465461459140275 0.23729379562329453
Ni 9.282754870329722 2.4905852105659285 10.902623932250672 0.26759321793778434 0.016601356002106892 0.31714223251050544
Ni 1.1124411422106633 1.0613394080808676 6.587485968776403 -1.375195406354025 1.6647414744138167 1.6690303315971577
Ni 4.58160965203056 4.689730261277099 7.658626398731398 -2.5113296407716876 -0.19653743964153894 0.07669035087420341
Ni 1.844032726503952 0.5430258126210518 0.5646247749732497 -0.9394024193771304 -0.5005089390980412 3.5416506388072615
Ni 6.634559387868943 5.768299265712086 2.686122026604048 0.7356486644928105 -1.038018880900464 -1.1406791734758677
Ni 7.664728974530378 6.862523068348762 0.7467189648888959 0.07465198028793595 -0.21660310004316244 0.3509185576300021
Ni 5.379342758725979 7.543236558486564 1.562610705665048 1.3089892428405971 -0.1946782749456131 -0.48920842648355756
Ni 8.202508566087412 4.382998718178906 8.797631310723938 0.07674357270964201 -0.726468283545123 -1.358321256306506
Ni 3.016744841791114 5.44999435394336 13.451844748580957 0.7352807396304305 -0.7672107555698077 -0.5981146999686731
Ni 3.9982261423788468 4.379457751919 10.347462855523633 -0.2439395830745863 1.919967943256132 -0.9207776051870915
Ni 4.471280598037711 7.391785704217495 8.105104038943217 -0.24345852967310974 0.1786541316032149 -0.4554575552853576
Ni 1.1657513210867685 2.977784894599889 2.390592982552325 1.6290257661797622 -1.5125648202758402 0.4024007846696941
Ni 0.6883796820904984 6.1574514576757124 7.4847519097048645 -0.025288599363459674 0.20182311352051047 0.5612612785857495
Ni 8.66097051342256 1.5870238043606446 1.7231609113888473 -0.22945681607737903 -0.26426775310897715 0.0007767302650244688
Ni 3.828194533577537 6.612829037031838 5.743970032006856 0.8785266669376804 1.1270060468641494 0.7455852068802321
Ni 8.758253902247334 7.1973307465550995 3.1393917992023024 -0.004364704726598934 -1.9463677734058997 -0.9620983183127496
Ni 7.670077697249288 8.904393307126545 2.1765946866349295 0.14968371251279383 -1.1629744945389582 -0.1321413327536563
Ni 5.217185140686829 2.1253159041921386 4.841522166506989 0.2705232471003857 -0.44845207050180186 -1.232778916926606
Ni 8.374655436312402 7.390341362716745 12.063695586875006 1.4890698224776935 -0.2516690905083601 -0.4486554447618596
Ni 6.728311128766075 8.494349414229475 8.325254297820587 -0.6206658457963118 1.0036020939834909 0.17128277883980825
Ni 1.1470307915705833 1.9304695765747004 4.592568010771741 -1.7462708985478763 1.8564879204246154 -1.8267914218014474
Ni 4.67247270992619 3.6854842749710777 12.503190068889001 -0.0980482477246892 0.33706159714225176 1.302696724963666
P 5.808973786039686 5.136469746625506 0.34859787812221854 0.4724494618576638 0.7929886358648601 0.3518806644329553
Ni 7.732147108452528 5.626707206977176 4.731829554607698 1.4358382168470627 -2.0531850255724704 1.249498800784448
P 2.764348494117947 5.301497411001634 8.7344986778095 -1.2351756992935565 0.8504985571558706 -0.7901969320523359
Ni 2.4447203791678875 2.9654753776805856 0.4084318214155868 1.4877996975160184 -0.8514079563440176 -0.54481881675901
P 6.068629114545659 5.025740004345352 10.598912460638887 -1.8685523077883173 0.5867684217179184 -0.39647824853767205
P 3.0502442462762738 0.63997933248372 7.072560141221193 1.3308647027574498 -0.7948064057998893 1.8454622587380733
P 2.9925824062333892 5.2047824404448955 4.520625826535949 -2.0053257399973465 -0.31287240149055795 -0.8078069318246153
Ni 5.46376684902794 4.4180356474874465 5.5660308864472405 0.5876986468416717 0.39813866695923045 -0.7448789248418268
Ni 6.079429061638371 3.3176710638895135 8.989317791871024 -0.1996631297547142 -1.3513849341979889 0.4165410807258181
Ni 3.678868259064412 6.716299798479185 10.81049730850019 -1.787390551406322 0.3516706053046782 -0.023389068347901654
Ni 4.455458069855291 5.972780748889372 3.2390057029260313 -0.13866010770878057 0.8687479902843619 0.24538068639648708
Ni 1.9420988552388114 8.320180465903432 5.982354403456285 0.16101327859300013 -1.908115157682604 1.045953048145876
Ni 1.751967603746406 4.089955805174928 6.884065188874155 0.02755991189613963 -0.003766923241599964 1.0752913920986773
Ni 4.856351360470184 8.883035689579955 3.6169647141754515 -1.5666163507046051 -0.04273430564373285 -0.7445788771029047
Ni 8.759409375447936 8.91670282404585 9.790882596792953 -0.46531105104066967 0.6591866275793292 0.5770910465291545
Ni 7.937746791501364 2.5972987516407677 3.7127869885014024 -0.6259906004433349 0.33879349223169397 0.2762634920182726
Ni 7.924794309655919 6.697560632298474 9.423248297690835 3.0575525369670764 1.1151604603794731 1.2951700775693178
Ni 3.823171952487829 2.161806493333692 2.9016345515141664 -1.0416212535397416 -1.1682779090297426 0.13741415111682143
Ni 6.228009869570464 6.624756502328362 12.440153414796871 -0.8681494374684146 -0.41813927845087345 0.45670762564237477
Ni 4.428444224625116 3.9339016947679823 1.6069901949003806 1.2394316463564332 0.42047126901815973 -0.5662726157574118
Ni 8.130384674372491 1.6480868356794907 7.826813909577879 1.0181087722400983 -0.38511551522668513 1.0467889137836102
Ni 0.6689034358277912 2.995778594199567 8.788615824259573 0.1295146937640866 0.3024468352818598 -0.8105186743288235
Ni 6.74636073835933 -0.02620967315588558 13.781932691496133 0.06164219829182933 -0.033132006667278426 -1.0666465719394855
Ni 8.307982768971284 4.647061617845236 -0.3539065320123981 -0.03618004946498285 0.2313617464095757 1.5213281682907671
Ni 6.308184800360538 5.782509722413023 8.378443338377274 -0.6394238431301053 0.5269437362508022 -0.2988434342013176
Ni 5.732237319854626 7.293048655559707 10.221239522189938 0.2032989267350886 -0.4302931402045879 -0.8995248664559025
Ni 4.924002452698907 0.49030082501105715 12.000808957932307 -0.23616688110770293 -0.12861249366479138 0.11233586799195493
Ni 7.02890189090301 2.9017845766635992 12.261137070027663 0.26464184861894424 -1.160640447089143 -0.3150652953768187
Ni 0.6850847198023335 5.227966451115015 9.993615960837715 1.725337747939635 0.0697530003244218 -0.9712501600153468
Ni 0.8093791583576047 5.660616618081903 12.228664545757878 0.5354646292376197 0.06640002469178886 0.3344601549636627
Ni 4.300876255945885 2.256834845750843 10.61058646729786 -0.22259145641611344 -1.640422695162794 0.7798685535431343
Ni 0.08065296123516068 2.087772343504876 13.324149118749723 0.18888377975102308 0.8390355508215938 -0.4359649937783847
P 5.9139820723104135 3.735598265881005 3.4267235063623436 -0.03822021982346321 -0.31639147038740995 -0.416246946524167
Ni 8.581121724261688 3.3065636118321255 6.088160338968717 0.7241992850052882 -0.3828735132700439 0.4938029878327754
P 6.978564260018773 0.982096310517085 9.676225177463982 -0.6027236594955943 0.7743229411345568 -0.3595065564093292
Ni 6.091095613631534 1.2740955703076173 2.097355316404052 -0.7963382690633833 0.92063825139575 0.12839086457228854
P 4.227932350991829 7.583240158891234 12.768755083716114 3.130218597173235 0.6697546329031627 0.3706867413958648
P 8.40853689242034 1.2589160070513379 5.422814642398905 -0.06573822273807389 -0.62125437130993 0.6139400970367039
P 5.590486849471246 2.009051072547816 13.623018784917699 -0.4454662484006005 -1.2934461528996755 0.3330005396990007
Ni 0.6674003888337838 -0.0285038465590139 3.057192926644725 -1.0327008111216602 0.14658784719628948 -0.6049137251683776
