# total energy = -340897.8224513626 ev
CRYSTAL
PRIMVEC
9.03527247471004 0.00000000000000 0.00000000000000
0.00000000000000 9.03527247471004 0.00000000000000
0.00000000000000 0.00000000000000 13.22403456608099
PRIMCOORD
 96 1
Ni 6.290383610828592 2.030858132191247 11.486131345355389 1.2603465421322295 0.30481739239656536 -0.003460704855090814
Ni 4.559089928398438 0.34488085747566843 5.940011114910312 0.1581722095997792 -0.10464569843654882 0.4496507187955934
Ni 2.686620117857378 1.6950622409117715 4.866418387560215 0.32681883636832104 -0.4459922961073996 -0.49943087554251403
Ni 3.491599623891612 4.404930114137429 4.863443072425053 0.28059682928630386 -0.5139887187520309 0.03995879978112473
Ni 5.066881261259942 4.512874511100052 2.8827867196264334 0.552656567635874 0.9578619116338987 -0.07147409678058658
Ni 7.339360642599467 6.220938508706326 2.6478353084155306 -0.34590850600992046 -0.7079704818512518 -0.24439209723097266
Ni 4.898951692167508 4.407595519436162 11.352872826272554 0.09745689399759346 0.6947403563142229 0.7610383082105087
Ni 5.595526002356964 7.725690811288497 12.341263840312376 0.3908336486573849 0.5536515845592916 0.0024512897539699717
Ni 1.923501027921565 6.651839675153505 0.5654481153456078 0.12582053274195107 -1.0885893947591638 -1.3994301105316738
Ni 2.884167309218456 1.6541143873054598 0.35379686408173827 -0.15629658984362113 -1.002322455940119 -0.11222711032823253
Ni 0.49983216158131866 -0.049000088190148026 4.761511649110928 0.7873208960561214 0.7936758917398719 -0.11467042966240251
Ni 8.529721613741826 2.3262302156519583 1.263019919585845 0.5796662634554985 0.2472709614406645 0.5613849486478073
Ni 6.910772505835255 0.6709132336167986 4.783701374104694 -0.284484080155852 0.026841802783192478 -0.09339789343687141
Ni 0.9222392686341271 7.484729137010753 2.5245607651126973 0.37491800586839297 0.3498638911132426 0.3652743121310419
Ni 7.591580266037285 4.059592975415706 3.787826444102358 0.15116183972021707 -0.6756568573202106 -0.22158769774194742
Ni 7.537196962670915 4.047187546686344 12.678436707074992 0.4832470666938001 -1.106228962217798 -0.15184343916827397
Ni 7.949268621855176 9.007786901068297 6.906027180876289 0.4316452833571083 -1.0065562915158084 -0.21979898127264083
Ni 6.797967132429517 0.576665405780788 0.41129914341123747 0.2347923693576795 0.009577616386106085 -0.6992323306473055
Ni 1.698694420335809 6.366207615123422 9.331011114609948 1.0781833689344915 0.6277029551487512 -0.4620457500258365
Ni 0.07379377863169272 4.901111122223091 1.4003461182127148 0.2101234058560897 -0.8177748416706045 0.15940222535213838
Ni 6.500562112724009 1.9744509278522784 7.100605381792743 -0.7526829942672779 0.23367445370315237 -0.8435020712333795
Ni 3.6081365647155774 4.398957799213825 0.5223001729588156 -0.9166561268195504 -0.2242071376426655 0.08225370389459383
Ni 6.014446397868141 5.77096388264685 4.9212317698832635 -0.2583688711260389 -0.28938485989157897 -0.260838415712454
Ni 5.350037656707473 2.8808242585047896 9.374160864051179 -0.23971474635996137 -0.13923397793437958 -0.8233446224488981
P 0.26129645788903316 5.574997863920613 12.462422322866178 0.18934786387163519 -0.5827230480039514 -0.020299630789300523
P 4.050765514477187 6.173674999832843 12.607106847171995 -1.1110780627799832 -0.3602650318419086 -0.6246009191846598
P 2.5241297826288007 8.6221163072498 1.2710893211868592 -0.6745821361987931 0.1009052575575101 0.6061830787991044
P 6.279758130722453 7.806899837813989 5.928334832647417 0.5448478702247326 -0.12384618262439961 -0.7937648519092524
P 4.769675017542814 0.7944019128707499 12.565265405145192 0.5309214899516276 0.9029722015745546 0.6141025907564972
P 3.843767428395853 6.227371622512083 8.215603147522426 0.9068573955615737 -0.4314753334381472 1.038325099286973
P 4.594887676851264 1.0470434835202673 3.8292170260464258 1.1074234967465315 0.32573485927552287 -0.5501777670780782
P 0.39837509005764776 5.671973440433532 3.4728297494252063 -0.8303354519444346 -1.0594446548744076 0.6837473476378289
Ni 1.5793926862189194 1.097306702763849 2.637004727630472 -0.8845911279642055 0.6960721877517689 -0.9681622651186422
Ni 1.8809087547750174 6.505215277906544 4.8210071094875495 0.6648114299652743 0.49782033652228463 -0.07275527748585534
Ni 5.973986448960581 5.64695477171423 9.090571679065311 -0.9496071278242744 0.45435018115379167 0.3008635499551399
Ni 8.55031299908357 2.2337632399663896 10.0474621201102 0.13826441493225866 0.7975019503541814 1.1335268787018027
Ni 2.402930641350101 5.2095030329227034 6.950737321826305 -1.0940537603078448 0.05235254545978725 0.5438122298713667
Ni 0.5169521953441695 8.887934015347263 8.946997589712767 0.2264527391437326 -0.014413604322168724 0.2496435754378991
Ni 1.2362240128249802 1.0007196429554919 11.238987737839022 0.7083013828281092 0.2691783030367171 0.34016980375393024
Ni 4.06045132627462 6.8176911316401485 1.8018808429583872 0.7101944860857641 0.5904790378002862 -0.6454281403426562
Ni 5.575820073690732 7.979798806615928 8.003925693969178 -0.3584776009241826 0.07735420971044743 0.2434816696015613
Ni 5.411486542933538 2.8212998852571323 4.843501323154423 -0.5057061670282645 -0.04213652415873388 -0.1506951844964437
Ni 0.6785896008771523 7.29445533976995 6.810641812270412 0.2941696828747321 0.29655746638061825 0.5640372986689899
Ni 4.888253929883776 4.510968068666042 6.976590849696804 0.9908527647376226 0.11862504343477634 0.36056610802209516
Ni 8.161895682516548 6.793810907217932 9.283033819232738 0.5061787357893088 0.7091030527937981 -0.27037412311703113
Ni 4.806855162642102 0.46321943157613393 10.310356014124034 -0.43933699557441114 -1.1221834286645254 -0.36969892356129874
Ni 8.123757798564155 7.188941431028884 4.690207991497307 -0.1920081843126177 -0.19093911961815502 0.35004849632022295
Ni 7.446591253058362 6.186902638332323 6.955260379089173 -0.7397814557142615 -0.10458630595352311 0.3308153591222238
Ni 2.482739200684733 5.105172744839718 2.6757904405995396 -0.5866041282259122 -0.07061689098661386 -0.5335399014110811
Ni 2.2279445246701703 5.192968484798354 11.466970243602761 0.49770566532129124 0.050914013241047794 0.38777120768197737
Ni 1.132905675228295 3.3315939885177865 3.688724868040992 -0.7915714438023592 0.29641014216947664 -0.29819500198404125
Ni 3.736952440458117 2.693306219284711 2.5618393946789557 -0.6685223031579584 -0.5914293175286975 0.25510022767709617
Ni 1.122759064548708 3.350848153574064 8.27025841258199 -0.05269141685644474 0.3171579162397893 -0.3115806792623279
Ni 3.4836756901730035 2.599240000419902 7.122543926219373 0.38678133296488226 0.45542695915773823 -0.1350893596383867
Ni 4.139338287844945 6.797488263002965 6.142206953817826 -0.07389941839262758 1.162109832545818 -0.42582507713090534
Ni 0.6631953041043291 7.403465898852066 11.40818947325709 1.0141626431081567 -0.2977376027316485 -0.42164034962559643
P 0.3236560995527675 5.401900119130294 7.978800409037928 -0.7019114201413654 0.5242834158098196 -0.12942599070502228
P 8.540708504735928 1.7704344815966466 7.970773473216249 0.11589941697349718 -0.2690548900849753 -0.49608535610904886
P 1.8437557154923265 3.1191928096613917 10.434027205876406 -0.3760161240285782 0.41644672123979887 0.334428787505095
P 3.94486308903156 6.318374884101397 3.9216794840958946 0.3393717333326672 -0.3126011501070423 -0.40535883885675356
P 6.840929851736228 4.077600272908508 10.42368633684454 0.6513889859117814 0.08945227852556208 0.10256593308938466
P 6.3736436441432796 7.876968373717993 10.091141336502298 0.049413774546437486 -1.8141225680845274 0.9124613720119126
P 2.396877008976705 8.544819553586517 5.885991029486346 -0.6959487748000273 0.11364533083199782 -0.5781552261276107
P 6.763172299190791 3.9819619166810565 1.6403617994912125 0.9112640092697016 -0.5116521001990544 0.15245459038971163
Ni 5.295012849014966 2.7680911672766446 0.4855880549594408 0.11152339939298858 -0.24504952830931345 -0.29351533712018485
Ni 1.359736183786649 1.2638267693932244 6.905312490845341 0.18010731910997368 -0.6552106736507167 0.23952551316729068
Ni 7.057812525603374 0.648822896617224 9.17773133586113 -0.8588872954401983 0.0639911581399801 -0.24582111636801537
Ni 2.6140307410098256 1.542447458196808 9.117719961441942 0.40261727155587435 -0.7819161801007825 0.5462635196253366
Ni 6.493162224792948 1.8049943977581964 2.5171681053993957 -0.12334018952225853 0.7966043782405765 0.9912381731014993
Ni 4.089535867483517 7.041702635272383 10.382069873095494 0.32543172621280725 -0.7622467266963131 -0.5330699037531981
Ni 8.172719938611067 7.015138935007036 0.46626522183444985 -0.09451246665728884 0.40145796114045057 -0.2877843481736786
Ni 7.533790665051855 3.924651185122178 8.162601337275298 0.6927004430660586 0.03240027070757646 0.24393572641984443
Ni 3.1207468764796364 8.313381056206625 12.328092220500531 -0.3174823894587436 0.1653982950345732 -0.05568109561238797
Ni 0.0410101969844857 4.58311471717584 10.253783464303822 0.1010186432069228 0.6114453556393082 0.473597716529494
Ni 8.688417134646782 2.4878079883884268 5.651410064435605 -0.489423370707841 -0.2493478985743512 0.1812126363590105
Ni 3.660405614387359 2.2897367512398015 11.350664605747093 -0.22333399100909276 0.9180339810036835 0.007574984133780502
Ni 0.9988403063380796 3.304759230086465 12.663440865806152 0.0765525397447585 0.1190644449650401 -1.0040309539907935
Ni 3.088897541977816 8.43171601619821 7.95713924746781 -0.07225134126624332 -0.36066509549380465 0.43484630679290914
Ni 5.643973131888528 7.876769597729614 3.5907481833684134 -0.423103050214052 0.3982584803665464 0.2228657931234226
Ni 3.011103848343583 8.506618422728732 3.6148425437417484 0.6406345756087548 -0.8159791832227625 0.4478013242916804
Ni 3.4398275141907813 4.382061840201512 9.353095126918983 -0.24277872999726577 -0.15132510477095876 -0.43089040746895474
Ni 7.313664328465232 6.10270293670893 11.43201910015499 -0.33563489199805424 0.1633720086331638 -0.1416464440306141
Ni 0.46001823463599356 8.927770530473087 0.11740974811839827 0.78311508550489 0.9095516545642852 1.0019581306221648
Ni 4.690381468723531 0.338494727085346 1.7060988259029697 -0.5784185070913265 -0.41026141836469343 -0.37213067293124297
Ni 5.915555343649014 5.562493047197062 0.40620957458148554 -0.10535275180590242 0.8158154039513886 0.31792950429849115
Ni 7.904173578309477 8.800662321176175 11.408837302273767 -0.7314184284615469 0.5764865801759361 -0.10710907237537684
Ni 0.08412290180970149 4.9074809891234565 5.702203654157274 -0.0034681610542585434 0.13423909582294946 -0.12680423681145905
Ni 8.070368375139685 8.746170594543415 2.493272521014441 -0.7001967514431037 0.7487633474978975 0.13748125690933097
P 8.556917783061111 1.6505183489702187 3.5573312291400496 -0.2348229654852988 -0.23115991481141482 -0.14738000408028168
P 1.7704886932298411 3.130179700655495 1.447952063902542 0.34443037880249716 0.8232813733111306 1.312452004578217
P 4.744791877906498 1.1355620452548298 8.217480677085398 -0.15759679671228344 -0.27261483952209176 -0.81525876011697
P 8.421966957495384 1.7686274271568272 12.34803487329838 -0.6944845315496749 -1.1056571488747282 0.24327880956213585
P 6.322991908195137 7.695178697072143 1.4147067798459612 -0.6472885905901626 0.0731910794716933 0.04413709952853044
P 1.7957964906595145 3.4237989413095815 5.87563660754618 -0.3945134115018173 -1.0009057780982504 0.07699194127502225
P 6.850001265024122 3.9855850608328947 5.994745890365228 0.5168413577094776 0.5248326034450702 0.1278668737480185
P 2.381923633487198 8.414133376498766 10.165606435858386 -1.0742007301376597 0.673400457185866 0.006174247131511946
