# total energy = -340866.7637918397 ev
CRYSTAL
PRIMVEC
9.33435720430709 0.00000000000000 0.00000000000000

0.00000000000000 9.33435720430709 0.00000000000000

0.00000000000000 0.00000000000000 13.66177529978662

PRIMCOORD
 96 1
Ni 2.3093386737177872 1.2743264635530525 1.9672270098561535 0.42582996222691183 0.5989960741323619 1.650351524240732
Ni 8.088127288339324 2.192836559803301 3.857771340758786 -0.5717351815338799 1.0850705829726282 2.0795866554944507
Ni 5.378382022323179 0.9907766907479612 3.6512738874577333 1.0928954783336855 1.677066571638073 -1.2103180168199283
Ni 2.7290673857023062 0.518002692892659 8.61466438414457 0.44465146580878906 1.398968597514223 2.4001823937711957
Ni 5.522887208246596 2.5923750568693817 12.39139390107378 -2.8159511151073633 3.0296928344423306 -0.865375217157387
Ni 8.156492121470459 1.5737259751151984 7.037030113612659 -0.19692593332920924 0.8428767789445548 -0.04028970075798222
Ni 5.487192625792545 5.361626850904503 12.03618800074077 -0.6387581845216483 0.9072345763953343 0.6559264687708187
Ni 8.774967969859691 1.229941594418898 0.2632046075548699 1.6944567420900623 0.13632657447959745 0.015183649718973851
Ni -0.0855400506299456 4.246553857866236 12.567439880436586 0.15678201412047194 -0.9489574100554174 -0.5510005200896898
Ni 5.3748256321780445 3.8327711315049466 3.8672111763329964 1.8766397127821424 -0.7075601337867105 -1.4337381397849243
Ni 2.681583509932497 4.806251258108725 7.533184809723951 1.4357379438237725 -0.8247366177004184 -0.44716780447273957
Ni 0.9842986467565619 4.946285286868049 2.332079035060506 -0.093637006030871 0.7937913342718136 -0.2884834311232322
Ni 4.704945477937752 0.2540774729514259 11.98920537995992 -0.5726067855055558 -0.20172026939405907 -0.6764454146597769
Ni 3.5646417170194398 8.091263632404324 10.327099842713071 1.7708424172396533 -0.5679420330400348 -0.1179357306772356
Ni 6.754546324415375 9.368894458454431 8.381731097431354 -0.4344485571338582 0.04277955705937149 -0.2785006088789075
Ni 0.5483617566932739 9.468865425526312 7.507569466321648 0.5992043334884262 -1.2855716352476054 0.5850295846499409
Ni 4.798401063588889 0.9919341510576636 0.8019146387623992 -0.31092556217683226 0.7616489452113141 0.9385498415688481
Ni 2.0595045996114476 7.360859505195396 12.29891748950722 -0.9799376604870157 0.49852096213373503 -0.5488963292624933
Ni 6.458675199926354 6.596805019789071 5.118056130570827 -0.2192917026189191 -1.6796073357820558 -2.0574535710408375
Ni 7.798584858124321 8.154886612008614 0.9746814583929616 -0.46827579009594844 0.427473925588238 0.48861784408741016
Ni 7.095745088129518 8.64859010588339 3.669852992299925 1.8077765712618412 -0.8615776977881677 0.8656343843560448
Ni 7.5131868825666395 0.9210891791822708 10.73987725878924 -0.0998477628272732 1.413188597768347 -0.5713042646440484
Ni -0.1763689481266445 4.097390827632001 6.1267053153106215 1.783764010397328 0.4885990750343327 -2.134265535094569
Ni 3.120671679032523 5.503537085488425 10.856999174030856 -0.24434633159470176 -0.40431522808358755 -0.4940768103194523
P 7.063616230177938 6.901599789891604 13.030259719628448 0.1506440195435341 -2.1157700473935437 0.2670928812625981
P 6.757682668480375 0.47021638394515314 5.6247035777638645 0.378085090742465 -1.8686366399720076 -0.26096594242925375
P 4.431579488986575 2.6111837869020462 2.218795407555579 -3.1201522140761684 -0.770404322806441 2.4274489427966324
P 1.2852289929218628 5.940926401553242 6.455666736556862 -1.1640021644725242 -0.20352698358549462 -0.4526794783195881
P 1.7911978323365507 6.903793363865637 1.8268522770540543 1.3258546511373683 -0.33590794315378275 0.11501907125107287
P 7.4956289564170415 3.152968555416156 13.570364303822023 0.2828599142888677 0.4516811189620608 -0.2482685494672434
P 1.0461854358962976 0.2741155378452828 12.376680153604555 0.2651190453656789 0.33457405483370767 1.2144047852947926
P 3.3621701720375374 3.4104941399676147 12.893218285831146 1.0889912581832728 0.024553778079964162 -0.19804359187342022
Ni 7.26406221961786 3.9980172594296444 11.418485037138984 -1.2922346490900778 -1.5265022562925388 1.56247121818798
Ni 3.655903728696543 8.439145795971264 0.4682188314751828 -1.0680694204289414 -1.5430473051354132 0.003486415886703673
Ni 5.304547255792966 6.262775042509214 0.9161587716372319 1.2099508632884968 1.4655701966938566 -0.4428894888123598
Ni 3.0909417509163752 3.5259041340737527 3.9882824581636065 -1.7003602520586911 -1.8123708755007435 -0.9297643820667343
Ni 8.999011214645806 0.5849785736521511 2.6365583038850717 0.8142264621977139 -0.2914152600580465 -0.6706041253876516
Ni 1.3798420388827017 8.772550371309588 10.41170739104512 -1.8527996729397511 -1.1000853112139055 -0.9451593764655657
Ni 0.8639470438765815 1.8182581342545137 5.7257461290579545 0.9751687783434625 0.6693406852941957 -1.0282160358774293
Ni 2.2994162518692893 7.3772693053926295 8.166913931436449 -1.0058489810361386 -0.4894848200733957 -0.10322310705740934
Ni 2.653935143502346 1.2889347327843779 13.370164741415778 -0.014209715841478754 0.16044866433878174 -1.1412332462071249
Ni 3.1812983299318573 5.584643316383623 -0.17923272895742443 0.13131652285951578 -1.1413278628034602 0.4060941743608813
Ni 1.5960350891489794 3.399171564518671 0.5095775019609055 0.29824231028220893 0.2188582146259263 0.03470989267735958
Ni 1.7742186363418027 7.866025589879161 5.544289956183022 -0.47120016283159494 1.2757088835209125 0.5571940504949114
Ni 8.896762664383866 3.2932919492529056 1.876240361720471 0.06742563774282581 -1.9492314681069398 -1.7265317682477361
Ni 4.19542024837793 4.912410904094579 5.355320559088092 -0.15372754356486426 2.157270223519859 2.030981492892238
Ni 5.2505199955304045 8.201586401762173 2.37156149972163 -0.9533982194355904 -0.2335908928504106 -0.41234838280070923
Ni 9.00712277117106 7.998069408758604 12.496576239846522 -0.5129739043342714 -0.5241350631574134 -0.6974328155447214
Ni 8.81901680212974 6.812325996327134 5.271232001023942 0.45498627207589387 -0.8978945299413311 0.8218788365366491
Ni 8.821499741181198 9.172583589314494 5.190354461883484 0.4704530002529252 0.24022125368273464 0.49438097182343244
Ni 1.0527941608904052 8.717748359388112 1.043796773853936 0.5039840421308353 0.420505721800521 -1.6143946465301489
Ni 7.820156557928534 6.121238182218744 10.87974606942371 0.18491322513904926 0.5489163838671514 0.09775257086114134
Ni 7.948401293372098 5.54293740780499 0.9257806271795004 -0.8466817545129417 -0.14710283915949504 0.0001318975921739664
Ni 0.8068646484578444 5.825469735660423 13.871210640771297 0.38851168539242764 1.3950690053495005 -0.5336003223353714
Ni 5.8470321011073 7.258834979509527 9.296906961241074 0.09192490843577071 -0.2992573818102846 1.1018514019753929
Ni 1.911676382476305 6.122106277451022 4.1786725444451225 0.32878675872796925 -1.2773682735012066 -0.07122392844299347
P 1.4259444297667372 3.704563733490728 10.849280593949462 -0.9105926942342898 1.8590466822907272 0.3807312701160604
P 0.8747543628005613 3.581060851574009 3.8577442711225105 -0.9619203979739885 -1.255235189047593 1.781994834312047
P 0.01733950218792961 1.1125620509147989 9.507789695618724 -0.33704359942012274 -0.6852465578911747 -0.2010471545864344
P 6.998061038605032 4.267024103504765 5.368845109432671 0.6216027557882843 0.9104962778657416 0.5226960167180417
P 8.040484728494796 7.867491083980962 7.450722296707786 0.7875008732774115 0.501434279125788 -0.19100416852813557
P 6.908451208176456 6.717526263219568 2.6943613116901717 0.7084692758645412 -1.3101256704378856 -0.3750733004993347
P 3.759841797636356 3.028737593627205 6.436814135044715 -0.6142008068972584 -0.7070957925557821 -0.6485782559358637
P 4.112400474228788 6.608388957243432 3.986465058790227 0.2842321120460459 0.4698583040917198 0.19070617767174253
Ni 7.741906640378247 4.0083410586436035 7.725365225742571 -0.2142176305301214 1.2047816603827317 -0.16286807241355178
Ni 4.456558229218541 7.010503736934334 6.787033621688669 -1.2236201332454733 0.22789050003152364 -0.007053564412671722
Ni 5.130601506830828 8.45282062946896 4.968624270845307 -1.7463205208388892 0.4125584419289863 0.8917223396923483
Ni 6.674961593765994 1.0735164341770136 13.11531811741984 2.0387655077130304 -3.1241477083888065 0.9020946840656078
Ni 4.704450756998928 1.0580400697134116 7.187146181730932 -0.5569258844351893 -0.6806640807268148 0.6325096325087752
Ni 5.055049218550733 4.019056900865687 0.9260429226206507 -0.19220924457983027 0.6083222366292943 -2.566222179044509
Ni 6.1031668664156475 2.317095524664261 5.949757637029125 -0.6670300348831479 3.3564229677515875 -0.647037650921621
Ni 2.9331444401460534 3.2768354772689907 9.419261717205424 0.8671037698127195 0.20538563406078825 -0.5387628403729173
Ni 6.513495880562504 2.545404570753069 1.9518579905019189 2.0476738659462543 1.0479618510457889 -0.30792302790508264
Ni 7.837639809219443 4.675467577469685 3.273949293980604 -0.7318102645833268 1.4813698827302744 1.5402368322698121
Ni 1.8238587486562998 1.6742663379845943 10.796941918929036 0.43805555775882626 -0.646545541776551 0.6625362607778525
Ni 0.7489552289791103 5.073531246076628 8.733125779663949 -0.5234753180862275 0.438145032148839 0.04803566325198824
Ni 5.2777389815230835 3.502465562802278 10.05968450656379 -3.5764880582014213 -1.4973364333618602 2.8596719530340815
Ni 8.67666785275101 3.385422056162286 9.887409607564852 0.9617301363400533 -0.6027362579010845 -0.09684625699678805
Ni 8.34186312381224 8.132717513334876 9.722607795049363 0.7384395969743862 0.3221700247424 -0.7295428087053888
Ni 5.22943368230768 4.28904385246112 7.517460151355203 -0.34038911885358797 0.4031939699949508 0.5324014169312637
Ni 0.8422241274835207 2.693270125317557 8.300662203965501 0.4600485170901496 -0.6118312782238172 -1.5908718808178601
Ni 6.548873094867118 6.3649302491977915 7.310825483001307 1.62315439500065 -1.330255094197909 0.7211787530114097
Ni -0.03267118411281892 7.494294143317949 2.838466053683861 -0.5745325417733589 -0.9503046681119313 1.0703610446765954
Ni 3.4486623271157866 5.291068443799334 2.3117086670454765 0.3326274726302981 0.5180091527653338 -0.004763225716598248
Ni 2.9333591303647886 8.42551763426025 3.2477048148938343 0.3625530565451369 -0.5274319887411304 -0.5702483125757082
Ni 6.673654783738912 8.295387358634752 11.599707851080508 -1.062196506587932 0.013529916165634764 -0.9276069694040993
Ni 3.6086998836468234 1.1666359829640431 4.8817755433168095 -2.6290882224411107 0.20436876276049964 1.665397619940577
Ni 6.509043392113083 2.425476747696157 8.588420838493535 -0.2855981391556372 -2.2978792274248945 -0.018208038367594447
P 1.398940133992792 0.2955509560323853 4.094256350438468 -0.44024793742445467 1.1533994492560136 -0.1933510714937573
P 6.728158096225625 0.5324625458423369 1.9774191946316706 0.9981562403775711 -1.2033238448902825 -1.4473205064550494
P 6.625228137878135 4.726423834168601 9.415709060803225 2.5270413950799897 3.006091650083623 -0.8713427475947316
P 2.942609478485072 9.06960695918032 6.789150653932544 1.1125875574459743 -0.23411359812310004 -1.0798358169362499
P 4.206285440317395 7.170737314969433 12.389700648652973 0.5138822750811537 1.004923641008392 -0.7196404619900122
P 4.003235165180642 6.1254106399480746 8.78267721558375 0.14863624508488596 0.06701297568543943 0.7335619571671108
P 5.023237728748589 0.9440955697090744 9.547654868930637 -0.8804305688286127 -0.3508002868845829 0.47978919005218656
P 0.6816862493992581 6.613261491772985 10.258340166266608 0.19839814699936154 1.1427936487157093 0.6573922546830678
