# total energy = -340888.17380757845 ev
CRYSTAL
PRIMVEC
9.10596664482137 0.00000000000000 0.00000000000000

0.00000000000000 9.10596664482137 0.00000000000000

0.00000000000000 0.00000000000000 13.32750262991511

PRIMCOORD
 96 1
Ni 6.528750381449411 2.361641535868456 11.116456538120493 -1.290911302292964 -0.027082458039088843 1.1632020371687322
Ni 4.5911008610083375 0.22545371570733683 5.660536535262971 0.36523754535583547 1.2853492348241542 0.3975761095875411
Ni 3.3029981479309094 2.1358135649350967 4.61667314692657 -0.10574304526578564 -1.6234125337580427 -0.5610327075147111
Ni 3.4516439462178505 4.403062651340036 4.858621410478612 0.18473299080744315 1.0090443480449849 -0.5529242194749638
Ni 3.8971169367836125 2.9283786832454894 2.37781282189993 0.6989667356907446 0.16276625672836484 0.8312726190467232
Ni 5.360873744994287 4.901978559704502 2.3580219141569234 -0.7666888216280667 -0.7030553039378215 0.5830310661626733
Ni 5.732087578182567 3.1186387487568443 0.6129681396523827 0.24851049027472039 -0.3521994812249547 -0.6624786680670397
Ni 5.794845899782273 8.234343449823317 12.5164570107954 -0.4119835432621228 0.5027483699515213 -0.25801740132389117
Ni 1.9699392778979161 6.591672610447375 0.3156219072790795 0.9536504446557125 0.8381593188642276 0.11101020720199592
Ni 0.7660968052816833 0.36724181057049193 13.645229895009432 0.9577593246177635 -0.3270353232545013 -0.22027566379874322
Ni 8.222897249844962 8.923719754963678 6.915854126302155 -1.2354271531827303 1.256458777042049 0.5733061255654256
Ni 9.106786106884817 2.7876823937740647 1.3537275929533374 -0.6025832772629881 -1.7071718756638858 -0.4533001426227226
Ni 7.34561932453485 0.7292076241103876 4.701090010012767 -1.2775775612985354 -0.4405675255474025 -0.2030086491881794
Ni 0.9260403762918921 7.902194213219882 2.4348016030809516 0.6801362332478028 -1.6244191206456862 0.111526227606466
Ni 8.125599997045649 4.134427531561608 3.8024831792059937 -0.23366442640082338 -0.12719195916818093 0.5525632365911193
Ni 7.88099552304517 4.3074408963895845 12.52433367187836 0.699585600221666 -1.067793283949419 0.5321471348286126
Ni 8.258037174838181 7.2533212473824085 9.22415108881086 -0.158417749951682 1.0807526723235643 -0.14572035698967162
Ni 6.998536302756788 1.0752962743390169 13.510755712495216 0.9600182958552693 -0.14432990440004823 -0.6340785196577918
Ni 2.045436846728903 6.888472484826485 9.207704802588975 -0.6900437221695019 -0.5339829024857707 -1.703597013828434
Ni 0.4975909902285468 4.98163755525793 1.250018829092163 -0.5882108105913999 1.1512050127078561 -0.3394897469677702
Ni 6.355108704928112 2.064267985595443 6.545829532347904 -0.07186310468888914 -0.14043956820670653 0.3986498022676941
Ni 3.895523392633881 4.466795311362721 0.16250052642303492 -0.5228058028230287 0.9620481818011044 -0.08804485665507418
Ni 6.19110114103776 5.848534678678365 4.695212108591901 2.1226199804358408 0.14239514927118058 0.8738822261871337
Ni 5.3436998920434675 3.046920156052363 8.58001959976633 0.9169168366801048 1.303898201470935 2.3328570290516595
P 0.46823790699049506 5.7622829633283335 12.169889386725195 -0.458221748294056 0.002347931406886279 1.456175642852834
P 4.487046981014164 6.361273444295929 12.530757931293419 -1.7477600814988932 0.440236624570545 -1.016740945358294
P 2.6950565018251074 8.707352883296437 1.417206196508722 -0.5217629633808111 0.10282484317772614 -1.7660977034658163
P 6.440340552022315 8.054154583338265 5.7256287160945405 1.0482112480524335 -1.0276064273178882 0.37838205315759355
P 4.906977735351374 1.3687269410872658 12.511126377965386 1.7053147678504885 -0.49135298363038604 -0.802829790324998
P 4.168465634599869 6.435696509071669 8.027074349356058 0.31744279447005974 -0.4320749146953591 -0.5819391186500752
P 5.16227261410491 1.258990937953479 3.475666396625887 0.12305196885787839 0.5521253777227523 1.495375452980747
P 0.5009738568092623 5.679819330071378 3.3204269679456853 0.02916093783467236 0.5611687188719432 0.1725089379374255
Ni 0.6531172568557003 -0.04528215055876653 4.6189660293088695 0.48954575521831817 0.40196086891879806 0.2936045543998814
Ni 1.9825692535303583 6.560830701675146 4.556699429903937 1.0742570372968918 0.6400740751195944 0.6926886159915168
Ni 6.1454529306228824 5.889666329674574 9.036393342912913 -0.32396182653550015 -1.567163738567643 0.35631761715838633
Ni 8.659082154509433 2.6916417643613975 10.386269112007184 1.8506972818847673 0.6778885748642067 -0.928032229866976
Ni 2.5536681588943706 5.241476311329843 6.900061648479989 -0.2786913847334748 1.6346325708435783 0.9740475202548258
Ni 0.7095815343622961 9.260950120913115 9.222005723086994 0.05112947168596356 0.5005996990396346 -0.7915830137665851
Ni 1.6896576268765933 1.4011441820760868 11.468502311679146 0.06496123536273328 -0.6237401138462613 -0.7563684135386651
Ni 4.390296086209045 7.223262451735191 1.6467330110627723 -0.16690778970056416 0.09347322675949708 -0.29608309784736103
Ni 5.958817039806346 8.016820120401702 8.293838193004374 -0.5859765219442424 1.7220153684346216 -2.840829109295966
Ni 5.593886323551293 3.4088367973727816 4.5059482358232925 0.5651760402591235 -0.8772462575633603 -0.3202203572151969
Ni 0.9062676804820253 7.609746990861181 6.661352377236859 1.0956537578051133 -0.7006875750365933 1.0040348106455352
Ni 5.032913253013001 4.480126446421045 6.751552439691595 1.286740972965358 2.3696472012968157 0.014485080990052473
Ni 0.8397986775050875 7.562705567561111 11.117629386614695 -0.8416822444158213 1.1208847644577598 0.8420558257051561
Ni 5.069546556523683 0.6327262659157377 10.05308179521478 -1.1940619599723823 -0.09921629989086139 1.2352651736835694
Ni 8.63356723618059 7.116841020432845 4.706420642842784 -1.6533255192673915 -0.12058011027861813 -1.0896638587702652
Ni 7.687329826036674 6.276924875959006 6.732681234572148 -1.9572836489874545 0.7432714711453908 1.1383209576563362
Ni 2.6908768631695263 5.449274468454814 2.526281053838759 -0.044917686448296835 -0.385413248972762 -0.8387668705412393
Ni 2.588024970762579 5.84638567056787 11.332961820479595 0.037295394016348675 -1.03334435824293 0.9173025021542978
Ni 1.4992063360672703 3.503948618195319 3.673512642886621 -1.1434953027684243 0.4974400703647304 0.19594017237717223
Ni 1.8196726175615332 1.4826516888432038 2.45585915077383 -0.24759620599056714 -0.5372024378643329 -0.5416859275569833
Ni 1.3172782299673675 3.5203939938205466 8.109625399892085 -0.5826430866956352 -0.2772937330549998 0.9207547223689563
Ni 3.669003368241209 2.7381914654666932 6.843046459995914 -0.4023074536249394 -0.25854653435448377 0.11782902989604221
Ni 4.207639502783551 7.0084344884182626 5.7517500917969375 -0.13273911423865528 -0.30021074686248944 0.8342206459314536
Ni 8.644640091529581 7.350882573212248 0.14955730554058827 -0.8075863311733769 0.13719355046558307 0.40897123879836017
P 0.3629529003160721 5.887754076694896 7.876220354175918 1.269431535152633 -0.15606904721384735 0.04200591211814056
P 8.72338849042602 1.9530568158773336 7.964395249665511 1.105697000973728 -2.2454364362441455 1.2678099403888101
P 2.0086760596862434 3.7993370677560954 10.376966456559382 0.19927257918451485 -0.7827062801022456 -1.376236960244662
P 4.385251380729325 6.067587810483723 3.809000319480066 -2.0426504445897335 1.1589080377790686 -1.3187653483907544
P 7.218727680383384 4.429551908091857 10.275011501859568 -0.058478712962183155 -0.6899833012452117 -0.22017307678260795
P 6.351311516868466 7.902540239949538 10.303012349061992 1.5267475395341255 0.7509842664086164 0.8394692959249026
P 2.459075378166317 8.547634229660504 5.529101013793128 1.8141703906033273 0.24480733039152033 0.838666340407633
P 7.2704404645338085 4.230094816344908 1.680371362168616 1.1204381638386447 -0.8055536170140642 -1.3066690793478528
Ni 3.152622215995687 2.0039409570698985 0.19348904125703958 -0.8776653473786497 -1.7854321421283703 0.12474246918642388
Ni 1.956353175775635 1.0479783746293363 7.006067847706747 -1.1485084397122995 0.1531027654966718 -0.4322394652976814
Ni 7.080408048186701 1.1244229639835923 9.031368670559646 0.4753044148079556 -0.22721018613504743 -0.9502144223909699
Ni 3.092568366467239 2.0543971178336786 9.189819773649049 -0.6982823080292103 -0.7108382903173499 0.5761947599671302
Ni 7.078322781842195 2.265619118388929 2.717677543978037 -1.338228856432005 -0.43305733321328643 -0.3918757167686541
Ni 4.175996268953171 7.382616866708328 10.269187325641465 1.2113397732162237 -0.8785354086884289 0.5597438134999585
Ni 7.212034794954512 6.434694852748981 11.590116137606701 1.0466372186970943 -0.45131525098220976 -1.0301747022656966
Ni 7.9485982188600595 3.9630077108833617 8.079958160807372 -0.7967270198613698 0.5411187421996035 0.26392271106473253
Ni 3.275962533184895 8.382014909687282 12.4099436092307 -0.24765405581169608 0.3426347203546551 0.8972324708772998
Ni 0.20474037355080002 5.165696457535189 9.888167277054066 0.4274232748559606 -0.49818774716403225 1.372014180412566
Ni 8.7070614923662 2.396608447496847 5.916371397834101 0.8781505145451843 0.974597736331341 -1.2089797576244792
Ni 3.767047310299253 2.914218905229305 11.433091028882144 0.24255195869844032 0.23471266515967965 -0.9987409092364476
Ni 1.465286610594417 3.544142354634829 12.425990143520165 -1.2647917223877765 1.0687780164601914 0.887657168484039
Ni 3.495088512722813 8.500028236433101 8.164401431196623 -0.31442534779997466 1.2167468031644078 -0.8718022037296534
Ni 5.924287214573309 8.102634749356378 3.5255771099921307 -0.461387033395915 0.22208520620365624 -0.2968336028601404
Ni 3.2273639896013733 -0.15436525588949207 3.4632185403248426 1.0984035526361082 -0.7342767238459482 0.9667828682726124
Ni 3.6342094699776464 4.887254211760984 9.35502750393331 0.5658913211585932 -1.3590126259465753 -0.08782631288636487
Ni 5.411521131056035 4.586238274860015 11.321753286228715 -0.6901370532142566 1.02528652093546 0.6483247451641608
Ni 8.318373309330296 0.2513119289758635 2.086953680111019 -1.2152609626475006 -0.6833647674874296 -0.24088099875392063
Ni 4.947963690882465 0.7373520006105003 1.391804192165347 -0.44607997072519956 -1.295398905750672 0.24399666156476688
Ni 6.121048940215568 5.879394799383734 0.39180697658609376 1.2927997775649283 0.06944163973159008 -0.5230976230318346
Ni 8.17591046234431 0.372455887028413 11.066105095972265 -0.334310773869992 -1.0814728383190406 0.60068374624743
Ni 0.3205163643103973 5.102118598944193 5.746379392714014 0.41621892149970896 -1.6473932129433564 -0.1582100048162501
Ni 7.529232034450183 6.205452144351912 2.422846379571338 0.7387455582505793 1.3012322246029977 0.5501841948359815
P 9.004899446934278 1.5603984314169548 3.596959692530183 0.3543262977599704 3.0603943772912454 -0.5370080624653396
P 2.222984982908687 3.5643120705871434 1.2331190657350977 -1.5325726308563348 0.6722997679225196 1.2885862537042132
P 4.741567852609259 1.201259109900354 7.89385314784186 0.5302383478416739 -1.42976629962137 -0.32662600363122457
P 8.832678301197882 1.9002422097719511 12.489829343351719 -0.34852203237336754 0.5047664288228146 0.12970392695675725
P 6.601479736443151 7.944008811708833 1.2655208265807496 0.6423698131323066 0.562050093035632 0.358936285728156
P 1.7710467560783016 3.398446889516533 5.991738751343138 0.1339912414782015 -1.2443805057212762 -1.39706341007171
P 7.123752449059395 4.186632037906807 6.057482919381113 -0.43478434320672216 -0.019070900588521993 -1.418955582159111
P 2.5573560753551776 8.827424158487053 10.358934821557678 -0.31961383397944954 0.7122637099099669 -0.88078075307918
