# total energy = -340897.4732833204 ev
CRYSTAL
PRIMVEC
9.01030771676412 0.00000000000000 0.00000000000000

0.00000000000000 9.01030771676412 0.00000000000000

0.00000000000000 0.00000000000000 13.18749611935365

PRIMCOORD
 96 1
Ni 6.279977254298408 2.0313918994975224 11.324498955250107 0.7245181017972877 -0.16310255702186102 0.1778159519726357
Ni 4.5946983058299224 0.45501243134643 5.982520866069775 -0.366992066153097 -0.601657680124925 0.036361569348169635
Ni 2.4766092253051073 1.6656905394523425 4.625409038714293 0.47206688170726435 -0.6563625278669728 1.1455017916754917
Ni 3.501910163099503 4.435702415536054 4.69232228704759 -0.38916885936045237 -0.31974753134383643 0.7587186589383966
Ni 5.050376598917977 4.364683169967864 2.7392669040299458 0.9966428890568383 0.8217040015216817 -0.0663095218605116
Ni 7.139101086534047 5.972653678069049 2.4861862813967623 0.04227536372944332 -0.2502066470302207 0.18664254912533015
Ni 5.099545848228509 4.699650370328561 11.258099294457713 0.2965240420395216 0.3855243206293296 0.2932353439859208
Ni 5.807683953746798 7.683684086044498 12.41925855331297 -1.6699818968771498 0.2881964960104327 0.1960065068387334
Ni 1.9128162497033872 6.3319487093145606 0.32232573860832847 0.4142057477244221 0.660265976686437 -0.47965292158463846
Ni 2.7457290967375716 1.6061684465541617 0.3766885292973814 -0.4955382253563273 -0.3857726891947098 0.08202641837513615
Ni 0.5855330461050094 -0.221271533235901 4.63605111318024 0.05137398359660184 0.7874746480251663 -0.01999958305037846
Ni 8.4518398513864 2.1796655235866025 1.3716049073474166 0.7559459812892658 1.0455941221445604 0.15389389393939948
Ni 6.934891472025362 0.7801565942143031 4.98189285394645 -0.2572897791292472 -0.5200531797785559 -0.7048589328054635
Ni 0.6492521403462075 7.270903868083333 2.424468376503534 0.49815072327850984 -0.14499607722913738 -0.37318765344084764
Ni 7.553845551581467 3.9172853496883806 3.84610662167328 0.18064082301594053 -0.3288914026266336 -0.4797197702668318
Ni 7.67024971721144 3.8141443570445004 12.556737828735379 0.14203802304207794 -0.2749059495491136 -0.04661718563790681
Ni 8.055512455349557 8.74255743045994 6.896651725997528 -0.3550384933356466 0.247411857893903 0.5787316674563711
Ni 6.86555715400364 0.6584291387744239 0.3286906199924149 -0.8824519701340158 -0.09194650570232553 0.19538275721180542
Ni 1.9457939760139142 6.409545479529386 9.119878483360326 -0.21597755064402158 0.11691037473651479 0.4851219151190097
Ni 0.3518191789176858 4.747594217787117 1.333295781950021 -1.8108053307858363 0.6292600152232259 0.61660350280148
Ni 6.4362610419640065 2.0921844457863545 7.144022516618968 -0.11582922585719407 -0.709776681822055 -0.1000051143407439
Ni 3.5265353341395764 4.095914700537069 0.2920420943106014 -0.6315364699622285 1.1686507189881292 0.24856602610300416
Ni 5.906130576060683 5.736916996795191 4.810970019303607 -0.03146310360528775 0.6775386477239557 -0.19483665490034832
Ni 5.397534745644287 3.0036581659630213 9.177494896172528 0.26390059957754547 -0.8476795996498367 -0.026987584332437396
P 0.09338553245906965 5.57737147772948 12.466350926690557 0.9532184993246163 -0.7494937979060189 -0.594947100873969
P 3.998441191458577 6.215039966451422 12.631801801445864 0.20676297402428906 -0.6451944270652953 -0.6006495505753849
P 2.289113731645064 8.368323308989602 1.2547322057152182 -0.20743120373590726 0.6256437586268774 0.3192831901129082
P 6.172511313941672 7.828119319038419 5.88220370387008 0.55796718121551 -0.22253772036004252 0.05044787223790667
P 4.75753258721895 1.0808855262123302 12.568514300945177 -0.09579493291413824 -0.5930424276520884 -0.5745317704424105
P 3.963625362370086 6.027535462483645 8.238334302387395 -0.6144540605586449 0.600967596036436 -0.4438981325825323
P 4.643714379908957 1.0780112380448281 3.80890486309653 0.32536307775840095 0.0008700613097791468 -0.15686866029700725
P -0.008849023226658077 5.580876487438442 3.5777940738138816 1.21891501446032 -0.24593475912774418 0.5707820735919912
Ni 1.3482123464055067 0.9152850803486211 2.5153175073351686 0.06890530761214585 0.908441452219242 -0.5361284880738637
Ni 1.873495266747338 6.523228532223353 4.60962297956237 0.09128881751366859 -0.24087174278254003 0.06426549484728931
Ni 5.938630756061249 5.603501370161319 9.115012917183362 0.25318115627751236 0.20243117941815458 0.3721910938555332
Ni 8.622801430352503 2.2120395592788764 10.240420175976451 0.2634061764396302 1.3323274033459052 -0.4793803846495422
Ni 2.2610015715115006 5.270435344732731 6.890268823997971 0.33447583869294656 -0.5576483644235106 -0.019462479599985837
Ni 0.4043267472440782 9.02986010290187 9.226790289791351 0.8155888897628792 0.4769882302682818 -0.583142394929557
Ni 1.3508253356486906 0.9469923532684966 11.483658833144755 0.7536476721733925 0.4752337094710203 -0.32921073363926523
Ni 4.0977437930072975 7.038032464669244 1.5233402916683283 0.6724141820131968 -0.19932837212311477 -0.3046327871895851
Ni 5.396516580870219 7.805043920928784 8.030327744199134 0.47116725271113047 0.5822895600109584 0.3484068469517419
Ni 5.29274486668488 2.741034726407576 5.142015933737981 -1.0839824921147716 -0.04278984147201663 -1.2456825123621513
Ni 1.004703374311919 7.347969030141786 6.877464275675597 -0.7525606097568006 0.23980139253649668 0.1219556504699061
Ni 4.956795542781055 4.540447242956784 6.9906256315517 0.2653923536317236 -0.010186196504382457 -0.09590317635722838
Ni 8.244764959017948 7.075326128384891 9.170070402598792 -0.651058084934924 0.07881922429174813 0.3563932075913282
Ni 4.479123088511581 0.3895885868817479 10.367336667640982 0.5860094320647069 -0.12034999654568307 0.06491778371930756
Ni 8.040203942507594 7.108015524847895 4.846931959536005 -0.20281838755424428 0.033883283011006154 -0.22583695993660463
Ni 7.203704992994833 6.205407947482582 7.082305512756513 -0.40098230705561266 -0.08119620916435694 -0.7811754452800159
Ni 2.5572785104576066 5.249648564787817 2.4764010871964257 -0.37610019910195225 -0.30442632760573374 0.10119990597979345
Ni 2.653355421837156 5.109655413507309 11.285186982601791 -1.0853729447043952 1.017032508456784 0.4737488973953777
Ni 1.0199398046920012 3.449740481313177 3.652699465108227 0.001274495837049418 0.3342716931019404 -0.0028258994845693267
Ni 3.6032220632731544 2.6284959827959686 2.707049647692263 -0.8203235762343872 -0.0807300681612158 -0.592286009102038
Ni 1.2388362208089254 3.3441216540421395 8.194986612904522 -1.1861807574520926 0.15993367237557615 0.07420075168313027
Ni 3.5644236781657423 2.6025823377497734 6.929884444016959 -0.08671893875479904 -0.11396106230020372 0.6187796845171925
Ni 4.016137435850346 6.873441173271868 6.120567790879497 0.05425644735071947 0.3791143033379277 -0.7557521201109049
Ni 0.7150616259819526 7.397219372221934 11.347668961590959 0.8234536372229366 -1.1177364486367654 0.024004590444713494
P 0.15691901436092429 5.564450696437324 7.965959907801007 0.9167304317009115 -0.3702781931035365 0.38975378532964494
P 8.448947542603428 1.7176169429298196 8.009320211714709 0.4176232580464034 -0.3775567290428207 -0.07043511399311095
P 1.9163392800278178 3.309693268186259 10.412846830980284 -1.415116668028995 -1.3735103053421183 0.12222664474310563
P 4.1480393307847185 6.2667861637741975 3.6265218180453926 -0.9409607650031859 0.03978165077331213 0.3524709897187865
P 6.979177134543461 3.9648687848375324 10.362813493157955 0.07788874205767875 0.159283440386087 0.06747757402668379
P 6.281400882920556 7.704254618603769 10.254662769413349 -0.14865398569669883 -0.09464050759472088 -1.1969439095058676
P 2.4323956452488895 8.548916906924546 5.686712463125895 0.4372117217012922 0.09423118797144416 0.35813615842436386
P 6.892912448287454 3.817973737831925 1.5329804199141295 0.5910220547879499 0.5244361393376 0.5806551097313289
Ni 5.256568481128387 2.6724662845433382 0.7398147433918651 0.18070535770528878 0.22337718554220237 -0.2906570417357833
Ni 1.4247639209230578 1.1401192892629872 7.006292754641522 -0.5033062993375202 0.005241708014913554 -0.3363074925850466
Ni 6.916005867012558 0.5492800729327676 9.263754176243895 -0.8022034695949087 0.31880702180743803 -0.7911078739023796
Ni 2.5747945486946735 1.4742215000811134 9.396658017398412 0.060253031253786546 0.5807934350814062 -1.0320374665060483
Ni 6.405283603970675 2.031878456115219 2.8602095616660965 0.04764742667463407 -0.69345480473358 -0.4474678522116616
Ni 4.196334580244944 6.9619223952307125 10.282726273885144 -0.5482908344680105 -0.02490087700673776 0.5499551095443109
Ni 7.951317256700668 7.079876333791126 0.2892957525129378 1.214411984383644 -0.222470614567533 -0.07910718784581214
Ni 7.56291893147073 3.9875297087913504 8.200578409884935 1.0168389043887391 -0.40578461354026246 -0.29016390414944865
Ni 3.262136863960313 8.420348825852166 12.424151150413138 -0.07018725964836299 -0.614428092416716 -0.11234049597764524
Ni 0.09307828096530217 4.865052589422097 10.274615194861994 0.6974109611678506 -0.6962112844327946 -0.1320821973809467
Ni 8.519588355246741 2.5314279375655566 5.809012974137728 0.616033489230623 -1.1933325380055255 0.07387756401575664
Ni 3.8514560413756187 2.7849329456930643 11.441577091898665 -0.7516409261560086 -1.1521457793545704 -0.27082046662583037
Ni 1.1625279246002225 3.2918979104094035 12.53786664021495 -0.45724704308561254 0.3398802975379695 -0.34657467883900955
Ni 3.0017479807231764 8.46624733345485 7.9480906655007235 0.2206402462270136 -0.0012508416879655876 0.33851941263470087
Ni 5.670826389558111 8.028337367220445 3.4542537444576973 -0.38339493299115257 -0.06815968769537295 1.0131547706689326
Ni 3.103411282898498 8.508001099499381 3.4326524326935286 0.20578724037458107 -0.914146215913503 0.5072264603275329
Ni 3.433557968620908 4.102366080875412 9.200427931419949 0.11757809022750074 0.7515362822573444 -1.0620522677005837
Ni 7.264200199128407 6.060360013562674 11.302581381684435 -0.1565426444161562 -0.674382104372845 0.15052677723937946
Ni 0.3803061678530307 8.933963397677022 0.19236466396009974 0.7184911788769175 -0.14579183365755538 1.3395892271146412
Ni 4.577785958211108 0.44595166588799673 1.5262947715746729 0.29458645869717653 -0.4707512482196344 0.39601056487263414
Ni 5.844833452538684 5.356195453755571 0.37559017278447066 -0.1241590858791281 0.46896947372886333 0.12581976141100265
Ni 7.880162856516453 8.708083993065383 11.343290853062467 -0.41120038523919505 0.5651094486872461 0.18458592370661758
Ni -0.05362124236245279 4.794420787086518 5.892133964024952 0.4664166254000225 1.1846648350281983 -0.5304093262018994
Ni 7.935810517088533 8.844689268637486 2.542496199587374 -0.18513511134186825 0.3460846265764685 0.07282649704342296
P 8.630379099157736 1.5876342435430266 3.6942532023210384 -0.9146740633925151 0.42647273801723323 0.2541160093869559
P 1.821848182809649 3.2926908174900937 1.513330740805387 1.011634477369664 -1.4210960255408818 0.1732069924457146
P 4.691342866596783 1.0860123913136117 8.205747623432572 -0.007306046743109998 -0.016975965732706245 0.25192928614828225
P 8.434467978073094 1.5895624493983416 12.321855324634813 -0.08480783777501524 0.6759846729732746 0.6063520002768009
P 6.389875977743626 7.7405211072376146 1.4327551628533328 -1.6219932848130132 0.5492768525303637 0.2534868604433892
P 1.8073325770483764 3.3556998994817646 5.89589216338127 -0.3814455225742656 -0.30139808230237125 -0.3329617160412653
P 6.767966510924592 4.058404789435778 5.87466027423424 1.0274004819546692 0.18385598751912852 1.4755692168880974
P 2.3051881206445124 8.374540421326834 10.225083731180508 0.8028328756487915 0.13882568675236737 -0.21670054485297519
