# total energy = -381177.55323724495 ev
CRYSTAL
PRIMVEC
9.07660287772564 0.00000000000000 0.00000000000000
0.00000000000000 9.07660287772564 0.00000000000000
0.00000000000000 0.00000000000000 13.28452578863830
PRIMCOORD
 96 1
Ni 4.341203092533354 2.5303935530962356 7.396372250883435 -0.4165901887961987 -2.139652767548412 1.9428127090647895
Ni 2.852304357072501 3.991172972290284 1.6910936834329173 0.4105103011507059 -0.9266397203948235 0.7913351594218372
Ni 0.77852112028121 2.1009613093212107 10.949026392079553 0.031379028531913704 -0.9451400931918561 1.2400003743757095
Ni 4.750566966952051 6.376658557601005 9.245392473864772 -0.9031442083760446 -0.4393272253823982 -0.28900690772687004
Ni 6.342957130454898 5.226190043677937 3.2990792663062036 -1.2292449356314186 -1.5946398325007247 0.45734937299143175
Ni 3.055983329644186 0.4446773062675121 7.2335171158757285 -0.3203617678890676 -0.3654128945914352 0.13608797610623016
Ni 0.19463958358843467 4.167240918366289 7.5273312950928295 1.658955720969975 -0.6346853000038553 0.2252021545660831
Ni 5.64674536966441 2.7801816691912795 1.2458890265278644 1.4155532413457816 -0.1194719648161039 0.9879283920019761
Ni 4.51141662963838 7.785483500903773 0.9115695985140437 0.6059555361693306 0.19346471425348616 -0.8703364178174042
Ni 3.8104850352588877 1.465063575836376 1.2233454675182258 -0.8289645397388369 -0.11047027553812588 0.23394210554224226
Ni 6.772253225184086 7.066807147550232 8.81444262205882 1.1915103971951222 1.2763580870691373 -2.083876798229373
Ni 3.3674106570910265 2.67418509870589 5.343740222193028 -0.7758959420486315 -0.8128360096080905 -0.323623726469791
Ni 2.1872525745725033 5.164559908929196 6.160140730006921 -1.486525458789285 0.5133289736808451 0.8791388466003827
Ni 0.5966849929632575 1.2364148682582423 6.853500622117282 2.4999694785638624 1.6513398562959303 0.5281554971707163
Ni 2.9289199634663334 5.870737779874929 0.3998761012444916 0.39426478582612096 1.304905816799843 -0.969915243254007
Ni 6.496179266639506 5.694116161012522 10.63503401660915 1.5504330560765234 0.5420551379709438 2.278047280300632
Ni 1.8683007431924226 1.9316645091248172 2.950759178078844 1.0294720197717173 -1.2106221783239086 0.12281054227103365
Ni 4.777833082531612 1.7081894652884775 3.4876792782213233 -1.9667319388845481 3.4310667205094076 -0.2914692532244335
Ni 8.935262192994603 6.446512094718282 9.495566345589687 0.6941541447934497 -0.1942152192662655 0.09387020508759962
Ni 5.285669023502457 4.108097772854832 9.365896179014213 -1.1351469308037287 -1.3468420520223126 -0.26167530979145254
Ni 7.973950086753972 8.785870383299534 7.507896472629795 -0.447222826080391 -0.8072394893569194 0.19816006284662646
Ni 8.54081117739655 1.9120499699212783 8.64076091492618 -1.040812384485201 0.3171502029303054 0.6682263691840944
Ni 4.322541596650671 5.3475623797398155 5.033453823750298 -1.1456799691245687 -1.8519285831887073 -3.0188461215358138
Ni 2.906155843002439 1.3521052508072038 12.369408574053246 -1.532984778693089 -0.2142723950274568 -0.5309816537656017
P 2.3480082912934086 3.1716101759717574 7.429583541464532 -1.6153372129490762 0.4021120497846817 -0.2805194390811491
Ni 4.224750275327706 4.984797785409489 7.32123522312739 1.4963722696763777 -0.4633053334645505 -0.19783841784114958
P 0.6032482846328915 6.236878870542006 4.700862580958298 0.6204015363913316 -0.6204717275076347 -0.07428097010176239
Ni 7.112843678249144 8.722470310954915 13.137213856766804 -0.1534884309708647 -1.7029627226785446 1.6218724429644327
P 5.545922462920815 7.026089506242007 12.316841427455701 -0.8416241374843764 0.8670299791519905 -0.44904933776616857
P 7.742260717152154 8.856513584882663 2.7437327543001873 1.5275258124610467 0.8945721504363175 0.5773864662823863
P 1.7222400468188237 0.6720071834216411 4.927390086402296 1.403829268040634 0.7557166388872791 -0.04981486663959808
Ni 8.475042111654375 6.006741600062724 2.699362687922316 0.5038521445386612 -0.2057437887311553 0.46504314209126363
Ni 5.786252758631736 3.2105215732718824 5.105854255685027 0.06318023220291054 0.14573604071895546 0.13957284933103703
Ni 2.103702443444056 4.090017179567719 4.151069134701808 1.3958351940915639 1.824013087725362 -1.2434114569397878
Ni 6.185605139879909 5.66508918444014 6.096986633605114 2.1794788984064137 -0.26563866531457475 1.1503454929210382
Ni 5.75542861465431 0.4595511356950175 2.0158336645816686 1.358737517908318 -1.2044188777266742 -1.907561599171979
Ni 5.114602285710187 8.715780854502807 8.559804876951073 -0.3548862840284985 0.20446209380525435 -1.1304448973423693
Ni 6.613902808272962 7.178458441739372 2.2971466384100445 -1.673295534631415 1.1303798484323888 -1.347678174770363
Ni 3.4894092787637545 8.04265997188622 11.909298319609992 0.3994352742834669 -1.001945017996042 0.8804367394761998
Ni 3.7440079944783613 7.107352333400398 6.327034953374449 1.3429702277717321 1.746928072515901 3.900916025740062
Ni 3.701175504658139 8.749981494816982 3.0631456771155015 0.7229625843847098 -0.616349477809145 1.1907691481537235
Ni 0.5487296683783537 0.683787706527737 12.909875810669924 -0.920094720187454 -0.33935527827243495 0.3759773003708428
Ni 7.0517944460959745 6.079109356226452 0.130226562342792 2.31917336091698 1.2125749311749052 0.2588111008697801
Ni 6.278958002308598 1.180675448892702 6.79538040977021 -0.3892405931386522 -0.1893553200708029 -0.30942686614411874
Ni 3.911017490704698 3.3813250895755353 12.99178852260711 0.7234444091171348 0.27971545512261503 -1.3874130314661397
Ni 4.279327889502106 0.31290953672584876 5.219941710134338 -0.9735050174877944 -0.28629593655361013 1.5097139810906064
Ni 3.9759878153779655 1.0585316015710815 10.312086664563916 0.2497057961344022 -1.4322057623007978 -0.7454314549111872
Ni 7.750665651581805 3.217592247052335 10.437346509714587 -0.8083764311748399 1.2494957154606545 0.14189429837536208
Ni 1.6938847388725695 5.86772434766041 2.7015546875602867 0.53501700017724 1.5724568686457823 -0.45875910885476473
Ni 1.7694020762966525 1.5827417344545534 8.93094808356219 2.0409244630375625 2.794486260365368 0.5824371413324163
Ni 7.335329372352405 1.5711418357492675 12.065604685512954 0.16007199772565336 0.39044181253560495 -0.6266842840762498
Ni 7.958892002284435 7.4450655032967745 5.069269191748098 -1.082913170309993 0.006105598677105613 -0.6688254362206739
Ni -0.043249105900482296 3.2559408949630018 13.110392494736976 -0.6192252566950432 -0.6970571773728577 0.5546170337963545
Ni 2.6651811084745574 4.8454810051063335 8.876361392784736 -0.09798679835913447 1.020901504493887 -0.30901857496210655
Ni 0.0019823301073821765 7.918891412617616 1.1229301002518348 -0.7115576849818777 -0.2208436204870713 0.607452175319515
Ni 8.601315813366375 6.317470029074269 7.094056017583987 0.14080672173813816 0.11786014024429381 0.0026004137373245536
P 5.389823043567524 2.8436634309633995 11.110898530976321 0.10645086996608763 -0.8924520187695212 1.1456468018937882
Ni 5.522532056846071 7.406825774622776 4.45701147092204 -0.578799544579829 -0.47745874214679707 -0.20973748327158073
P 6.080026093135086 3.5161580279691353 7.264045362593537 2.4031982977793835 1.1513711059720753 0.12946430014212543
Ni 0.8928191519214151 8.433879716796417 3.3662061918655244 -0.36253197349921434 -0.45730900667179947 0.3674363527793672
P 8.43963428313378 0.45994233728672157 10.32571699937278 0.44674820043681773 -0.010011618599731145 0.03666290263867234
P 1.4556329852614212 7.394064070726352 12.847465088058385 1.0524368560980069 0.5021400469435611 0.1220302124615834
P 1.6043894327425867 2.130305967000545 0.7853848475119902 0.6257887688451739 0.3794498323004755 0.3730207888456802
Ni 0.5082443881083561 3.8243087017128397 2.4050837866287598 -1.2640083072545327 -0.9653667046513761 -0.603623031381412
Ni 4.267410309689868 5.358781061116759 11.439039515290073 -0.41182927707244565 -0.013444041320047815 0.579973510283272
Ni 0.9824515147575403 8.122833606677919 6.306549967937861 0.9139950350476194 -1.347764563836582 -0.812401236063517
Ni 2.342771091330224 8.752858777985663 1.4505773173593524 -2.308075708341922 -0.6028624990663036 -2.738613103346832
Ni 5.283354489723234 5.0086238684309095 0.8782648189214731 -1.8751371600946867 0.7447143742395045 0.9181231982833802
Ni 6.393395813635862 0.5219255518943321 4.30012147944259 1.5466247380740268 -0.4647412945801287 1.0341686539164383
Ni 3.3478233476966546 3.214796653311155 10.400097038433973 -1.504015130933616 0.2689433042077755 0.9435634927333556
Ni 1.7879728061487765 4.251244879647525 12.189283386411306 0.9110084416154697 -0.1595796314702671 -0.7382801885783865
Ni 2.6857214611897855 7.073541987017621 4.525213973943471 -1.3357721673613963 0.3727567365510161 -1.892345296442857
Ni 7.840796319925692 1.5282639629137664 1.3571473038046893 0.6140977056604907 -0.2637067383991845 -0.7394965774839909
Ni 6.768268596442598 3.924296560975303 12.584365225921738 -0.5689025971810912 -0.45430904350321116 -0.5159921223353049
Ni 8.025550575126077 4.628768030546549 4.801678226419449 1.2144806328380504 1.1233183135999172 0.27072585002949506
Ni 2.053354526293649 6.17536673163299 10.782119461467747 -0.8086371410353945 -0.010347918893227339 1.000884952162644
Ni 7.465197408874493 2.6670599653071037 3.4332931803714 -0.023952397050539392 0.13584552107812087 -0.03677140319207861
Ni 6.240182754054309 1.579174629453632 9.455886160010737 -0.022857107103831605 0.01209061261594692 -0.09576073724209315
Ni 7.234869529731039 4.836141180561937 8.617034674538374 1.6472119501704856 -0.7056001818468622 -1.78238049978624
Ni 0.8219081905481402 4.037890248218379 9.867612674204853 -0.49150724982006316 0.994534584464584 -0.009213291068151875
Ni 0.5121990640597591 2.754903329680934 4.724309261971987 0.3576941857909388 -0.8337889577106737 -0.2868782914196414
Ni 0.5209552630276693 5.591632235909718 0.5770350550078011 -0.49695104654345384 -0.03837988532977907 -0.8652402342414195
Ni 3.1290772140523764 7.79925270773939 9.608392152214245 1.17377107093383 0.8151934540966735 -1.0076698362949612
Ni 8.005064682029184 2.8303208244714035 6.232010180662886 -2.267113664107263 -0.6328523605601746 0.9322174715929172
Ni 8.531988719226334 7.2495827032844575 11.884616312920413 0.56516498451553 -0.1617550418550311 -0.29003457766043594
Ni 5.126828470026322 0.5665606550814319 12.451984785673808 -0.19591651822808842 0.9991157760773632 0.39125968045121007
Ni 6.568374567345173 8.471429623638175 10.719390150088952 -0.512881087510149 -0.14940371937852978 0.051614124631865946
Ni 1.221347707185649 8.602005635198614 8.742267289879875 -3.4750732079973443 0.6061249718676593 -1.1767085562955992
P 1.8360243427260716 6.8677935489492175 8.042093591855542 0.5852216460560888 -3.0691764943592497 -1.1841169329445285
Ni 1.4442600016325302 8.667329947391057 10.940976352829384 -1.0295838627592333 0.8595532111589712 1.2212454623657096
P 8.677640968462423 5.06971848359936 11.465289958987691 0.08467311196936385 -0.43923363722732744 -0.09756205211689005
Ni 8.554879912133009 0.6884376502732126 5.084970807374289 -1.393824591419438 -0.49402281715306534 -1.44340677322294
P 7.5635424029838605 4.136235242327747 1.493924450572837 -0.26440556423842204 -0.22365177935982775 0.3968747126451423
P 4.572783542898503 3.8944799199370683 3.220381487171376 -0.7769783764795328 0.24973484960012476 0.05384687061712662
P 5.946427572757071 7.746799018680043 6.589762674785812 0.3653681573964288 1.5952651247895493 0.9338040993537468
Ni 4.088909833994914 6.279538904904167 2.614009035766685 0.15977400686926033 -0.8282466877362058 0.7066445639509765
