# total energy = -340865.7860578373 ev
CRYSTAL
PRIMVEC
9.28678401594219 0.00000000000000 0.00000000000000

0.00000000000000 9.28678401594219 0.00000000000000

0.00000000000000 0.00000000000000 13.59214712984894

PRIMCOORD
 96 1
Ni 3.90774859801081 5.008928984262091 4.94763621133982 0.1760971695093161 0.23287458350967638 -2.2461974827798863
Ni 2.2574499738623994 -0.13989611080319886 10.557781361804594 -1.0555833721467887 -0.5085305238509371 1.4970345858507248
Ni 5.5886750350528045 1.7452559882590521 2.7175460311601936 -0.006979002420994433 0.04039100222253689 -0.755736179271305
Ni 3.4410598529103615 0.11547837022069417 4.734756195518613 -3.5462441717152147 1.9501943462408418 1.6608925329813717
Ni 6.212050396023644 5.7057163709830165 5.472266129097744 -0.38759765821859055 0.36010922299033465 0.9773961250120845
Ni 0.0891670544262423 8.449654512956513 0.9239551193816635 1.40440930891382 1.3499029503358235 0.18102983092424307
Ni 0.012587306730128502 7.1429018810374405 3.0067866265803973 0.3248817672466082 -1.2975344640364364 0.7920612389545842
Ni 7.931869883519952 0.0309073450852447 12.90345949625347 -0.5740365759735468 -0.1642083884915301 -1.0671119416116783
Ni 5.865774089364133 3.4123915513935352 6.260148506556831 -2.3129453777293976 0.1770129964553661 1.0204168515479846
Ni 5.776946002545718 5.1552422626545775 13.321609008591366 0.43989441073977786 -1.1362648464582559 1.4702447193513906
Ni 1.3009762524103377 5.694275053370859 0.7038351269286086 0.7054698269165851 1.0973182899917295 0.5512506884272829
Ni 0.5945343252757774 1.9440024478514086 1.6425432310169876 0.3711873351813672 -0.17580226397671658 1.7884171928986232
Ni 6.494582218843991 6.749615874903302 9.436701255277882 -0.11783802875710674 -1.8884978976723088 0.04600114932046271
Ni 2.1790416584407715 5.800060807364436 6.673104849407131 -0.23675437818005676 -0.4011445436650898 -0.8270868631001497
Ni 6.4423161997520895 5.104527136453284 7.71868154647738 -0.4082125062554647 -0.6708771765433801 0.48325426578265157
Ni 8.509145649826221 4.418048079723833 9.198811930747633 -0.22731688691624077 0.588540940237309 -0.1299479246467633
Ni 7.968654834057093 0.6652680425848351 5.0965795068976965 -1.4340178758088722 -1.7790313808083489 0.34281392624499674
Ni 3.937215562932381 9.32328083634197 12.539489080465353 1.6269130907121336 1.7237248949265602 -0.31573378219875303
Ni 7.68415421307621 3.454757858980112 11.43012518035057 1.9315962715236796 0.3144834547314197 -1.5296477439000558
Ni 7.547768506540378 8.353777757252038 10.701287245461563 1.3988891504265393 1.3599155973768193 -0.27768016986014116
Ni 7.067669645667239 6.438657206944305 11.957759372660064 -3.1485510769338356 0.6043601666577528 2.017014232078868
Ni 6.240328652621875 1.0018953809009763 11.153008481150067 -0.8012313354896266 0.048747858827664435 0.8688014692301167
Ni 2.125754093133499 6.057899072124128 3.2333813646821503 1.0751299268201484 -0.03917332776535189 0.7405569004277053
Ni 7.969509218164494 2.4289861569907774 3.6367825357052195 0.4064322744265904 -0.3232982248095722 -1.3445604550769876
P 2.3197735797838193 8.262154348517017 13.067490100734004 -2.009775034017952 -1.2337597927826365 0.9756991969256358
P 3.5526034128451216 1.2751961406478787 6.512595793334496 0.42964187977383417 1.6844849755893312 1.4695304668931852
P -0.037381162055565326 0.7854984600637606 11.078537762049507 -0.5494786841285246 -1.0317839557343456 0.26657120443117316
P 6.86182808326994 2.940140022811202 8.042011139104522 0.29276868876214746 0.5220779235180686 1.235641068965749
P 4.082507295109496 1.5144051171527113 10.832206751066783 -1.8886254243891085 0.11080529028004142 1.7095709720236816
P 7.828963032496968 7.454603491698524 4.536569728987955 -0.9934866028160437 0.736009647376655 1.4785990048533566
P 4.485971616262242 6.439437296781498 2.8318561239818534 -0.531472220248775 -0.6416144230235209 0.8347518358445752
P 5.570844410202688 8.491324311759882 8.85282351438518 -1.232076748653259 1.7289699453755836 0.5218822625674947
Ni 6.017325113806339 4.260209902665205 2.2703372437084965 -0.774439412107763 -1.4464686999777152 -0.829088724021527
Ni 0.37929453769706384 7.585872180373724 12.106810394909745 0.6941271482102562 0.1931268712980932 0.2447340539514237
Ni 3.651934852114307 3.308751044452238 7.87431132635405 -0.3476882236181625 0.2573931374763309 -1.2777333701501092
Ni 3.490205512653493 5.759486849046646 8.761797245846962 0.6957001491243309 -1.131523732228845 1.082445229534639
Ni 1.192636632878333 2.6853571099138462 7.587951491261194 -1.1591453506008553 -1.213980296162864 -2.379970694710011
Ni 2.5534104860229907 1.467172534867457 9.019273326039388 1.3968998879106522 -0.2783414575932239 -0.5833352276666535
Ni 1.301180561653412 3.7795724083330517 2.8994499796962114 0.12056236966680527 0.6275815990795386 0.38752566733007454
Ni 8.154492664200667 2.7562338436930562 6.187430203554819 -0.1688597712206124 1.9143482830765097 -0.37567082487401754
Ni 0.07908253592377325 0.08772574558419129 3.3432328726129046 0.7472749358778291 1.0942175395792186 -0.26118680019080825
Ni 3.6255882465415064 3.329098387705677 2.7461028912717067 0.8672192123446614 0.21138710305986178 -0.7498642938715602
Ni 1.0124173069192999 6.258670050579675 8.71415604507556 -2.008564558649618 0.3890814418529686 0.4840317673786245
Ni 6.801528996211712 7.450582314323473 1.112700641525536 -0.971828915336952 -1.3874580257714622 -0.5689671318704395
Ni 0.6989809250488401 2.615511209133784 9.989711584255573 -0.4058247227495785 -0.12819751761455986 1.161150553956342
Ni 3.809225108930145 5.085814267144439 1.275386519715289 -0.31399520224109145 0.6485779988255475 0.3409673599545612
Ni 0.22365547103661704 1.8410213025582147 13.046177860646226 -0.15237745729487306 0.8951676179284711 -1.9718103818487203
Ni 6.92941729559241 8.987517168917007 3.0470466916065537 0.3920163561115765 -0.30922554876659003 0.1307529370465619
Ni 7.804464496895611 1.535996889432148 9.287962268963076 -0.11146863489565319 0.7236536969144634 0.9994944995730207
Ni 8.483476979469076 4.0266194303449145 1.9403880316057498 -0.34498368020280584 0.33380298099563804 0.07127149385147726
Ni 5.173945845179646 4.15406196410436 9.591203619604132 1.3622409030758862 0.4559352662527244 -1.2174602842916644
Ni 0.8544704744904916 2.0952934423478844 4.686204889937152 -0.3206098793441317 0.12799620023703118 0.4735547791067005
Ni -0.07056655520108782 8.107742994671769 6.406073597387475 -0.154690678809082 -0.8410171000279968 -0.2500004445566856
Ni 2.7066609918962246 1.0368786953855522 0.8716101626276653 -0.011690806074366962 -0.357150654582643 -0.8458857409742078
Ni 5.629276853721922 8.132130088867813 5.180891430765793 2.231636040025944 1.118791629374157 0.0851906750357307
Ni 3.056280540715132 2.989099946878811 4.914933730950654 -0.6830521213430172 -2.1692176256897224 1.6948130969882167
P 4.543419660701208 5.42551553089047 11.069077315416791 0.03198220933355137 0.17812191324882873 0.050271494561042455
P 8.627923614322565 6.554899879469773 1.1392506276630336 -0.007188804438955362 -1.4959742629070107 -0.2711009739807267
P 6.725433089950332 3.0643414690327884 -0.4344998238541015 2.0729640079716107 -0.20288729311896672 3.8639227363451654
P 4.359485621231734 5.317203771709793 6.910736930026781 1.3448846711856255 0.25353288318997624 0.015593226452566692
P 7.899412574222477 1.3959150429534273 1.0384388750599374 -0.8318104938280642 -0.19949189428417258 0.6872466190403389
P 1.6212959984156439 3.6996967810747994 13.828921860641994 -0.722899078136626 -1.702580142528145 0.8681190984511115
P 1.7216025499813206 4.228978448826174 8.786411866245519 0.27391401794948955 0.8111431952866998 1.0620049594024161
P 1.0986822414155102 4.65721990909356 4.938475727823072 0.7704693717164214 -0.602689206713233 -0.3718244545447338
Ni 5.095444661920257 1.8776205174198324 9.128947456400018 1.5484383942439979 -0.5783069212141266 -1.3964152349647498
Ni 2.4888116180764257 2.243993424170828 12.388140507909466 0.19576225203841124 -1.4969957621929895 -0.12855053007860442
Ni 0.34597355750841025 9.339439840112389 9.011797465099626 1.3013114145803653 -0.3332897888046454 -0.6292103929322131
Ni 2.4892016629950224 6.286381813367563 10.933645361574765 -1.1277879193354965 -0.06631877783189223 0.2177765515259733
Ni 4.538804129164486 8.629168043348564 3.144678649444713 2.366839556644692 0.13249563076928147 -1.4776754645978227
Ni 2.923916011554352 3.59658562080874 10.597416426282617 0.41257823942332816 0.33680268705391025 -2.4630517796019067
Ni 4.234596953010716 7.67951082118816 1.1495812459355694 -0.5344503290404925 0.1607988485893489 -1.8191842988781506
Ni 8.375610985909654 5.009857662639702 13.425914449251033 -0.7770274845499134 -1.027018158914586 -1.6560218351526317
Ni 2.2403808652819244 8.448772268497784 2.3247596539932083 -0.7452517348002133 0.07403105887448541 0.7482018185674726
Ni 5.99890942157833 0.18460268790135337 0.8372583494398643 -1.0383459252225795 1.7307671464853225 -0.5453021841533319
Ni 6.559561844925376 6.0883875832610705 3.327928252949888 -0.21805962998403092 2.516658766294085 -1.442976884774373
Ni 0.940806917221778 4.5633398119009465 11.871149898485761 -0.5734449651361351 -0.27320902146266496 -0.43900172372217944
Ni 5.264204096699581 1.532152160948842 5.0103916527068275 0.3533891306576817 -0.6774856829988332 -0.22138149526841225
Ni 5.677568129357652 0.6732082427134021 7.169708182407159 -0.37853631934727067 -0.01205024629631473 -0.6121184704469329
Ni 3.575448900934332 7.267679107853145 5.309146558105648 -1.1798656138673422 -1.2928203463902186 0.10643827156059733
Ni 4.216933490268571 6.72991860651419 12.684299757242865 -0.8938920936501572 0.9117872287630233 0.20842904887280234
Ni 9.100082275067138 5.08300037166028 6.702668396879973 0.42944416194073143 -0.9348255986397255 -0.5874389654223818
Ni 3.384800516794736 4.330176531634357 12.721923304354986 0.04779449377545963 1.5776435550530443 0.6722943686058808
Ni 4.829211144626968 2.4843911089990014 0.3570564052668102 -0.7371499316286853 0.0138459047441568 0.9984238922166612
Ni 7.478544820273315 8.808607279470403 8.17801423014878 1.4214472382327135 -1.486093513458189 -1.2071452755189016
Ni 2.3116569307635064 8.890219535294786 7.154783392200585 -0.5594537930633655 0.09692184742972985 -0.6890954993236197
Ni 4.214156741919516 7.891528094796566 10.598625565530266 1.772271436376696 -0.20250188475508996 -1.875947571811124
Ni 8.176455907831148 4.865773212353481 4.3809390204329075 1.4806016371056823 -0.7596455416280401 -0.0263167835176579
Ni 5.350106846628523 3.3482941697708797 11.801150765773393 -2.9259835317771223 -0.5787329530079517 -2.972176742503733
P 3.2538104316328194 1.277499263024352 2.861037984641499 0.48751458372090234 -0.44570407544301954 0.6455857489664429
P 5.8501072851338485 8.266500563324232 12.403268678680735 1.5432254825844907 0.6740954263703617 0.6670768289606833
P 6.222525888123086 3.433277528105988 4.280466235437639 0.19090980904211638 0.5750328784485452 -2.1689222059364908
P -0.24587595857769604 1.0408441520579477 6.844732971694893 1.4871918887286906 -1.9784374002469347 2.013258621691178
P 8.64409190487676 6.06971186108733 10.932136259211148 3.256686790801514 -1.7788102659364784 -2.5026238854675737
P 8.049960626016864 6.4177526566643 7.838672364934882 0.3025640775860144 2.4811199499575274 1.0656919213357001
P 2.615780525863291 7.62869354036533 8.843159687187768 -0.21656967570206576 2.558277727386452 1.2267157414516616
P 1.4948564373040167 8.077690962372305 4.62493161926081 0.6759875011867519 -0.02409175084188109 0.10574433081736627
