# total energy = -381166.8748915657 ev
CRYSTAL
PRIMVEC
9.31348056900733 0.00000000000000 0.00000000000000
0.00000000000000 9.31348056900733 0.00000000000000
0.00000000000000 0.00000000000000 13.63122023378298
PRIMCOORD
 96 1
Ni 4.868752459294881 1.8198448282470874 -0.3141725780364374 0.7028092493652863 2.1096117411016313 0.7030321640093699
Ni 1.2461902939298644 4.1069749269799045 0.4558650803701377 1.0728012786869716 0.8612352268470845 0.545104466320229
Ni 8.485307429565658 7.6783595155343045 3.084826932319041 0.018748484252096746 -0.7727735943695658 -0.1692040419339086
Ni 7.772081072485212 4.970455669262477 6.281961403806146 -1.3547569359940153 -1.1926491387852556 0.5485422883571843
Ni 0.7908626013999399 2.4787922194217504 3.5725385288213394 -0.6314431389174738 0.6665471817094585 1.1988285281230904
Ni 4.426231734166645 3.3725045202716126 11.086448983117656 -0.6587981338916589 0.0692043269098034 0.6949936099756095
Ni 9.292823465923753 0.16100679874677723 5.338421980856774 -0.8082046814836662 -0.562076061177561 -1.5555420951683145
Ni 6.11667506064727 1.7137456553578156 11.287754281791978 1.4512077573245974 0.2077543914032809 0.4833540245853095
Ni 0.13095871575058185 4.8020120561238375 4.773285556048376 2.435176650458193 0.04151406008338657 -0.17290977292026996
Ni 6.4215052861270685 0.7716712429329777 9.182984930506827 0.6958898965376337 0.1399924533669589 -0.8271251725372529
Ni 3.6036185454864373 6.784200167607661 3.5506192518379387 3.6539276285368234 -0.23527085165599482 -2.1132727348929863
Ni 7.550625126825003 4.612277825953521 9.082755113196454 -0.5537212614549625 -0.8963107303939789 -0.6952427498719382
Ni 9.099354529966165 2.2895329767705133 5.919193877175576 0.30268929030996905 1.1592085997386228 -0.7996017703060035
Ni 1.8015345250606136 6.898579024898141 13.061816832636346 -1.388921754801182 -0.47248108642654757 -0.8573186654014977
Ni 8.796787480312569 1.1359186816573064 11.18329893825795 -0.11434955598787404 -1.0409489100630653 -0.6471096418101372
Ni 4.293030332247548 4.140382382488491 3.970597628119511 1.2907912317753318 0.037284595383071266 -0.3045818793469916
Ni 9.184749835112033 7.350226961177315 0.6280312917710518 -1.4042696980121623 0.4543113574960563 0.10874815064069658
Ni 4.9459519013664375 5.093561258030945 6.244734489835314 0.14314925382838573 0.10623952528622993 0.6350308562687321
Ni 1.7830565792203474 8.989520651289622 9.948636870820568 -0.7597296167014141 -0.16598682054819155 0.6200348970805323
Ni 7.71673105629131 0.10003795960658762 1.7809871237940835 -1.231471510969092 0.23489624192539546 0.0016154241162359276
Ni 2.8327324289820552 4.91419293195348 12.129387460893048 0.7484805261501561 -1.2368775124760116 1.341443763824877
Ni 2.6552826799424403 5.731404301789255 5.2063083934911765 -0.5410549788412037 -1.0135502063351383 1.8172163765185023
Ni 6.913452653681864 6.3783279892946725 0.711011611354228 -1.1731079834285345 0.9079866240700104 0.785802402529066
Ni 6.2390169439929055 7.765310171968139 6.862869276944135 -0.1535776482505613 -0.00495785822590759 -1.4358037640647014
P 7.963761820135678 6.393630038193643 12.404492781159242 0.007007284555768577 -0.7703071351069443 -0.4968646574772345
Ni 2.666784828688775 2.6248089708752267 12.875587265278373 0.7040724323484262 0.2700311379553156 0.0005520158487280815
P 0.6653532032456987 5.7652774313361554 1.793854628820753 0.031880136538048325 0.1927113810272294 0.2522840983845397
Ni 4.723592548071901 5.648151097219627 10.144858871692662 -0.9449768281411144 -0.4577653774829277 -0.3433482014819119
P 6.96318664097371 8.339886740881223 4.726053169690347 0.4695752256336623 0.5407348764976235 1.0179277665775437
P 2.336994474755391 3.676580353809344 4.762407410513379 -1.5842469193021749 -1.4457598468361488 0.31665912222649983
P 2.8482580014194165 8.139944935791082 11.917953751885415 1.6206542542866156 1.8007448612260404 -1.6182001363191678
Ni 3.6312516429199406 3.068661523753038 8.767477956341137 0.9141472443547676 -1.053780514610095 -0.01851914185011004
Ni 6.780558596628053 4.454880001003671 11.416787901068174 0.8698041994630181 -0.38805017237497685 -0.2491272979231129
Ni 5.000109792022259 0.765311998265773 5.733332192307872 -0.03402315102298011 -1.2158042367454802 0.7805439823436041
Ni 6.1222724625877945 7.692814037683545 2.8820081930202015 -1.1472313727720886 0.28243825337041684 -0.9658629275615045
Ni 4.438003973855202 7.398005117508245 0.40342552691569206 0.9494544042964939 -0.9811219106031037 -0.3186239592623545
Ni -0.06649452727881364 8.073707460581415 11.876637288510118 2.4017919043501603 -1.109539771758586 -0.7291548292383506
Ni -0.03087139469593304 2.6097304455146464 12.932879142212043 1.6686089277890228 -2.708319851679929 -0.17039883357295815
Ni 4.602629059879673 -0.258038366762015 7.972928147905835 -0.10973545425463037 1.3578422597875583 -0.13494486364072242
Ni 2.799036255569715 5.988083831707472 1.0648139813991924 0.8956900660908446 -0.8738282330207466 1.7308316811746707
Ni 0.5609751616020323 5.6362391553195765 7.245347854268424 1.4357734250473981 -0.5059185401493868 -0.14018785720721663
Ni 0.6248553948297558 0.2567121271008992 2.930003353452986 0.026147862039961417 0.2275205182866146 -0.024798547100918583
Ni 2.036327375178112 2.0738607026661535 1.544881072888542 -1.295010412063002 -0.3986143210440683 -2.1211032866809987
Ni 9.145549394566832 2.895561170231268 9.907934165827767 -0.6765485158965445 2.8315111743291492 -0.29714367790139146
Ni 2.2581372331074396 0.6752813737425354 5.611700927544702 -0.02494844241522155 -1.1716532532598791 -1.4514540690074489
Ni 3.8856307430888903 7.6167880941885375 6.441801223412909 -1.552493795260294 -0.41674496920650805 -2.206100100538368
Ni 7.169023879388895 1.355688887298822 4.247747257413898 0.42498021263210684 -2.7693233879464954 -0.12016333445617369
Ni 5.844954259291538 2.58093316298536 7.313585865146681 0.08581699576581994 0.43886931190937317 0.3473202987557825
Ni 3.0893747049772076 1.772150493243053 3.3603271441697236 0.29528039944040757 0.4328434174302675 1.983655968333397
Ni 7.618073354534282 -0.127546256397823 12.707610257526124 -1.7987746248735472 2.16678973297452 4.818425244588528
Ni 3.2068642648436194 9.392272813545912 0.24762589526533266 -1.5966848879552114 0.15601762515062162 0.0031226047893817186
Ni 6.287847523650424 3.783508426486813 1.8585218511732258 1.1084228845453235 0.016733767814913113 -0.6269604205557718
Ni 0.42271560827877663 8.5597500813304 7.371409541832104 -0.12023198291058002 -0.879133190173428 0.1346144768844972
Ni 7.071027434766274 8.387832539865945 10.865213766951607 1.5872715650611116 3.602654432184144 -1.3099822028814858
Ni 2.1896924629561703 7.362697711923341 8.362576242723993 0.8111287971089967 0.03288826608758852 -1.1651712450799612
Ni 5.075073998709912 8.160294891265366 9.944698199804515 -1.8658647336538254 -1.1438218328699075 0.3681580614367401
P 2.5519216703984497 8.910858992737761 2.2647451477111034 0.7368128600042407 0.24192100998266075 0.9342854098655394
Ni 7.266340439915581 0.698459833325535 6.778737811138249 0.5505120104890455 -0.6475860672259234 -0.011941488632592336
P 5.7715547173726165 2.9572722937885283 9.457722368282752 0.3700408802817498 0.6061064599248981 0.34203462487681097
Ni 1.985205679252093 2.440271662972485 10.459576288353928 0.5522572753149263 0.353439781389959 0.04291016909996481
P 5.440842328843372 5.648206978104224 2.2807214926175514 -1.2481672264572181 0.6527151609223726 0.25053317713170403
P 8.337064756209044 8.818646219670988 9.051553089933318 -0.3091980379627643 -0.6046481302118168 0.16715255872151857
P 8.497526716330995 3.3045254241586566 7.646978673440456 0.16785035611949156 0.3903320264306181 0.48021187941190197
Ni 8.527730334455986 2.4576040506785013 1.6444291434068243 -0.2351582373375305 -0.166493584981281 0.3589740809446269
Ni 1.5552208992352476 2.980602563108018 7.643556900606932 -0.8986882294872199 0.7515565939723186 0.10656194162265518
Ni 0.29596099774608603 4.458111778829565 11.776338551442075 0.05576439935481364 2.221963807043503 -1.044335310036795
Ni 5.808547862976214 6.913368832354967 12.068047013870286 -0.6602533782809468 -1.0335533889299426 1.3445342298247425
Ni 8.218094352900797 4.517336203022233 0.21475210220465302 -0.5758155222508405 0.16181777677216647 -0.1996217349938175
Ni 7.796771109996577 3.4226483007171744 4.115756607994415 -0.9774470328546778 0.4625316885233196 0.15849642570841735
Ni -0.07745649414070557 6.8362066442064755 9.726298007183717 0.8194136628256081 -0.16104310338967107 0.20067408751773183
Ni 8.154585727555647 5.208759701628856 2.7887569668479895 0.3304939712270631 0.5417118956989122 -1.671191858024851
Ni 7.9727679560366544 6.707503653497483 7.737162970396337 -0.4332715061066216 0.9918940615179433 1.4071292789481442
Ni 3.81297627963127 0.9343842713561343 9.957197822340916 0.648259182033548 0.2703661526972312 0.5477295626479018
Ni 3.421633131313652 2.5666276565283797 6.248006315628502 0.9389900144300602 1.0131313736301648 -0.05050315095587431
Ni 8.813095385134295 7.135914455264829 5.359018743571365 -0.34724882208789876 -0.701293069831076 0.5890407626918629
Ni 5.327795299302467 4.54164438782218 13.198142907352523 -0.2570681500367444 0.2842423964586911 0.24299521688344602
Ni 2.1314087003208946 4.46330870109714 2.745178258994567 -0.2718957019678801 -0.25436386373170383 0.5274363596165045
Ni 2.8404905584603526 5.090739273358767 8.173484642726548 0.4038465159772851 0.6808070340625824 -0.12905626607042936
Ni 2.3344798349485 6.339965762018433 10.52349284415664 -0.1271803892039552 2.0037085161088974 -0.5134014787899932
Ni 5.329238888821239 2.0462834861172476 2.9045673061322446 -0.00963495198660276 -0.9442427781885674 0.08315976064863098
Ni 5.012282511383765 9.173974137865468 12.192813196259378 -1.0913078221315917 -1.3441359659450594 -0.18289593759870434
Ni 5.24985077876961 0.09114079143057627 1.159370957574834 1.6183613444873806 0.35099646205578905 1.4522243715145697
Ni 6.506956472157534 5.738100694460198 4.33553240172439 -0.6005053116880367 0.4064237897861582 0.43138380216560546
Ni 2.4185060584217277 0.6859956020160448 7.8079221405180235 0.13706139576309298 0.5252169833676825 1.42613487351637
Ni -0.044384323939704505 1.3291734075572705 8.358746539432905 -0.19874884547056096 -0.9914248351910087 -0.4682403088723226
Ni 0.30576623029680805 0.3793138565599129 0.5742897137054824 0.9560359141687536 0.5688825425764332 -1.1404806843118165
Ni 4.177217198919062 9.064680441073367 3.9004782941264673 -0.19396607936993693 -0.6188437049859085 -1.1061975947592302
Ni 3.9554911623166316 3.753649407150173 1.2330675995301994 -0.8108768289991906 -0.2594325365038629 0.5201796780540913
P 1.7091913632631128 7.5726515088372155 5.805577793959852 -0.33816511461907567 1.0392856634280294 1.0625250935719441
Ni 1.4922152018514763 7.267681581145923 3.6572017943789796 -1.7010927593493412 0.4229508409069038 -0.8256791841193457
P 1.4126221952229898 4.564183011276538 9.830236452535216 -0.1173405202953979 -0.8645954015685691 -0.44976101912121247
Ni 1.7336951311591517 0.7316195502457389 12.098212446724135 -0.7539497767948434 -0.6281456991131247 0.07339265395953812
P 7.2554157269767545 2.5852918719839715 13.033900605387547 -2.255430057121748 0.18443834238515977 0.3259328342189419
P 4.728361050224227 6.5762860229815985 8.102451656270334 -0.12059193735316005 -0.4218429525547058 0.7338771744146845
P 5.647340824392962 2.646826039406673 5.144191202172506 0.15370723184989013 1.9376381068423854 -0.9254958365983674
Ni 6.815363074251579 6.544508426607108 10.066056579581232 0.7945948040097154 -2.885180381717831 -2.242727779063731
