# total energy = -340866.59034607076 ev
CRYSTAL
PRIMVEC
9.30650618951158 0.00000000000000 0.00000000000000

0.00000000000000 9.30650618951158 0.00000000000000

0.00000000000000 0.00000000000000 13.62101252441067

PRIMCOORD
 96 1
Ni 0.7027789551965383 8.949499325910203 10.522381703416551 -2.3596196418574844 -1.0924712463120734 0.8055934691130643
Ni 0.943996150971805 7.293453078254804 5.559307561130189 0.06428477812099898 -1.154068193188264 0.060667750193701964
Ni 6.024576101975166 9.232221678083759 4.501485393997078 1.3033952936925874 -0.13675697714879675 -0.7397822270452097
Ni 7.381520546526253 0.8820864797066499 11.318326230986736 0.5182413233807979 -1.7213725926442998 -0.701844571459172
Ni 9.016766752800834 2.0196142192809354 1.6296455508370076 -0.30542134452915143 0.993860955436327 1.1049673218965552
Ni 8.192759386403033 4.648702223791601 2.8189779572329163 1.204308577401055 -0.017686104425853413 0.009993363767286016
Ni 0.28761571313911943 6.8807653668494195 1.7402747821149533 0.5689517052514718 0.5273170604298208 0.9260118570028374
Ni 8.303618488384382 2.991548501897133 4.983860223907863 -0.7714535900065617 -2.2887240432881875 -0.7551898198495317
Ni 6.59134233020419 2.6387574644635388 3.09905260838954 -0.8325669123781145 -0.5799025478360206 -0.5749973972249194
Ni 6.086324770682876 2.566790251936527 10.65871457419771 -1.5887774601826765 1.3726484715624554 0.6583569325891822
Ni 0.6327344668526478 8.170675047165144 7.899955296051472 0.6721694129922423 -0.0012528985704946165 -0.1448397541569312
Ni 1.9400901237108694 5.402361709743046 0.3117307320321744 -0.3607591978695077 1.0958126519804805 -1.0993679734319066
Ni 1.0998522104816815 8.170675047165144 13.036303554871576 -1.9105497352660257 0.27858416973164923 0.4798372696813027
Ni 6.738878373161739 4.070442460392415 1.0064046509698512 0.5376377256295386 0.2652509429578529 0.0005910966167796272
Ni 3.703924326298101 2.2080523570343225 12.16770499461603 0.693888806947205 -0.747230712903455 -0.7879482452274752
Ni 5.630855050227102 7.485250864750238 6.436691463248595 0.7093933303407073 -0.6554004210640196 0.22131053282116078
Ni 3.529092300624695 6.716635823318269 6.380518322411689 -1.8353367402682974 -0.9302870873394237 -0.7822069718683238
Ni 3.6667169144678935 2.533631170307955 6.727131701022648 -1.107132190758358 0.4135454884326039 0.4854173348722414
Ni 4.276209312710046 5.016448816705722 0.900665058054985 0.7606541853982126 1.1932682604264933 0.6116369028248241
Ni 7.583360053222988 8.48555137829652 6.499443373325813 0.9344936692216035 -0.6250045823809817 -0.07035540979511108
Ni 9.066454189459533 1.654613045698959 12.918127677707407 1.0784150253293234 -0.3928378235716073 -0.24097818645341723
Ni 7.321772776653834 7.820620122557481 1.2317821731745795 -0.7697299224472356 2.1834142289050784 3.732793904016423
Ni 3.157567266189047 8.775932985081447 12.069660951686757 -0.4755563829177616 -0.4389744700286698 -0.35287336736352776
Ni 0.8099610565740565 0.25254135253239446 5.718087724891454 0.9336341494347856 -0.494541922881329 -0.3420760196377076
P 2.5095831582596166 8.545503891305573 6.990004206099494 -0.09847582218041104 0.0848309777034668 0.8534841221467561
P 4.543250201918644 7.519908293878727 4.55176100184829 -0.39370814199170256 -0.05347611754126919 -0.38749892785719714
P 7.7831893545782185 6.400503113848454 6.991243832726752 -0.6244600227314213 -0.6484252752977671 -1.3486081427838
P 3.119559494824723 7.133343945406657 10.151863632952896 0.37927114063076617 1.7413816887763751 2.2213120323921163
P 0.054836726545055565 3.64556322585107 8.852582300883041 0.1901454200722661 0.17681630706352774 -1.1651067103906128
P 0.5279143567513943 9.369045932392842 1.4982432670462538 -0.3881895261663185 -1.399945873825828 -0.15410858105336683
P 4.3907910171756575 3.520027763575514 2.832285330463535 0.5643946820084086 -1.1984174087276007 -0.3001788651832895
P 8.886354681270895 7.120426514786264 11.536684786207386 0.08790447442246796 -0.049639517403998384 0.27335197479843243
Ni 2.060283651421507 3.2873930278277155 10.380396991413658 -0.9035818101340954 -0.758037830821288 -0.32275469360127645
Ni 4.864250214136634 6.0417745254524595 11.236450381297237 -0.9937470555662822 -0.6028902669804455 -0.09784230236147021
Ni 2.6690315291668067 0.0934168480413351 9.636688952553271 0.6315248999980027 0.04409184811289181 -0.28258532047124235
Ni 5.204412322642366 9.144517163554525 0.12929249883279764 -0.4149829922100789 -1.8241645257015615 -1.3209021922280992
Ni 4.538243301577311 4.639321265531259 5.385408047379091 0.518017894516082 -0.6634222629272316 1.6306705008720368
Ni 2.4922079111643196 3.927755107170618 1.9590418929582516 -0.048912923650618986 -0.8666512556563332 1.0497904196140952
Ni 2.3111405263297726 8.623734382512358 3.6110937881480374 -0.45300035199411665 -0.32103616824827297 0.6323970181903108
Ni 6.1588224540638965 0.18519016708586813 9.217992960738286 0.24725862014549027 -0.670359099256381 1.2141561596190962
Ni 2.6225641436569957 8.892636572963088 1.0670253711248303 0.41101860824569214 0.3022097795703892 0.25228384127422354
Ni 8.53159066452064 1.148627609531736 6.962107953733049 -1.5290311933619793 2.8115470725023965 0.6461192528724099
Ni 1.0098769084370476 1.6650363326548947 8.270079701302416 1.131808096238483 0.16742303877408585 1.4490248907406658
Ni 8.102188467960916 7.130226265826087 8.935847611949791 0.29052462992297706 0.8121934909280851 1.6198512987693459
Ni 7.896886940953818 4.002290915411772 7.11306972162674 -1.4647060489213484 -0.27900223110567435 1.4115554330402982
Ni 4.07079610762842 0.9798820389200993 3.6042693271437622 0.40614353954157795 1.6625316112466915 -1.1277928044315029
Ni 3.9998991433156332 4.4177240461493 9.579671711603059 0.2565464732053195 -1.1274459626150455 0.17930024982764606
Ni 4.29199314724332 1.734704838147875 1.0235388595542922 -0.5397558004138059 1.5387584479520726 1.057091581261199
Ni 6.41077749670502 4.563026527616291 9.46248976930219 1.8793758807663827 -1.7729522644938047 0.4947679228492059
Ni 8.72754845929224 5.299143249360645 5.281424592186175 -0.20508404365996935 0.25483514694116755 0.02448358696366106
Ni 1.855196174057254 2.9666442912774147 13.377373047732846 0.09467547459771436 -0.5957318015587935 -0.053039287114166715
Ni 7.920088060936987 8.7689065728924 13.040934472361998 0.9823642676506373 -0.45873339782315187 -1.6346410554840105
Ni 7.099775377504816 6.668939978988651 3.691539227832959 -1.0349147880538434 -0.7596730524318658 0.23000034728567484
Ni 7.489699374718932 5.169754893513878 11.641798051254275 -1.4364581098192488 0.30988632227904045 -0.4836808117971089
Ni 5.101184555753756 5.314703727744864 7.782665398278558 -0.1489064680271371 0.6492493138609593 -1.7717996389466
Ni 0.9568763555673547 3.160731478300671 3.6138727109025397 -1.7023040060486232 -0.136607596055126 -0.4240538441630955
P 1.9573816122502705 1.688004789982797 4.79892784704403 1.6801760638013323 0.6969551045773545 -1.044859557971381
P 6.1444345954622195 6.249849391310334 1.7587174854726129 -0.7548342362823258 -2.1763629784852516 0.19740441562752453
P 8.657535613069465 0.22984929843894897 8.905159407720149 -1.0073283937951427 -1.1027826555404103 0.8700991049956176
P 4.833780712802942 0.39384575893128737 11.254388672018278 2.060902705931702 1.1744097329590937 -1.2097354048435809
P 6.138608722574348 6.58510697104305 9.49531660865904 -1.6630352903559875 1.7716494865219812 -0.015400136605154123
P 6.709516346067116 4.366482422953421 4.556106209598046 -0.47668072633019193 0.6988672339984028 0.08862258353541512
P 1.7026346177459502 1.1755606385053783 11.68422734371928 -0.23074288187865422 1.354812728932615 0.4584274365469589
P 7.17586537228315 2.632159151560183 12.523308458226486 0.05857975731642169 2.4951386328341223 -0.12186720452115787
Ni 7.7119945820666915 2.067924293020457 9.105524763833113 -2.2479049523892964 1.2689471393170468 -3.0143379492528153
Ni 3.979657492307453 0.11207825429494497 5.710078545646563 -2.162451767720799 -0.7288933480468479 -0.4221170321516989
Ni 9.178029892419103 2.4634415004671784 10.593402444261937 1.2480659249926633 -0.9243216137846081 2.489905923680273
Ni 0.37405454282370376 5.555490962933199 7.672934244849942 0.7740244360575315 -0.26848230541095697 -0.2475928635564575
Ni 4.197029557869774 8.028080759005453 8.499444130767788 1.0046035386648118 -0.557465044768111 -1.0590096242195182
Ni 0.27061365694286976 5.352404384404237 10.216890053148001 0.32984451056852226 0.5884368105592769 -0.921180239942149
Ni 4.629512207985226 5.633591163053034 3.4005675885542765 0.2218196112470954 1.0738808849043957 -1.1367063048710488
Ni 5.426819208064652 0.8199776492085868 7.128135093880552 1.5039261707642355 0.3942563011856887 1.2310992152313376
Ni 2.619595368175796 5.995818997784235 8.581687587452608 -1.2549536532514323 -0.2651157029315692 -1.483078637891265
Ni 0.11132721924374493 4.155848267887616 12.169271279611284 0.5720246877498406 -0.22511859371334134 2.2520002055045927
Ni 5.689197537661712 2.507321677250427 5.507192987651751 1.1788793386946728 0.10097159201907126 -0.415551206008723
Ni 6.139799955369313 6.614227028976196 13.1552286057857 -1.7722776070242834 -0.5547581873599092 1.0744177312444723
Ni 5.362315813518586 3.9420405942039767 12.83735464900387 -0.2756672531951704 -0.43939330273364324 -2.132123291940586
Ni 6.235982697056455 7.951758101571854 11.288305303252397 0.6728343002697509 0.8544626840099414 -0.5401792611044698
Ni 8.362416994623315 6.396268653522604 13.570615203992176 1.7765070717245985 -2.287024029877945 -1.8559150786402812
Ni 2.2796845353377515 4.580318016155692 4.659298611763056 0.46104096291040597 1.596588214476347 0.8623587989285665
Ni 4.4555363808832 8.003855923339113 2.3259788198320446 1.5101227864932507 0.24542285248833215 0.49789798383775546
Ni 4.122903235901889 1.9302624531524153 9.607459077846837 0.22837592430837445 -0.03537118041044231 -1.1614488019230513
Ni 1.8960145102971966 6.324524797144648 11.775923418762266 0.4773546124687649 -0.3292791249833555 -0.6501926516108351
Ni 2.0318708879603706 1.4296003385376883 2.412621462002642 0.04877588385212245 0.6815788792316003 -0.034358937095844054
Ni 6.920587906924822 1.3420168085891933 0.5519884270171225 0.8933202803070873 1.2736167768785742 0.2052491084829239
Ni 8.665697419016212 8.325321260867634 3.3863332873050758 1.0461731345764822 1.5089678469532013 0.6143846407732902
Ni 0.8503066222984976 3.1540401003352083 6.377207998152557 1.3416198843914249 0.19087998424544544 -0.08790627419468086
Ni 2.5579769905550345 6.50949160808146 2.2894331005934148 -0.059987436297225714 -0.31765953846655615 0.6516144716590262
P 8.037312813166425 0.699377427176543 4.978398235412828 -0.29790703842997723 0.379864551240391 -1.9826326692752048
P 3.7225466452256266 7.3904082599574314 0.005568082665836218 0.20097619213918289 -1.9103702722653684 0.6871692288351843
P 0.7261652746532988 6.020453319723845 3.7635269146736343 0.6843214749737441 0.6760834033346679 -1.1842948532832893
P 0.3936540449033478 4.083090002332698 1.007915096927841 -1.0014238553852497 -0.023142756665050467 0.1710567788719312
P 3.3125950466461753 4.373648432735627 11.641129844108349 0.6667639257059549 0.3559154966239612 1.8945980970327756
P 5.707503435378074 2.9200745341992858 7.996637797122127 -0.29817160494527356 -0.20484570239691818 -0.14929907547986546
P 5.979402320828635 0.5215207869846727 2.200297245408982 -1.2472064052058456 -0.6447881927658121 1.1443658782988355
P 2.5384798600437075 4.4346711939589065 7.089737379906002 0.7562185182243621 0.19713342135432502 -1.3906505645668308
