# total energy = -340873.40793257987 ev
CRYSTAL
PRIMVEC
9.23562118142031 0.00000000000000 0.00000000000000

0.00000000000000 9.23562118142031 0.00000000000000

0.00000000000000 0.00000000000000 13.51726514990346

PRIMCOORD
 96 1
Ni 8.593893423151389 3.655126442447079 8.544250111345763 -0.7207591489754878 0.1547539279468496 0.8953627646584128
Ni 7.741602579395151 3.1098830656297123 6.310075730932018 -0.03595070706299614 -0.44989085983085747 -0.24048350620518585
Ni 3.71739300149484 7.363542420003262 5.557488037309289 -0.906566346683716 -3.625372185496634 2.160537581417221
Ni 1.5621222284036482 0.7680019456326258 6.437651986257776 -1.2437086764652323 0.8893458690403715 0.8946796225484592
Ni 3.9666901282192875 1.2384506430598565 8.749469311681699 -0.8755210473421373 -0.4426424057985603 -1.2610322553453444
Ni 1.8184107204794975 2.540248412863794 8.835060432413696 -0.37547053593775337 0.06308561560657523 -0.4718259693410519
Ni 3.926478232922053 5.287568691703538 13.413898625533083 0.5044776939378021 -0.17313808688099214 -1.7593035633621186
Ni 5.598144165992787 -0.46867084032003786 6.93726308161577 0.8553605132338624 1.9225074218485343 0.24876065861231353
Ni 2.683335894223475 9.130270603486132 11.896640274893647 -0.9154924455287523 1.141009303121777 0.03355855268173576
Ni 3.0678609885506094 6.767253764061455 1.5582432674425002 0.39127973505586805 -0.12558167725826758 -0.740500336158157
Ni 5.236357171395048 3.0819637823307833 9.403799229910017 -1.635397731144377 0.4903803353044716 1.1789616139958343
Ni 0.7988322967766834 7.334616453978702 5.453121821963201 0.5742157818638886 0.36052059949614035 -0.9427602801057698
Ni 3.285830887703118 4.044906605314436 10.451617412972121 -0.5610920999977369 0.4572542421744641 0.6159918373594101
Ni 1.113501922004211 2.3767686795940786 1.030111649836598 0.2550457202900769 0.5348588773328208 0.08585633364418763
Ni 2.3525344092082396 9.049809870406317 0.8027269582941028 -1.5393505730101167 0.18116224273704928 0.3682326234284174
Ni 4.491356540699897 2.166713707926579 11.628159839092056 2.259157128264348 -0.9203400034290408 -1.2321947622883618
Ni 5.060363171214963 3.341641747436969 4.254518267157804 -0.2835227446838472 1.1899530800103313 1.1830365553961562
Ni 5.266234406417224 5.620171122879306 9.577401204164062 0.2677287150743841 0.3765797098415321 -0.21944571169828014
Ni 6.826795814815077 4.11421070782028 1.6780061871179444 0.675699794743004 1.8838002350863232 -1.5718117788626156
Ni 5.969222195654608 7.29195711902741 11.287389424406669 -0.3039082503187347 1.4432332237595533 -2.0249530273099707
Ni 6.3185595726913295 -0.021307501984439352 1.6145971817109115 0.5436217111271153 0.5121884323184986 0.09470247118090787
Ni 8.100304876466643 3.960936336126917 12.712893724196551 0.7875114148003728 0.9559477253303214 -0.3843565255734735
Ni 7.739506093351864 8.998247396487058 8.56209240820491 0.8930639413219071 -0.21410835864576674 0.40491043846542524
Ni 0.7369850349375796 3.828072687586263 10.957676819146958 -0.15648248060218212 0.17790516925233232 0.689082129587181
P 0.5211420993787669 8.557532781951295 13.049973584596044 -0.37388236551502707 0.1346849251111164 -0.7711247459122332
P 3.9385584256296284 6.197572933188856 11.176210091200966 -0.14071236225211894 0.505883058925761 1.6806049238086345
P 2.294248402956323 1.821513889248416 10.809879170905884 -0.046116077631772195 -0.09800479608126346 -0.16918912953557314
P 9.36427354127805 7.655591237892362 9.86154802443802 -0.00242429317077647 1.2554874142677153 0.19363260728991813
P 7.921697195448449 2.2354267306669144 2.08584937819438 1.8302315578312478 -0.9987326817063317 -1.8153541264987831
P 4.088517209263342 6.021662053600796 3.7503521633568613 -1.6995570394311053 -0.873266961200638 0.46983387861168757
P 0.1717594677974994 5.6387439573861355 6.791465868956088 -0.079812698553269 1.5391379427786784 0.9260277978424374
P 7.753581180268029 4.4221170875434055 10.38488266032197 1.0655026881430296 2.231888265246066 0.1856992113754544
Ni 9.120924154694032 4.549891908727887 1.897594167128532 -1.009542627837642 -0.30522285536510013 0.016167353788481834
Ni 0.4953710216026065 7.120673285728718 1.2426085197853538 0.1487709708905373 0.030258284663909178 0.8621520822343991
Ni 2.737770646378251 2.8826683095198007 12.69014361815942 -1.8701983280321723 0.667125937031064 1.7199255757851284
Ni 0.18440580409297544 1.8636929718902322 4.627176511630227 0.34216626535866873 0.6918764045028665 0.3860182295466126
Ni 1.3756365623857905 4.927582643266333 8.743318387871877 -0.09658606135686591 0.40409539876329764 0.15371674493158688
Ni 0.9664985371980381 3.687728185763394 6.784166957414194 0.30953176715309916 -1.0466112505551652 -1.724978050607371
Ni 8.772658109732294 6.431372687311384 11.563020078246645 -0.3901481925545861 -0.8961752332573791 -0.06739349895330975
Ni 1.942103397033438 6.832605020635463 12.408552294309148 0.04002924800774397 -0.3974812358808897 1.800121882930061
Ni 9.303687865313455 1.4170675596993854 10.433138781802919 -0.1100684121140169 0.6046828401044941 -1.0441612463527759
Ni 4.445972697454465 1.1171961705386375 3.5220180499410185 -2.1749920662796542 -1.054752648715377 -0.9882477230146076
Ni 6.755155100111208 2.237421624875505 13.53429695595645 -0.8211720402776117 -1.3338132438628125 -0.6117320336417916
Ni 2.1216069333212295 6.781725982695072 10.141071492671147 -1.199539695257502 -0.268424455589828 -0.5790491986967898
Ni 2.7978021850626846 6.491413461617153 7.807139471958013 0.8330507939930686 0.24515442931829393 -1.073405487929874
Ni 8.386858499660782 5.591762351649566 4.617754330743171 -0.42146371483841605 0.8803048418840258 1.7693933434979527
Ni 1.5338150490086038 5.8797659673934675 3.558000954228468 -0.2701612357752767 1.365961546460583 -0.2500456959723242
Ni 4.354706287411455 1.0079664769969774 0.27200567246556756 0.3123548384241911 1.4977228701670011 0.16640873857695856
Ni 1.6907467267510483 0.09351713096261001 9.294958356026605 0.7276000831567211 -0.507186608228533 -0.011883124590831148
Ni 6.391659515566297 5.954011127314107 12.933724818838975 -0.4797632219102576 -2.854208101706033 0.7796764921369862
Ni 6.233287080895427 5.519567499665532 3.7078803115186916 -0.4433548584845526 -0.09525757235342949 -0.851782823184933
Ni 3.79363305562407 8.348844682241532 10.049032061122308 1.3760636678915916 -0.6921862224338015 -0.6258098518910964
Ni 6.382821025947681 1.464695658929481 4.9383301358151135 0.01002524544648596 -1.3663369275221309 0.5247595841152899
Ni 3.808271515441736 0.24914012116173376 5.506987659843676 0.08262677096329642 1.8160048727089046 0.6707640480042835
Ni 2.847369764773354 7.939327996579001 3.4849000877913667 -1.6602073339888892 1.8553388944218367 -0.4074427179689757
Ni 2.5124122501568893 3.763903590543272 3.7709790000488326 0.7061303433187194 -1.7683116803979997 -0.6480007861658388
P 6.401319975483823 4.904234992528756 5.727603564508968 0.19780396505878836 -0.4087400966241605 0.6040994567971983
P 5.9627018469913455 7.768062634522981 8.957418561684575 -0.23736655784275892 -0.4683418674471934 0.31155933910608924
P 0.38411872698834776 8.455109741334315 3.455770014535279 0.7869727686880833 -0.41356168638252 -0.17404568629692607
P 4.255718897931493 8.643978197656878 1.717517098755771 -0.08623711402237406 -0.17804478015399014 1.3230894296874052
P 5.591577639222844 3.9156817915801914 12.520407674996653 0.2906074194447705 -0.6716811605019142 0.5219182580117527
P 3.5565638915485756 2.7319614405578654 1.8657608275073776 -0.4530247774741488 -0.5131847347934968 -0.6487206950509989
P 0.39137146042356086 4.093624507862187 4.005652443949751 0.6322376097943112 -1.5566522975133579 -0.003949728676367391
P 6.840187465752375 8.400231679355407 4.932490452444319 1.3918268442631192 0.6845662439946983 1.0752463977933546
Ni 7.582999254190878 3.1931976057023697 3.908746763518939 -0.16064021152429753 1.56240745482958 0.024768979414563796
Ni 5.856519908490588 2.2016151209555748 2.3394327567808957 -0.8188341361730542 0.29353436328357835 -0.5374955436247194
Ni 6.629033455145882 1.8416567793823773 8.268524330606027 1.0910980201136307 -0.16239473232155904 -1.5531977633058542
Ni 5.642207315387161 6.896330807854323 1.5931178971696212 -0.1022777124250045 -0.8590657299995914 0.11451976301715115
Ni 5.123045333222847 7.934396174785541 3.9443787141956173 0.9983115350085129 0.879067627042815 -1.8963675302283727
Ni 8.919643023295794 9.557020958561761 1.475179936270184 0.10882014152921259 -0.017138716562815647 0.7408469208642983
Ni 2.023718582780259 4.774686932047749 1.4794643410079853 2.3963884739464016 -1.1119599511643043 0.038519239121120756
Ni 5.717653106081491 0.4787062664638079 10.009629206254113 1.261509452092079 -0.1807146136766694 1.424399893103134
Ni 7.9275895218608605 -0.4086106712094629 11.15386635250262 0.13936176176149548 0.3342806919630049 0.3616045765889385
Ni 7.596954278029675 7.448657906236452 3.0903848218650087 0.8161195654553686 0.8005988441119503 -0.7115885382198132
Ni 7.022009142995518 2.5788810169125607 10.787210338336507 -0.11702633148908878 -1.5743684838461982 1.2737625584278192
Ni 7.752435963222356 7.254442025160307 6.6034276949916375 0.03287232524798855 -0.6215454201877877 -1.506996325049127
Ni 6.201636606576725 4.334849701538912 7.854125695505251 0.5860230589114618 0.11297530134816673 -1.3990261902250358
Ni 4.489795720694102 7.909801715167596 13.065301945327516 -0.11668128944484421 -0.6128723178938219 0.00021288734175447206
Ni 0.5739273695629221 7.910309674341081 7.708395902881323 0.8239547452290712 -0.6494228633243462 0.18590952761404758
Ni 5.544282022360847 6.5803802019474835 7.075896222805066 -0.7627501486952928 -2.411362321647415 0.4018821931620627
Ni 4.650754129339071 4.652693609819646 2.128009989593524 -1.8643282424046408 -0.3928434799985621 0.136607596055126
Ni 1.7363706961512175 1.0289221018085124 3.015025846011239 -0.2604591779961643 -1.0323298009354867 -2.087358586130386
Ni 3.3434796360828463 2.7778440073554447 6.5830160482767965 -1.0996176275488674 -0.11246185204685792 0.76753934255382
Ni 7.487706113245342 7.861444001851951 13.413250284915293 1.0083879454079083 1.632818143342659 -0.0992137287877001
Ni 7.945368092932788 6.44995475743955 8.76887981704371 -0.6615142472712414 -1.6192257493702047 0.9051895209408475
Ni 8.313564608737758 0.30588193152626 6.124551493095246 0.15728569322976785 0.5942040520603573 0.3290965766589042
Ni 3.2995734922511852 4.843944856446913 5.6751424646337085 0.2079582798839709 1.7998192640879778 0.17274393676636704
Ni -0.21902091286055322 1.4887729237526068 12.758622056117819 -0.01641186569912012 -0.4593098391519122 0.062062059438067314
P 2.5253605912700547 1.7245029227343718 4.7303125422143495 0.02113318243418941 1.6032591987386193 1.0621003473297
P 9.098601657924759 1.6864613984511132 7.756017537176484 0.013070460030712973 -0.5473516104831928 0.22135218469237364
P 5.989402028273914 0.3181662314653622 12.334598980022728 0.030820584925282404 -0.0708014961935942 -0.41223114049655457
P 2.8718441613139305 8.57733395409582 7.2355080778592376 -0.15463411453953368 -0.7081005796712128 1.9060916994946724
P 1.1003411616003158 4.392008961987828 13.20246200491371 -1.051821076890879 -0.21112973563341703 -1.4748621635187438
P 7.702055648834113 6.115966983063372 1.1843936278177247 -0.02387294996285566 -0.35062673742119616 0.44158491106832337
P 3.612550228087812 4.477826355442559 8.367484936784116 0.07756298328714384 -0.3361095176416276 -1.2919124898639687
P 5.076137612456964 1.7042307339017055 6.6639579572282175 1.9690500454947637 0.0007623320873212677 0.7199515654725278
