# total energy = -340867.0302363226 ev
CRYSTAL
PRIMVEC
9.26884847731883 0.00000000000000 0.00000000000000

0.00000000000000 9.26884847731883 0.00000000000000

0.00000000000000 0.00000000000000 13.56589665611655

PRIMCOORD
 96 1
Ni 3.9972001296956376 2.7924630247209246 1.9166439806490998 1.209751345683181 -0.2911856605457437 1.0836292225404112
Ni 6.196549547029625 1.733960540526704 1.1299523287621678 -1.6010395653794813 -0.32398573779490014 0.3543625503145445
Ni 5.80395820534372 4.091362360316733 0.49305360854611474 0.27510880958853906 1.760927729229103 0.6299572984005667
Ni 5.184873284815695 4.272605421401967 9.10974395623279 0.9411669674767209 -0.2752335080918615 3.1222810874937132
Ni 2.7448118752354387 3.1198943623447866 6.940312527677104 -0.4500885776639603 -0.1923992491034493 0.9388434615498669
Ni 8.184207736373143 4.397438271289251 0.27913600317645404 -0.22609972667968806 0.9960049983625232 0.5971615920267844
Ni 9.081803012812445 1.7484199439885517 11.402380624901465 0.010339177142478968 1.0856627080306722 -0.34256478634866805
Ni 0.2790683405833313 6.089809489166398 9.059726469757683 1.2768771927974008 1.3526838555150704 0.2982518233639057
Ni 2.3992414013456567 0.14990415785135472 1.852111477621907 -1.3413653451784577 3.389993861728497 -0.7599183356734527
Ni 5.6922778512976935 6.223494089249876 10.332804647556046 -0.20298602348036007 1.1547508210775854 -1.0827380781847096
Ni 0.49546536289276394 3.9540629093677926 7.985009062219773 -0.1473509506145591 -0.970790960990741 -0.17798795877412574
Ni 0.5346976174010728 1.0591049593384643 7.550927574561901 0.6938067887563599 -0.5469458904043418 -0.400873035171258
Ni 5.4513990197807125 8.367573363735788 8.773459014643059 -0.6834131042268617 0.999291125312963 1.6167058111618287
Ni 4.330832326881023 2.6003197979490666 13.045250631157879 0.5729256022975552 -1.4322893231535396 0.24554292300596423
Ni 1.5502241592291384 7.085506256785311 11.112571542823524 0.22178027336872774 -0.08456563985722211 -0.2573692262169309
Ni 4.47745623929318 6.443110182599244 12.39927029330598 1.0242953606667842 -0.44621778185464445 -0.30433273945066297
Ni 2.9487636148344722 5.688514698858265 4.2404415906628925 0.3123417257980685 0.14114687868637626 -1.3145708506934328
Ni 4.988966905604409 4.553099310865063 3.13598786377479 -0.9923139226641815 0.5879963805877486 -0.44945171541090984
Ni 6.9393735933369225 5.48222720946924 12.075981204020003 0.31953927198777227 0.4741281351116673 0.7397503453660098
Ni 6.337426773450535 3.8644238767527113 4.880155260129819 -1.2080970979092098 -0.8972615243430225 -0.3462754024310359
Ni 5.899038051953741 8.218344904930824 1.7718284205545107 1.6163579409041067 -0.9111290263537342 -0.01180084928967
Ni 8.882930602121803 6.699217731993032 13.246853644579199 -1.132933725202494 -0.932255266809388 -1.1525301592771828
Ni 7.345451109405512 6.987302808273597 8.456098280776438 -0.43757399013671733 -0.3993118613317252 -0.19085761564794226
Ni 1.3863509199948667 3.710690757638478 2.4042975581331167 1.9870253990262616 0.16365123043647944 -0.05367152138152692
P 6.911650467853341 4.957656735800485 7.396954392274808 -0.7655644782156363 1.1327930858595718 0.7641593703379936
P 1.3116347332602816 0.25673597731347525 3.6467032628956173 1.1220636152572097 -0.690679813091604 0.3137231795266275
P 0.4831238912841422 2.6164939383599153 6.148091080850853 0.05613001022434849 0.45512536875691945 -1.303150524671633
P 6.91142801549239 8.677551459873332 10.401705558821424 -0.10366405124956986 0.009196836007919646 0.618187045238516
P 8.655825279287068 2.450173723155177 9.218772492759307 -1.480661029588708 -0.252064783284882 0.7679836291800902
P 6.393484768410314 6.304930191054871 0.9194502940179499 0.42750015084048315 -1.2129174021159883 -2.448639203721002
P 8.576066839037583 6.566691737956176 11.025885565300074 -0.08898768018431771 -0.3679374607855018 -0.42860392542762316
P 5.525040020104031 1.697941795749307 3.274318937547643 -0.5589686258968309 0.4837515171340442 0.14785257284132602
Ni 3.9510783401916933 2.1750001526581717 9.574687928318172 -0.1550668312015781 -0.09000223749176113 0.10011027246004049
Ni 1.18683895876649 4.2264743630496495 -0.03410287381870224 -0.24070539240800481 1.1565063703161114 0.15717616423509706
Ni 2.1739064285501604 6.719275519872158 13.48117754652681 -0.9243167286886017 -1.1141255913570554 0.7027002345912479
Ni 6.309369969425528 1.5228810565288498 10.030162844905718 1.8712558227624094 0.45112344668637794 0.051234886915576275
Ni 3.8133247156724766 7.944190907754847 1.1011985073395119 -0.1507095826741469 -2.24720869765322 -0.7829613335358451
Ni 7.2670737275635995 3.2085694347290783 11.912295195522866 -0.6229073335323209 -0.3482800915658905 0.26575359362588424
Ni 8.078394563347212 2.106892654813521 4.663765652899085 -1.1362378498750625 1.8116887618320539 -0.9607412900642227
Ni 7.493567306405718 3.011680557590255 6.699681174411681 1.184564047784276 -0.21640229688626603 1.8666473774561207
Ni 3.5516743949516485 4.73220126797614 13.439028385435526 -0.7834107623684379 -0.9854665607250449 0.5750663027896419
Ni 4.752462970519472 1.558297326162003 5.371104840095267 -0.022008900170923384 0.5747582846309198 -0.21352934621384514
Ni 6.542472237157582 7.845876233062657 12.560513960256838 -0.2528273724825194 0.08690457240304388 0.5384789905839114
Ni 8.802514073637836 8.786423352862345 11.799494237708545 -0.13728868128255067 -1.7563187697021818 0.4198241223524641
Ni 2.241652441308265 5.623521534066935 7.431846045090051 -0.4193618380040649 -0.8666795377911073 -0.4580394570799209
Ni 7.151120434417631 5.882530233001464 5.403974957080363 1.426921373973407 -1.447413837499804 -1.2787394428171204
Ni 5.005131777166884 6.103610804393763 5.472482869174727 -1.4790579467676463 0.1967850368759708 -0.6006937735497591
Ni 3.401861998699186 8.360445619336968 12.416172965198944 -1.0499927654328887 1.1547145685230114 -0.9996539079690203
Ni 7.186295713993087 3.3327256586851344 2.681760534178248 -0.13254293906744916 0.42568623756019597 -0.05963930892918761
Ni 2.472539454279176 7.808152020184632 8.015287609199783 -0.9735201869964459 0.3264817647438764 -0.5942199928999572
Ni 7.680019460276568 4.772752479607924 9.475520519575667 -0.9482138470211735 -1.0727755676553588 -0.15394017379630262
Ni 5.637054052691485 1.667780963143633 7.814241653565679 -1.189551216586222 -0.5534728928895823 -0.4892171682343058
Ni 7.158275985361571 0.22928350220238558 3.220760750994058 -0.08240334209858066 0.22065027352934258 2.162531214808482
Ni 8.917883429336309 5.78529074472054 6.613985109894464 1.9239922339241768 1.1238106798553034 1.477599874164881
Ni 5.032150470174118 3.841817155571015 7.037268389197816 0.24938955044556407 0.0063593665591245305 -2.1175919310936306
Ni 9.250273600839714 0.4056279769225007 5.1675210737766415 0.4287805602148035 -2.2145816556468185 1.4084356564643936
P 5.245157874633552 3.1136564273897713 11.16912820182577 -0.005485705704919585 0.25568078277091455 -0.5731114930561162
P 3.1875013423772964 7.093273551721867 6.077603342744021 -0.1369598371882222 0.744081368641196 -0.2690908855292333
P 0.6574134623199678 8.025256255624923 0.8278481193174713 0.438183084475626 1.1969112564957194 1.6090547223744738
P 3.964397675303664 4.09004618384777 5.186526847365435 -0.3197616724112235 -1.5560164637015719 -0.25673442084640946
P 3.6127839122746996 6.78579804464503 10.022715325238027 0.3414206454418959 -0.628178352123273 -0.06479848453262388
P 2.3139772651626216 2.442675224821437 0.8769674543852372 -1.5380981886602543 -1.2443864192585472 -1.9106723768868188
P 8.184059434799174 2.380230993332676 0.6495423562816339 -0.538150403599899 -0.7298261442737624 -2.823466706758118
P 1.7662995525000285 0.33423281855995407 11.593319828269673 -0.5014499628550719 0.09534344719901645 -0.8501224047633745
Ni 4.973784531969469 8.555452920256077 6.5540508825451065 -1.3169856307825125 0.24854442883644934 -0.8409746768258356
Ni 0.20370982265649878 5.962789191063091 1.9270352865600466 0.6430928073412602 0.6646234823241844 -0.7060550099960937
Ni 0.8665891248620123 0.7876315131119521 13.572136463150205 -0.3294213069881746 0.904738549446358 0.17044459920922903
Ni 2.476450908292573 0.08660626542744271 6.04904694779171 0.3109818693360644 -0.09416279662735395 -0.46153795715148255
Ni 9.247891506807859 4.287806332733654 11.110821584250706 1.520228507468685 0.27818384896943704 0.5548923989449283
Ni 8.490830509399666 7.491713536731123 3.8909837617654826 0.47623104038728303 0.5513298784046504 -0.7156575660828642
Ni 4.2097718982815415 8.918485904480553 3.2120786207230885 0.6634173778312251 0.7158935933530703 2.117239689960534
Ni 2.148787849459387 7.376752010361063 2.7036832143500185 -0.4882514618869269 -0.8910176003158398 -0.3477884966414526
Ni 4.700752065446621 6.294030025368247 7.874392771966965 -0.2804767587686718 -0.10861445327630972 0.2968842535924177
Ni 1.4441607272971377 2.022861275464092 9.54577839024285 2.201681145535066 1.5637364580536488 0.4433435456306429
Ni 1.2726221504584123 4.5088312910357145 5.375310116602088 -1.0231553335250703 -0.22875027692865765 -0.5228135161325125
Ni 6.8722485934198065 0.9633577556455895 12.469514260700604 0.16551039513240529 -0.324389400991222 0.005421171015571309
Ni 2.099866867746803 2.629581552262562 12.113789763418222 -0.25908980845246343 -4.050075747428586 0.19334592928743474
Ni 1.286581036108119 7.24604271060531 4.827763094701554 0.13112677544621287 0.665332335465751 1.7398048312075585
Ni 2.396330982956541 2.2729811488089346 4.804742055997586 -0.5540128245534524 -0.40125407265976054 -1.5238568482498915
Ni 7.644325125192226 0.25359939902405915 8.30346815461859 -0.12090406927694015 0.4953186531463534 -0.18486823083372678
Ni 0.4848423357724925 0.040287976337991235 9.65080556492675 -0.1185941901968409 -2.572595172450389 0.2137491755341351
Ni 8.897380736735277 1.7564653043762977 2.3926039790257665 2.546124636963686 -1.1170507354236505 2.224143074083008
Ni 3.0925976038863627 8.861121001900184 9.83619736254373 0.16266881191855212 2.0899957666429168 1.5069269052637726
Ni 2.8366105495214247 4.2890483584156325 9.33086809121244 -0.8858576533814551 0.7196736292207928 -0.03139856891593947
Ni 4.62576708210922 0.7721988805709418 11.42940302544805 0.11198105575569746 0.096314295752718 0.37728599187993733
Ni 7.890589157613909 0.03991073420921098 1.100922295657997 1.8295191051452557 -0.9656145589961241 -2.123934071261574
Ni 7.189595424013866 8.00891527594336 5.977174443737955 1.2678292236625197 2.146973726689857 1.1942031135359368
Ni 7.095071708306226 5.799611115456793 2.868332256193108 0.5971934737059844 -0.8605256023745695 -0.26380084077488763
P 2.198802555279982 4.445172840410094 11.412921159271216 0.06147327681413284 3.52964204438216 -0.5121316109386341
P 9.107653830924683 4.569264182427538 3.418809161064341 -2.1086658322485943 -0.08964433993171013 2.0976933923974905
P 3.203833053210486 1.0828424800216638 7.891634683710381 0.10759423954191148 -0.9030321082782125 -0.26136163520577566
P 6.297858059746288 7.395892182251265 4.0456354237534775 -1.1298607427041252 1.3640111076024317 -0.18881410285535222
P 3.1918298945674777 5.542678638557811 1.8865545181758974 -0.2912615080890016 -0.03283041626645959 0.5681060694217249
P 4.9960112303678725 0.12803338323047309 0.1172629814210713 0.48373557629444425 1.0941118672392898 -1.6354882339756545
P 9.11682072196556 7.992620640503663 7.633028252795238 0.9509736691544977 -0.16060678718320082 -0.2890598724519925
P 6.769077042180175 0.9809222233123849 6.124256237259737 -0.09520435051799088 -1.0445443407238075 -0.18464763018248845
