# total energy = -381174.99414319353 ev
CRYSTAL
PRIMVEC
9.18436722249758 0.00000000000000 0.00000000000000
0.00000000000000 9.18436722249758 0.00000000000000
0.00000000000000 0.00000000000000 13.44224980019910
PRIMCOORD
 96 1
Ni 6.218946372033288 9.049145907904236 4.804179078195824 0.48303109402825195 -1.0508250315261967 -0.7344865258639092
Ni 6.65547935210152 1.6632613736885504 10.228396632953869 -1.1562423180214474 0.16117242987868372 2.2622933599004846
Ni 2.7996523300702574 2.8558790269770054 3.6016221025629576 -1.287214570167667 -1.2554992413422572 1.0542947352423522
Ni 0.9899554033792264 3.963118801394972 10.043269177186158 0.06200343828598999 -0.23802038937667397 -0.0328026483523177
Ni 6.112297498383964 2.938069930377607 2.7699234514003046 -0.11707415400788869 0.28837158813571623 -2.7375242411580274
Ni 8.595777982486435 8.495677562756503 5.033504464954118 0.217789921262412 -0.18123140541208788 0.5464398973022008
Ni 8.460225904791777 0.21393238708241866 2.6096654255385205 0.679840813494571 0.4232526884180388 -0.46964644519122983
Ni 2.1578946616025996 2.0728566043240013 11.71614382817825 -1.5298148656055395 -0.2996016525235808 -0.3687165050433715
Ni 3.895007533139428 7.723162056350039 10.211513010457352 0.07387396447133085 0.0996425887950026 -0.7562794533692847
Ni 7.11327414258124 8.196965199117976 0.7151315792138206 2.9847671775742337 0.4073928385676468 0.2553514244559538
Ni 6.669825333899682 6.430949123535813 10.037596911911802 -1.906627003172852 -0.3081251166135597 0.7519036928990922
Ni 5.885682418430175 2.0477006221568037 12.461449727878419 -0.8322540091233861 3.407262676111274 -2.244555833411405
Ni 7.321786834491383 5.97927112171011 7.881231447472705 1.117579611343927 0.69134752858259 -0.0847769845370798
Ni 9.409200661062558 0.8844380437872231 10.121207718504461 1.2218956943551988 -0.42534942304606743 0.8349217857635363
Ni 7.858411049922199 4.225993763640143 6.323839194645601 0.8295867467038681 -0.7138601078628093 -1.1957912839586633
Ni 1.7178073313705455 6.580121618008109 11.338685617331496 -0.030566559932947355 -2.830121235960158 0.5740879980367726
Ni 4.128428229298362 0.8755347180797091 11.343874784883326 0.3546911372985569 0.032401556259157104 -1.1221631169495514
Ni 8.744316755611694 4.506273102010483 0.7641834483480183 1.2419695822869385 -1.4263562454985566 0.1582639979826371
Ni 8.764494810676071 1.8193956186109141 6.232646692806857 0.5577535225428072 -0.30514109428457126 1.1595533846725514
Ni 3.308411174966106 7.264347801094649 12.885108980234437 2.10559053575738 -0.48473033610754584 1.6613761574860098
Ni 7.432357432998462 4.72086584510525 3.248844123654755 1.4081618339777169 0.6655202831068409 0.24705627432669705
Ni 5.8533350766292 3.850711329418218 4.926463418819019 -0.054913364208428 0.6371008514238834 -2.110138560139379
Ni 4.912534407298474 4.74227460539431 13.49588410388909 0.16439402213977494 0.04653233923358437 0.7664278546571962
Ni 5.038516374216125 1.816125983834893 4.34999282564728 -2.344108947816395 -0.6221807397789413 0.42368951884514133
P 9.158008214084518 8.203835105894559 11.5307886001003 0.8005667053224341 -0.5816763519069917 -0.5030954688782948
Ni 2.1876244587092875 0.8938134459764437 5.990633102556784 0.9446410420682505 -0.3660908944950663 0.9610253969635448
P 5.897603727248366 8.450554765973939 10.565743037843333 0.2869492538668929 0.5305340247052217 0.1803304908643733
Ni 0.07331329392166344 6.061406918906622 4.605798580344406 -0.3229177015417019 -0.5605881637781248 -0.1334500242627508
P 9.404241102694437 3.8600793841135603 3.9824142387571717 0.9007147729989455 0.32609069995304485 0.8118798163424081
P 8.913896914332078 7.190101375450391 6.820597745164065 -0.024032872579487642 0.2734982705683096 -0.0636304323664517
P 0.5737318148284536 4.439015979918338 12.196919742637073 -0.5590845826494049 -0.4343390281391875 -0.29561592840295536
Ni 0.8578391975095963 5.160686828684201 6.953004177041903 0.22275395013590668 1.0318070956627972 0.2717406644472546
Ni 6.140410846837339 6.684373371779506 12.378981456583897 -1.0424146959753144 2.55145196271387 -0.5517970478490561
Ni 1.6792789103441152 5.665230048967146 0.3365455280566859 -0.3527594674934828 1.7017180516381663 1.6132420209829441
Ni 1.918136751973287 7.294573554038149 5.6036571318269095 -0.4212042905294423 1.0851811404085634 -0.09730879845550339
Ni 6.754073535586319 1.4878032198652067 0.8518555821821303 2.2460928388812222 -0.6875155564310095 2.155068073662217
Ni 1.071613613473623 8.094752374897917 3.3154234394365902 0.8083262946631949 -0.3017621505100093 0.2723057929221052
Ni 0.7869909877842365 1.1212367502568894 4.288131519372304 -0.22518955616059283 1.039780600786577 -0.7247770118856293
Ni 7.818964192160932 1.4994857351323387 8.51774851593138 1.122092668722932 1.147015657216857 -2.4738750954696553
Ni 1.46953551320929 1.3201885157573747 2.02803229948026 1.3924055995847247 -1.3761783390925848 0.28733723333393096
Ni 5.360529477817479 5.906126820147657 2.8275369877766563 0.4697338626987136 -1.4645001035581293 1.372901725223842
Ni 3.3668053825670707 3.5127817172021323 10.059091086817201 -1.112181323146491 -0.48848363250239096 0.13415013565356898
Ni 7.431402258794231 4.041709432795011 9.721072386237836 0.017189367295092975 0.008681844044714079 -0.2704216885255149
Ni 3.477706618298691 5.072581192711246 4.9771675556391894 0.14919263180898823 -0.47181105694271647 0.46013901992142686
Ni 3.283549092554057 0.3083789102726915 3.7863858573836744 -1.0507949496192097 1.179393045106298 0.5526707087032611
Ni 0.4870065892679591 8.640560957677108 0.5260640298536559 0.03428797464859256 -0.42361804217725757 -0.7985093085727732
Ni 8.90609020208596 5.938299658969012 10.46748041001981 -1.546688758542743 -0.32319126691806277 -0.5957744818712707
Ni 8.475563798263563 2.5717606230550447 11.546717966829318 0.3447630795515675 0.8138114861474824 0.07045773970093026
Ni 0.8803326315824997 7.155173226424523 8.88630891169103 0.1315047276109219 0.13712387356991224 -1.2231197965702871
Ni 9.208522234500577 6.4239138981469575 2.029067377680422 -0.015601711092998937 0.3635768698239609 -0.3409979560821805
Ni 1.7316940948012876 3.3884437520398403 1.0840088356469888 0.013609877473950755 1.1542594832634636 0.8124986808733297
Ni 5.461667731057777 -0.08612824168285016 13.034304435625105 -2.1306029986413177 -1.1668977408527645 -0.5309191759587825
Ni 6.720376091785133 6.343247599726185 5.33622396806674 -0.4018022318537467 0.35302891910478557 0.07781520850726599
Ni 4.723667077146504 5.207600577099697 8.993093713977109 -0.040830660863116784 2.0236291662922246 0.22734594038196332
Ni 7.443149064632801 1.9140772616053054 4.3542268189948805 1.012259769658489 -0.2194562532212414 -0.5434633311723802
Ni 5.077228482589523 0.7906959615725706 8.808464050919678 -0.7856113695641824 -1.7059516301035396 -0.4916378618606565
P 6.874498960258204 3.608400165666058 0.4794405074463683 -1.4864701800713176 -0.9758665757414356 1.9548945799299882
Ni 4.285407436016777 5.65814890174155 11.350057700982253 0.6850586102500847 -0.20243632162447717 -0.9118396792675134
P 2.5835717194650543 0.6433777908679111 9.618494024197313 -0.1470943545190628 0.8391242538806579 0.973464394057846
Ni 4.508679406255757 0.18605415843316314 6.329606058903646 -0.2798751206289309 0.2581055901623232 0.13096248195420673
P 6.408778060756837 0.13768836153988895 2.5820544619791024 -1.2153041571806102 0.24604660211526017 0.9247882690083815
P 2.5337189734980776 5.975193262607432 9.510270949984477 1.7550108495240353 -1.750050420194967 -0.5791492146097639
P 2.670804840539913 0.6619375604055061 13.592803058769542 -1.204898388466254 -0.20449217571224138 -1.7199335462049283
Ni 1.443405988103165 2.1042304031860484 8.229600930053689 0.058911172513911446 1.0878998248913072 0.5518939784382366
Ni 7.465880373820028 0.19824365077792558 11.900666034137705 0.5903116589844866 0.24110854138369442 0.3766085061969385
Ni 7.295253197221929 8.901213303023972 7.070569589721504 -0.1136828689381526 -0.3102748159667108 -0.12245958668951813
Ni 2.8850393933080936 8.512484955004028 8.00084038188732 0.5119138385008732 0.5039629590849127 -0.6455088729819206
Ni 5.1117892569214565 7.822013402120592 1.709302607205951 -0.9258334224434444 -0.09644439357267906 -0.367226036540774
Ni 8.66173092441511 6.40198162891904 12.738830479913615 0.6422893376033584 1.5979444713939255 0.6818043649788451
Ni 3.5971309469296027 2.5076170014939985 13.589980702683388 1.6856172894215615 0.5522691023894682 -0.18124297537631368
Ni 7.406429963974001 7.2890813023638215 3.1893487104087206 -0.6424392329176614 0.1040412320833305 0.10639816235128127
Ni 0.2444290788626957 1.906610370951077 0.10752138854741856 -0.5526344561486869 -0.5050849885044979 -0.4165315676441213
Ni 2.774248369984654 4.3520675742312775 12.35955743807882 -0.4738931362827259 -0.9727087468387441 -0.935870494964472
Ni 2.739246746019999 8.449553669932966 1.6430190280527333 -0.15749240992393523 -2.2293613850591543 0.5452438201115707
Ni 2.1397187986201667 8.630935740696012 11.576815138629941 -1.1250026432808753 4.392222215292914 0.20831129234801543
Ni 7.107873734580395 4.667633251954071 12.174283032433534 -0.017249788219383194 -1.0923318925207317 -2.2723088351549574
Ni 1.5303727625249217 3.188105147069751 5.8056544335401155 -0.11961517526218755 0.41583634134930963 -0.7630905627538471
Ni 8.777582534147506 2.610931949795861 2.3786730761064963 -0.6844741985015244 0.8177817836491399 -0.16624161687147498
Ni 0.6655240558550463 9.28144611124667 7.716967200573561 -1.488849221826455 -1.9136402012658913 -0.9382060850761842
Ni 4.046512856918211 3.9876410622151313 2.271659583073443 0.5008359834201569 0.3792081486033147 -1.1431158079418184
Ni 5.30159339254296 7.5954166909015 7.831037961477104 0.1100784394163459 -0.5568392382586539 0.6108624865526447
Ni 5.654622104679773 4.710570169307721 6.868156236167415 -1.8793565974926727 0.704173990923297 1.6102957938704268
Ni 2.9658434572390915 6.257943195794485 7.371273124201159 0.296222965859335 -0.8665568961703142 0.9302791169196236
Ni 4.439392538979621 0.9028462712635699 1.6918816992195544 0.6474387430147818 1.313909305850034 0.865786850773509
Ni 3.074007751500896 3.7558919209136015 7.745048403741214 0.04760937434784704 0.460982855978961 -1.001072899803734
Ni 6.979834469376709 5.9871788619970605 0.8782927835944259 -1.0022576641404546 -1.2371533918452176 2.5016196125727754
Ni 6.303809926332265 2.0299196869703513 6.413498825573901 0.09849767655728198 -0.5440053197187793 1.579820508099705
Ni 3.536266144511926 7.318829468205206 3.7720968186630732 0.27649026331709803 -1.6141905009391424 0.27086623226210127
P 4.515383994420071 6.746266823340201 5.999625516627577 0.7302838006364714 0.39205800798278934 -1.384246717923016
Ni 7.959788096713555 8.25800450451527 9.396630017472837 -0.1984282289063486 0.4404106882545641 0.2166357530533108
P 4.25363870935875 2.7321655987944027 6.3326975169531075 -0.142408004786987 -0.24269774024768526 -0.676929296274731
Ni 2.0515121346063796 5.215159311427408 2.9620264341691067 -0.5881169653260129 0.492772489685732 0.059065181593272474
P 8.971519635075778 3.7092628878859046 8.143247671370803 -0.49096680393556086 -1.0248211512632672 0.15849642570841735
P 5.253127486045589 3.6463407871821922 10.875143249765163 1.848159088843946 -0.10157657259292183 0.46210848494297185
P 3.6414363350181604 6.131896938305395 1.5059891856517227 -0.76677958156966 -0.3305559348132501 -0.1539185765297478
Ni 5.406781951783892 3.047905779496816 8.697054919673693 0.108912958353335 -0.3362481001020209 -0.8026081612324951
