# total energy = -381171.1691721633 ev
CRYSTAL
PRIMVEC
9.21927313151705 0.00000000000000 0.00000000000000
0.00000000000000 9.21927313151705 0.00000000000000
0.00000000000000 0.00000000000000 13.49333812638204
PRIMCOORD
 96 1
Ni 8.040469040053772 1.4214920360892507 4.47909986027638 0.6222321618421671 -0.02007465926268801 1.9039990786317016
Ni 5.296564494111925 4.318040084022378 5.848809084142122 0.4451080937302334 0.1586794882535009 0.7151405172371297
Ni 2.8497417992401437 3.8691905618898947 5.370874599753064 0.11022704917906823 2.306889401343305 -0.7810494612251129
Ni 0.6341725808978483 4.871758835794943 4.752407972227949 0.8491302160534343 -0.08649036768376073 1.7909882960599093
Ni 4.134936104252563 6.322503624908192 6.625579847240849 -0.8352380314523744 -0.3645760005124366 -0.5029975098478499
Ni 8.09656831586563 8.13611899675846 5.231029292450693 -0.19072803204861347 0.9754379728444491 0.05413843371561645
Ni 7.683166898169729 4.030573934623928 3.6778519275341868 0.6904237312167399 -0.7557508345593242 0.23433291322275773
Ni 6.564583293645709 3.2710625723875473 13.629080740285744 1.3928236609587497 1.4137089890481909 0.36882269160393255
Ni 5.770693262633253 7.307656692238286 4.891996061815422 -0.8227684382304539 -0.6243718338929891 0.6589266890497232
Ni 5.154661445090375 7.049913478783538 2.54460045976996 0.6232017248442879 -0.8030637607126749 -1.049287768946064
Ni 3.7376776334665314 5.7850845476854005 3.9195849516093335 0.930785624242397 -1.0631812390987043 -0.1919521342637017
Ni 4.4142431971031915 0.5794239285710243 13.204000347635287 -0.4676561542340784 -2.5748433450546173 -0.9685209340096416
Ni 2.40513314265794 0.23823799770533935 1.1362173078675426 -1.265660498145975 -0.23694026893861775 -0.09506448250601693
Ni 6.886188410723916 0.8011087217208678 0.631314606287877 0.6036212316091991 0.2407760977449402 -0.6126951688860093
Ni 6.213448845355443 8.82206978024335 6.885865736171177 0.5724630608388399 0.5997085268183543 -0.32004835041370683
Ni 8.097527120250913 0.7765264523659392 11.725089757777123 0.028635404348505523 -1.7525145654647432 0.2602249504981712
Ni 0.5403821515442273 7.212108147535886 3.734321818118049 0.4203967070264824 0.6267740155765786 -0.23373950261313295
Ni 8.720012428848563 1.6362181220274605 2.251808336396733 -1.8894378929880749 -0.8047776580799882 -1.3618878906118417
Ni 4.919505450327337 2.8052680265998142 9.50246687371196 0.9546542033298784 -0.6822131703814895 1.0312954461337014
Ni 1.034319449894538 2.677433588077671 6.449505563084269 -0.28753700804956284 0.5088231153906915 -1.1033925212102673
Ni 5.043338724395519 7.875711413425385 8.704484407443482 -0.7768583059619008 1.3332715124267298 0.6246759953969693
Ni 3.2505035937416236 2.102943814381669 11.950901097492848 -0.14537608627637544 0.4392518920597726 -0.523268344281744
Ni 0.4867693136430436 5.1899620411599905 2.5759727236418044 -1.0515855638413052 0.4761919596192315 -1.3168599038379256
Ni 3.8467969479298283 3.0607617374583262 7.417247111548582 -0.005250449765661925 0.020686067594441793 -1.9687944778405322
P 3.0733829221068776 3.4798698851012357 0.5700405525773826 -0.4658661522131912 0.10657813957257127 -0.09115460592864946
Ni 5.78332366655474 5.95179666017609 12.47312035942706 -0.30492075074364905 -1.066261420685925 -0.3966176023290137
P 1.8240331502672615 0.5358600981694177 9.58877033151475 -1.2791449057856552 -4.312651200436806 1.5838324574725755
Ni 7.557388357512178 6.550947988974265 3.2959499996766377 -0.2189947402037906 -1.1371801591836739 -0.6917625046328216
P 1.1350400067136932 4.411431318857897 9.665628644195229 0.23648801189254756 -1.1129336279314834 -0.2377733063628744
P 0.8733113015689755 9.14677257302785 5.421528972969281 -0.07424985975351082 -0.2948307134974986 2.6380071221972954
P 6.639176430965964 4.464368384052916 11.078408467360536 -0.5304952010474864 -0.4932951949584214 -0.39109975783457807
Ni 6.492424044380399 2.0019190215556457 2.961746746132218 -0.5937677358538871 -1.6953329740474288 -1.3087362462895267
Ni 0.10291382185048478 5.1666372806334495 0.2531713760060869 -0.17989314621663854 -0.38035151817913854 -1.7322046502627972
Ni 6.728843079535585 5.677569386712861 1.0315656530687365 0.845966473613472 -0.3610474185338879 0.8080460444186149
Ni 2.941611854041323 5.879001281078236 12.567155099513469 0.40017575199391725 -1.01470900252993 -0.6547147078509047
Ni 2.15379732389329 0.8230487474525131 7.30946274780633 1.1866042181427565 -0.09328502200809097 -1.7080195683761619
Ni 7.256277684169348 2.203028241368282 10.14261815310841 0.8267821873755373 1.439173966088515 -1.167768316383176
Ni 8.49329206882141 0.9798704239381143 6.939812311752622 -0.489577379787202 0.43216104665126215 -0.5029553437560048
Ni 9.122147895017418 4.589713618882503 7.330526020681819 -1.3165930233297842 -1.2708839513284436 -1.2198089870294992
Ni 3.5037201441850945 8.458323366577469 3.658786471103797 -0.5871800553340404 0.5622634945980187 -0.8644141387956985
Ni 4.866457753857094 2.2431873942748486 1.0102451624783495 -1.304473614358431 1.1917592799811347 1.8785924656331388
Ni 0.5774049077981736 5.909019233755871 11.16274176653703 0.619664658225307 0.5534986039211951 0.07174097728872807
Ni 2.0404648016985187 5.0204011733322655 7.272828122942963 2.25287438057943 -0.06786555349372184 0.48081120355879775
Ni 7.808512132999315 5.778216189348534 5.581397619160028 -1.4975927723470401 -1.1841143618413672 0.0772351676340799
Ni 6.45576821518928 2.5921829712441036 7.662650328179307 0.8701376715430369 -0.23712667391781095 0.414519422310099
Ni 4.8809688894573995 6.060934413185257 10.187847906129441 0.27817253611552734 -1.2568938076969385 -0.3316165148672805
Ni 1.57738072215379 0.40746236207092296 12.200730487059856 0.04890829566492867 -0.4285764146237974 0.8787169285716158
Ni 0.05223086888816853 2.585664945278782 8.634683448195045 -0.5908515906483566 0.4376015009405431 -0.009739852995583225
Ni 4.370986368490334 4.857173946011154 1.694142813880527 0.6972584947503863 0.6064484166453491 -1.8634209000990232
Ni 2.460209079173971 4.155144750526941 2.863488657114106 0.723828789039747 -0.8559222992746033 -0.4560645927417372
Ni 6.1220213156551635 7.807193776969553 11.182414773053864 -0.26520414888031746 2.6484802538144776 -0.5055243900347616
Ni 7.437510151533279 4.6764854157504105 8.734211031096361 -1.2933461369867016 -1.3291680317813173 1.8425751669982655
Ni 8.774387700621505 7.331866502966625 1.1507035514309236 -0.8608233361206465 0.9484015375519472 2.007242754514401
Ni 0.4770411368416182 6.656978847004206 6.578609495489614 1.225823054434063 1.4192977959898783 -2.6559284825624068
Ni 8.609233645256896 2.4949012032298503 13.137262030855986 1.2199341997534539 -0.4778870879334673 0.4398620148399457
Ni 0.7778826074147354 2.0952180636618105 10.775712079072816 0.04119164374696132 -0.5582613154171611 0.5924384755195022
P 4.056729011941634 7.703947139366101 11.927881494900468 0.9137569508948844 0.2771384384240582 -0.25347837580295696
Ni 1.7041088479236854 3.84695367556973 12.234206589015557 -0.21024604747688308 0.0937313655168902 1.105865151120476
P 8.028078337228605 7.456972036699891 7.639887021374531 -1.3496083019135403 0.6281760381304279 0.3189995974342184
Ni 4.69165111972913 3.9307199894606994 12.571459578047005 -0.8553152618182237 -0.03277256644533065 -0.8033707504301326
P 5.887234091809541 5.180715110405792 4.040552875649196 0.3262135986841543 1.5283308248608451 -1.3511183108001634
P 2.3951394507959756 6.959758208748342 2.432605654078114 -0.054181371138409914 -0.4448445556562016 0.12256268792628569
P 7.725861351133528 3.3184404160025256 5.969411924973743 0.5946182567796405 -0.42657481081273635 0.21976529982122794
Ni 1.0508219484488892 7.242061565302974 12.987890448829475 1.8543688171990838 1.431222572451922 -0.24904245151879045
Ni 2.7421897611758634 7.665014149759942 7.7903649161532895 -0.593077651765398 -0.26539261074203974 0.4098731817873392
Ni 3.4718214598286385 7.643136815084257 0.48809320123656585 0.7942998984771159 -1.0789328455060063 1.4733295289243011
Ni 6.013565788843215 7.8558438802496156 0.1446347195923067 -0.05736722506555926 0.8625449467974435 1.2263493592511783
Ni 2.4075209343482067 6.969318594782344 5.074263853529998 -1.3444889784091039 0.9288210443168585 2.522960797252713
Ni 2.6657804270873364 7.199357893066239 10.397871240943307 -0.47326218756694627 0.5649143019573045 -0.6524400528841151
Ni 8.079770800577347 7.238585899406331 12.45798046941256 -0.865523055589161 -0.28199602362667564 -0.948756864008837
Ni 1.0597830817420901 0.43243184088913805 3.5030323864241137 0.5581605281732388 -0.8550764063345402 -1.3669825315259296
Ni 4.1087441498431145 0.3331974308671681 10.58557748176247 -0.4388433437674442 -0.4945912880620257 -0.5155457788265057
Ni 3.255749360041862 4.06663973034718 10.464379997826518 -0.8236847793971362 1.4791124541546656 -0.192136739470682
Ni 3.026927005785438 1.7658226609531982 5.033001153653065 -0.26407157793777103 -1.5835347237264985 0.33151367074082905
Ni 5.537095324996297 1.955914849608041 5.57907712816219 -0.3771821193122214 -0.6509920075836789 -0.4891289793958738
Ni 3.8944605890058037 8.888725123566232 5.915020980436811 0.7563285614396652 -0.3471562623740924 0.691123842607558
Ni 0.6079234669962009 8.612211470415028 8.039856880330863 -0.8706122971866103 0.09246226899647947 1.0884330716869577
Ni 6.190916942301345 6.275236412568439 7.452667558166357 1.4426390418189798 -0.0706621424022525 0.13262984235430061
Ni 1.2359541682644912 2.3072244640840798 1.0839357329782295 1.9632678915953479 1.315043162344161 -0.5353846679293037
Ni 2.5728685944444583 2.2203881323056245 9.073730117415327 0.8732631045458961 3.4977210273038475 0.6544892221036599
Ni 0.9163265852309264 2.7140801979958535 3.693463844322979 -0.021544044719362897 0.7187657726945428 1.1710302749638994
Ni 5.851232830996835 1.7158081052786975 11.819057197171103 -0.3589072322624335 0.20511001180189836 0.26736156154295243
Ni 6.967290354736558 8.658446124186018 2.639742434535909 1.5200109921412401 0.6981612090703136 0.720058009143405
Ni 4.887108925232371 3.380015939938007 3.367721117551369 -1.5224010896399716 0.5537477438175238 1.334358317733005
Ni 8.728189923942256 3.949416674973674 11.395109853164406 -1.650455139698132 0.2674371519758943 -0.8690336398455808
Ni 7.397185051713875 0.017009558565797816 9.101418359822189 0.10650023514678435 -0.1427245075861413 0.08815335720848043
Ni 0.38118743420505646 8.31467787497113 10.559737703579156 -0.3892495919997167 -0.03272217282336945 -0.31084328687567114
Ni 0.6563781216900331 6.373292599509266 8.751037126130745 0.20798553357748054 -0.3664138250521238 2.3390153353435714
P 4.77505788197562 4.804209222997328 8.295231662568508 -0.16535381494988297 0.25201876053829503 0.12959491218271876
Ni 2.975723163902272 1.6451515975018551 2.788870627756926 1.2508360315386329 1.1327223805226363 -0.4165367098504439
P 0.1113715828414132 0.23070769557171136 0.41389833650712 -0.23940852797345222 0.20650740637005727 -0.06341086015647789
Ni 4.925470319916536 9.27200717658221 2.013043918206783 -1.0312964745749658 1.0958411912255708 -0.514416807428385
P 4.513903537534777 0.9774918515207831 7.752975232836515 0.5818740697400947 -0.684587584150937 0.21962980268462817
P 6.06783042934093 0.17587053822470755 4.565376582187656 0.3475714955346401 0.015391651964721878 -0.6194155183289783
P 8.31339639603311 3.765704223190122 1.5187830233764401 -0.6665592658943166 -0.2706955110121919 0.13360506178337636
Ni 7.6040747556570025 6.805980736186007 9.751972666798935 0.40450317572467753 0.1362602400180363 -0.08694211050919864
