# total energy = -381165.0880304654 ev
CRYSTAL
PRIMVEC
9.29820067801493 0.00000000000000 0.00000000000000

0.00000000000000 9.29820067801493 0.00000000000000

0.00000000000000 0.00000000000000 13.60885656880059

PRIMCOORD
 96 1
Ni 8.535069542217075 1.1133944553256403 8.573633829928783 0.11529315084806595 2.7022178525472498 -0.366924189029639
Ni 6.7221993372377415 2.536214436020836 1.9888665492366469 0.9297679816111601 -0.07737323587384094 1.572438099592705
Ni 6.460027268203546 7.670643710826021 5.501775152438459 0.941544662531114 -0.8275501758898135 -0.6005387360291335
Ni 4.970418311346035 0.9019236154739404 12.420531015485809 -0.24191715332791883 1.110035737558398 -0.8706251527024167
Ni 8.104088638124152 3.831239945273061 10.400664264867405 -1.1211079362121597 0.07614373434211404 -1.034588000842044
Ni 5.930941047740223 7.983081853246473 11.963464009120385 -0.8531092553058405 -2.4035798494885188 -0.5970929435723781
Ni 6.170220946467915 4.741236258659311 9.031272675641828 0.07994511036607523 -0.030656034322960105 0.09283147941044012
Ni 7.4417034113594305 2.831171960985468 6.969653284266185 0.18239817202667943 -0.47824087172846025 1.3286090739540537
Ni 7.129581407765307 0.1738744948406037 1.385994456528295 -0.4627736293307965 0.9550180144272006 1.0438038630133573
Ni 0.016718164992321063 4.691760532338877 1.288727837867743 0.9537031522705187 1.29015179841912 -1.3594908511345747
Ni 1.3433017676727652 3.6839285504046835 10.665968897742486 -0.20439575934369317 -1.3185434621879355 -0.11988488398380644
Ni 5.049731963951429 5.36559184425685 12.739931650646112 -0.3352060319907517 -0.3813617046112077 0.010218849514530788
Ni 3.3111171903562338 0.8877252628914741 3.236090938127903 -0.8057063405418446 -1.102575681735927 1.3028211663566724
Ni 5.085790386554445 6.42917583803418 7.566524318194757 1.038102955973838 0.5646700471569823 -0.19058070783747177
Ni 3.8135640656009797 7.754541376413181 3.0165260145021118 0.1366363924105324 0.12287327718816902 0.8567285972259826
Ni -0.10636955721866213 6.373498211797239 13.211600551507606 0.36125284967647464 0.7725409095334695 0.694038702261508
Ni 0.6442286301126043 6.1520801567571155 10.918126804542686 -1.6135441256043952 0.009025857647694133 -0.35480709405113087
Ni 4.907869314736835 6.0742170234725235 10.5305471122043 0.4913902646262247 0.8035376150253 -0.6971610499405735
Ni 9.10969835007327 8.568477977599393 9.839502971012807 0.0734348200513832 -0.7639696229246907 1.2765756023965822
Ni -0.007429262418723321 4.052788175124025 12.349873987801356 0.33078656276681745 -0.24031767005128288 2.8209475398806902
Ni 8.849330131989303 1.8012753486136894 11.26234991649025 -0.13306924388456437 -1.0698419389483316 0.5594712765648623
Ni 2.808205405072769 0.5982471676431794 11.423913593505585 -0.22077497203266497 -0.09279291286302083 0.8782122210210553
Ni 3.4350343120762905 7.588568492590638 11.968118688428037 1.0980127449555928 -0.33123856270257146 0.22408038225681406
Ni 2.5312770914096445 4.7503020044143245 1.7038562394604377 -0.07009984214087926 0.1561765193259891 -0.8032429666030166
P 6.597138536822437 5.1107374592320856 4.244126550659055 -0.9726208151106281 -0.649380697232501 -0.3892051119150265
Ni 2.195909585879591 5.603235259648253 12.676935410579661 0.3928303673724396 -0.32906958007571063 1.0303752483122772
P 6.380704317397377 2.3024483703523466 11.082045715814168 -0.0676117856117029 1.1754715985647046 1.1822374565336284
Ni 7.094090175409529 7.14834517692799 0.5828781715832198 0.055879327666123114 0.32466476613979567 -0.2580335992738072
P 9.575101193432918 3.099871366963274 8.849417535076581 -1.4832786697172133 -0.266110976965303 -0.4160577133314964
P 0.9811182511094226 4.9928362734130465 3.7902162834565316 -0.15472718847397224 0.37498716854343156 0.6496005265527909
P 4.076126659067699 6.267712581587207 0.7409708302494816 -0.6724738316065386 0.3665596066013687 0.3273988772415071
Ni 4.523100468492542 6.260831913014172 4.891894075986385 1.4536608468507803 1.0638456121555806 0.7195144779351093
Ni 2.83810841876315 7.315405950241134 7.364637133881202 -0.012962730808255093 0.23574239197577468 -0.7322288401779841
Ni 1.4269669782405654 6.637502026383987 5.6499345432174595 2.5447120728868753 -1.1614027791764643 -0.7097540561142358
Ni 2.340561695326498 3.332010247496248 8.482155341250277 2.082006063569221 -0.4493295880107488 1.2786394269041463
Ni 4.925145371775618 2.3562477600328635 5.8569794395005585 2.3899275488124063 -0.39028137569834076 0.12081176667345002
Ni 2.0335258075559564 2.3529283023564127 0.6578523538872143 1.1790945400292727 1.5457317939461124 -0.0009641636854822104
Ni 8.977254778243113 2.351356906425544 1.3264869013923908 0.36146033770159036 -1.1696562774345083 0.10707770491680914
Ni 8.508830019631795 3.9985331736055643 3.1856974793910378 -1.016870786067939 -0.8984347187155171 1.3982957398169142
Ni 2.286446166819652 7.338400400756157 1.4320596028046892 -0.6437085865483883 -0.6347678324153325 -2.408482171886142
Ni 4.848890827224992 5.1974524796538795 2.5341186215662925 1.1989095178726707 0.543896819165373 -0.16758450405261463
Ni 6.752409191553677 4.745652904027137 0.8020553602367192 0.12723309681876152 -0.3975429423567605 0.5615114469233426
Ni 7.970045775760804 8.974251459392992 3.739972525752134 0.9477870438963999 -0.1303626435866787 -0.7113903061660781
Ni 3.162727204198029 1.193647226209246 6.625281401106229 -1.148621568251396 0.6496830589642681 -0.19300551522888051
Ni 4.359684589882952 3.689581856475502 10.545162954001535 2.5346554599818214 1.902540234697988 0.23451263333373162
Ni 2.703777312175796 5.361575021522322 10.237085667744264 0.2625245451656253 1.1026862391718621 1.1977370948311243
Ni 3.0472528487811017 4.915131209541619 4.014462851172219 -0.6395775950991501 -0.6174756209937882 0.018013405858285102
Ni 7.854357561726065 0.8122071358421787 5.753947006539818 1.4238936428906768 1.121004834975392 -0.6069770354553095
Ni 4.096526911566672 4.364882284115826 6.489914474952609 -0.7274810410803535 1.8748849348745646 0.1573509992500645
Ni 5.040722007401063 2.687970370859363 0.6412169428817853 -2.201305250252886 0.19150579075490243 -1.3924796473557697
Ni 9.14095890107671 8.92141908259301 0.28289682874019423 0.15448087679112105 -0.2514238072667735 0.37053530341966506
Ni 4.509022992520142 2.824719009648054 2.9168000217367385 0.0034727890399488576 0.5195343311606084 0.8294540777807456
Ni 8.801063171769536 5.62660163819425 5.960978885341833 -1.7047455256105801 -1.203303018954676 0.16264875731389408
Ni 1.3623165882563564 1.078200765394642 9.760762087575115 -0.7542184570751979 1.2522645364550433 -0.6535633678552808
Ni 1.3193310060764338 0.2744735886586905 1.9724133829663955 -0.5165253691309556 0.7811515340206159 0.7357990740277457
Ni 0.5232171961345385 8.947844569193775 7.633820046299275 1.397948898000457 -0.7702490281754992 -1.610808471840787
P 2.184649464741826 7.940310129684361 10.175532508437996 -0.4465196293657794 -0.07901899900738003 -0.6143039081340259
Ni 4.953560673342099 8.532549729807219 0.45225332782453054 -0.12094417848625623 -1.1882180995970955 1.0861512176313164
P 7.3307665779203965 6.885094516603967 7.557691957279181 0.5112579500844291 -1.1119116144248722 -2.486008902618712
Ni 1.7947852044731778 4.3828928990157845 6.658609871961889 -1.5015545852082657 1.509547373605755 -1.2831010622199257
P 5.135201025469458 0.8025918664214006 8.35800204523055 -1.7739902188400158 -0.02878812787628591 -2.875495036109267
P 7.929347550971376 7.497985420646705 11.38548227006495 1.8451740380736932 -0.3869330280513981 2.3861446847312067
P 8.811914172073228 1.6893622040933465 3.5847632391460054 0.47016632225044186 0.38350986130246206 -0.3345910241145722
Ni 2.9685063864229444 9.301734090666377 8.528153540481096 -0.059458303266633074 -1.0091862729394876 0.5619395355996968
Ni 1.9941479272764902 2.6131942402318624 2.8666371583790786 -1.8692881575130775 1.4512542942918167 1.2444712656628696
Ni 1.1578770478302365 8.1859221031394 12.108983640699542 -0.40759132773169804 0.511869358416183 0.03615279577147323
Ni 8.415476083857099 5.15908810325882 8.397181873833523 0.09138651943379744 -0.8970913173137453 -0.2975141738669328
Ni 4.832088978425702 3.0170058016620693 8.18115491560238 1.0590661884890664 -0.4750138801507303 -0.5632351144826687
Ni 6.994134517085029 9.018371422067387 7.364596221797795 -1.0039427651523614 -0.600417894180553 1.9056787803269697
Ni 1.3118273580515156 7.720323997563491 3.499531281747723 -0.2588082726563027 -0.10259935743048137 1.3196492936576047
Ni 2.953210846149102 2.897923744344686 5.075069561061593 -1.7128416723551534 -0.6971294253716896 -0.5377022603188869
Ni 0.791589305445086 6.7357840085691 8.501534651304222 0.9734332837095947 0.10390162118167269 -0.20510358404399515
Ni 5.599292822519919 0.68594314824667 4.355922537849641 0.19226889417317208 -1.2338510669448621 0.017522068044163373
Ni 7.114369551298434 2.5805668537145907 13.27056788117852 0.588684922014341 0.21715691566410342 -1.506386202268954
Ni 6.378993448454893 4.670263092148528 6.224473158526144 0.07867729939724515 0.5859544104570553 0.8380937557336147
Ni 4.60567778956974 8.87357054140809 6.320592379211139 0.38163347021535565 -1.3222499645052452 0.16680443135348047
Ni 7.197904587055394 0.2253958253313996 12.749892813135695 1.4069415884173704 1.0342357597089478 -0.8217916761394815
Ni 6.1296343000877815 7.88909563981912 2.9538979831863283 -1.6795705690068494 0.7278474232808368 0.1404627081351581
Ni 9.228891985799947 3.160653705425344 5.470488566472852 0.26264101613883156 -0.017133060135860814 -1.443226538891334
Ni 6.930320965170513 2.531146916598803 4.478742471878322 -0.11714563067577244 2.063669984264194 -0.0347595149683724
Ni 1.4703709794553346 0.709607069217447 4.687448026819724 -1.6384300902127977 0.9717630950960231 0.5572881528706144
Ni 7.487236700551532 6.240124819889646 2.792387305915407 1.7683782719698768 -0.5942917266781571 -1.199981667890927
Ni 3.8178598343587398 1.8039718268382574 9.825662599160156 -0.43692041571311857 -1.6871951754316425 0.0053851755713133055
Ni 4.8348226494533675 8.748175005764908 10.046221500448727 -1.3910071765753012 -1.1167704851790703 0.572223434024208
Ni 3.1003920662066387 3.386488405833294 12.291165148111968 -0.43710862046452464 -0.5024352095864766 1.3035351617045614
Ni 9.045801114351786 7.945405543708717 5.570309400886124 -1.6164157907252354 1.3009846273685657 0.5022416055184318
Ni 1.0323978283800848 1.9891547934606526 7.033397099674893 -0.5887625693298119 -0.44436478780630567 0.41340227798652024
Ni 7.382380890418937 5.310146673039269 12.124593460159556 -0.7962426240257835 1.0217959912836982 -0.6321481354042985
P 9.370261830373499 7.215905903754578 1.9367585022769882 -1.4266110418218398 -0.20463744304085404 -2.25097896332893
Ni 7.042122531281564 7.273526853953363 9.567829070607281 -1.785025907828887 -0.3214449736509174 -0.24564756690462858
P 1.0142570386692848 1.3483599888940236 12.848380285557923 -0.8094079577631481 -1.0015495823298366 -1.1809986990305208
Ni 6.6617796286058715 0.7577187494842808 9.661499145208305 1.7908108899417803 -0.42554842643075097 1.8378600209107832
P 2.7414908145166494 8.358980215952014 5.039768012001613 1.8281337947619545 -0.34455636285740016 0.8550681788044242
P 5.026346989003884 0.4917000147897268 2.2992841926288277 1.8096624754306447 0.01943111214141815 -1.8648064675926401
P 3.31583137814884 5.485845474871805 8.340500971733027 0.3147289950833225 -0.83146210934971 -1.9543423069709438
Ni 2.7878795381799915 0.18523224708649924 0.12343733456009959 0.04022748006147911 -0.43083564297161925 0.08522924158315
