# total energy = -340863.41925234965 ev
CRYSTAL
PRIMVEC
9.31271743966879 0.00000000000000 0.00000000000000
0.00000000000000 9.31271743966879 0.00000000000000
0.00000000000000 0.00000000000000 13.63010331685887
PRIMCOORD
 96 1
Ni 0.4973102717942555 9.168621490880037 7.742444046302243 -0.5844037781404838 -0.2386978750596728 -0.12431335206880524
Ni 7.896429824601569 8.976649139270583 5.722162741547386 1.0781067500602852 -0.5752552788719963 1.3050685676299523
Ni 9.13598972993895 5.389958563617455 11.395365735150833 1.7828399559211618 -1.0683244738625406 1.5720046115997122
Ni 8.595647254675356 0.4068344307352019 9.79756329469423 -0.22532813862098613 0.7611586358384568 0.27291745836417514
Ni 1.2635122138820365 3.1255713852998657 12.1515909633413 0.35563884592380685 -0.9999917509244133 0.9611269555384157
Ni 0.6819386146485328 6.823520992905944 6.598918742898839 1.351315514412634 -0.38214074886907734 0.9133944253491431
Ni 0.3303453595840866 2.2829008600387293 4.141915704215794 -1.40462116781431 -1.2654201000003948 -2.639146378008061
Ni 3.815662352553372 0.5407997296763254 12.9521689382949 0.4039460176696269 -0.1163241632157416 1.1467006970795994
Ni 1.8470377586330207 0.40406017229217994 0.9060295964833603 1.3334491756551745 -1.1559304432079833 0.8282973384684831
Ni 1.6725360644223894 7.628800958755422 2.326317678726924 0.521467029406947 -0.671752637169798 -2.1465086141279808
Ni 0.01998229721783282 1.77776045565336 0.669864676845988 -1.778837519629988 -0.7474610837467063 -1.1858285163189966
Ni 5.631260378042242 1.3031657635644396 11.740902930243822 -2.7330998868380867 0.1764236996107994 -2.613109330514351
Ni 8.028186147031498 4.518548993189598 9.467646320099666 0.38894954426079464 0.2640522946640614 0.8041359107309312
Ni 7.509234983092582 1.7585762582964435 12.394833548022971 2.720586584862424 1.976222909094119 0.7393690507671912
Ni 8.087824787746884 6.355752522497908 0.012206178386267174 -0.7003317343590713 1.0974825834837358 -0.7985471037892441
Ni 7.769087730107164 0.6103787646920854 3.70815168925875 0.4072336872819632 0.0392373482340679 -1.817917002129953
Ni 4.213985891072804 3.670858913377307 2.0324800329673924 1.3057321693558803 0.6795150547240362 0.016708571003932516
Ni 7.590218371546827 7.4876760428589595 2.236113769009046 0.04330046255984801 1.8188482556949708 0.08106971088882167
Ni 5.308453663002051 4.3697224601988784 8.304712382855703 -0.19192848011461786 0.12437505854467613 -0.23407117492093882
Ni 7.1510865064167115 0.3713753288632626 7.918326816468229 0.04238720671695926 0.04238694960664313 -2.1903968308704984
Ni 6.800909715632841 4.506787031412032 12.62154326592419 1.3407593361633425 -0.1038460853533889 0.03767566017390286
Ni 1.9836646321394873 1.3863283278349559 10.009429472708462 -1.8532946102982986 -0.07751207544455038 -1.5061992830691286
Ni 7.770819895499585 5.198582225906469 7.372495425708436 -0.9120494812854744 1.1966616023787584 -1.3573046421165333
Ni 4.047297566562393 8.341875711968573 1.8820582315265568 -0.1465927322922959 -1.5484461075534817 -0.6455543815078753
P 7.934807532032566 5.709608267539203 3.3569719188363654 -1.419934915353245 -0.9100195953396393 0.3233699585877722
P 1.9739607808550665 5.131940421884092 5.8911345443063015 0.13204208817163066 2.448026509837668 1.400064144571247
P 7.407065163091256 3.2626825200988376 0.6497240634363748 -1.842272291045866 -1.8150399376924742 0.8579568132061289
P 0.4844065708924383 3.3002034575507873 1.9876774819652618 1.1873079290780004 1.3972976375697033 1.8564403550161317
P 6.395573701089255 0.12695096037353637 9.759207937784426 -2.5187506158261073 -0.04416383900140781 3.0266193377233295
P 8.12350180720045 7.480346934451243 7.4050033275112455 -0.2856603598521402 0.37373632685546604 0.733198403180105
P 7.490125287472973 2.95441295655095 4.770699191838206 -3.096937723632918 -1.1195763300589816 -3.9793069042451403
P 4.645257822916881 1.0165668928561369 1.3567744199164247 0.48989336836572406 1.5736557740498898 -0.5318314033604067
Ni 4.963762062627512 1.8648809247183857 8.248856567852153 0.663159239073832 -0.18653250591002715 -0.27564796992146073
Ni 3.723773772300608 4.813780752708513 4.495480461503764 0.3904358989983341 -0.20305210083160513 -1.8709038387396293
Ni 8.192974677240546 6.5389988581251135 5.237898655227551 -0.7617163081141398 -0.29027523291633234 -0.1686913639635482
Ni 0.5851804145909473 6.551561713578745 9.36126342685355 -0.4918242668398497 -0.39244058813318866 -0.7769680920668877
Ni 0.6195517910981838 4.473680321895606 7.9000757533711 1.1551549984945395 -0.0998945569048086 -1.077790504371447
Ni 1.4276022903038168 4.682369000813636 3.78328017243227 -1.1039676769874471 0.39866008668033925 -1.46753246262655
Ni 2.137277901752272 2.6655231574204135 0.6264776588527172 1.7587057818771195 1.3732210562364737 -0.8468180229804898
Ni 2.536644464594022 1.9413476453483085 7.286461750736397 -0.7834184756779218 -1.8789457352074994 1.3515829091414078
Ni 6.184435777557212 3.375589902989738 10.264666837096788 -0.5782747824246105 -0.6639531957300372 1.1644999300445493
Ni 2.3550464799047646 5.358444328735995 1.4183622123341408 0.09126053537889443 -0.516856012997497 -0.4191016423641427
Ni 3.4448206423835805 2.4691272651582725 11.157043058946666 1.5630605150325467 1.3020796602049576 0.4626067647356291
Ni 9.145730832092026 4.29130006896461 0.15429402923744043 1.368696943113875 -0.2414893217618809 -0.6571356585875714
Ni 3.872311611059257 6.279043671221732 6.404090180935323 0.31957758142487547 -0.13963841246164985 -0.006735776061936786
Ni 4.006843123203924 3.4326582337679823 6.3495968164528005 1.435241206693012 0.2939704223797324 -0.04926902143845708
Ni 0.15645830470624986 8.303125495851035 13.348832019344071 0.4813138542268292 1.5076709825186487 1.3419685259800953
Ni 2.9733177723929596 4.608155957737292 12.689721668278553 -1.0179840737367758 0.2723808691344148 -0.266370915494909
Ni 4.0860943462657495 0.3302615451296147 9.888217008651106 0.6007241125670622 -0.4350805342909023 0.8583360509224185
Ni 6.447017150700715 5.307382700528243 1.5933863499776475 0.06484682127205606 -0.5074653158112163 0.5729256022975552
Ni 2.5852568481877616 6.365819569751707 10.932133489273163 -1.8306609320591825 0.2028484694612313 0.46717021573659545
Ni 6.737508737183381 8.700368759179495 12.167755977793794 0.3543602363216994 -1.5442248703832826 -0.30546042529720296
Ni 6.0677381187807455 7.49483752235773 6.319937674830321 0.31343701574477634 -1.2507211032273233 0.8572605584700526
Ni 0.39406297041710714 8.285915594532792 4.074500944668844 -2.485750763861319 0.9668800559721089 0.6344518438368105
Ni 4.02259092792749 7.837089190835418 4.533072175606157 1.615711051348727 -0.37289531901140943 0.29656800790357957
Ni 5.931800386344381 1.8004089837951174 5.707306163856373 -1.3135285254718474 -0.8987504501837231 -0.46482845497729625
P 4.586634268372324 8.929834110089407 6.699113335589774 -0.44635533587377324 1.1822575111382865 0.6125419311375967
P 0.02902215176849243 9.14033876885433 2.042088894536745 -0.8957399454921735 0.09408103554682506 -0.5556891838146107
P 0.122214512424154 0.7660296568202554 11.806845349207213 0.8279217002966193 0.3741716146206717 0.6528627422438305
P 0.853398775433548 0.6703163436284203 5.447870626570717 0.7556179085258857 -0.9098303621469686 1.4387595042589156
P 6.179080965188169 8.613071348488361 4.427711818704599 0.23435913847500284 -0.7432146497655264 -0.7513928147009445
P 7.383876497354012 2.525152571614199 8.554865934944447 0.3529343025084502 0.05744950036672041 -0.3632629381279679
P 6.204402243155866 7.581427166544434 0.4153062095388849 0.39225109783020184 0.23698860567804994 0.3913501832824873
P 7.582432939998098 6.485981559313014 10.64888626547202 -1.214503772766502 -1.460414106414214 0.1453974264326141
Ni 4.614134722156292 5.761200720625279 10.119656655599693 1.836573955109508 0.4977041226593945 0.5997393800562897
Ni 8.273371364513487 1.948211117897846 6.312591803531711 1.540797075648656 -1.533753281427997 2.9043559262050174
Ni 7.334705350730459 0.4740033345490347 0.6268715867887353 -0.6282688549545502 -1.335805334592177 1.799617689600133
Ni 5.8771161111600065 5.864311125060123 4.358852656725581 0.26763692669152617 0.6165587656064736 -0.7312032271269472
Ni 1.707170059553638 3.201497968334303 5.556706489517713 2.543324191400413 -2.458547206863334 0.9286333537860845
Ni 3.023774073985083 5.682191628209706 8.517724025081055 -1.8350156094834524 -1.242794649291395 -0.15658969560400773
Ni 9.017774098264827 2.705064954496854 10.688713031693666 -1.9199833698750997 -0.08621011743918056 -0.048439069337993995
Ni 2.5234855952419233 8.546261915557041 6.810431037660856 -0.02130338946346654 -0.1630994716980675 -0.5763737087471558
Ni 1.6019549810398315 3.9340921767222587 10.042319195914978 0.6909068415007455 1.1458470908300524 -0.8198605205550396
Ni 6.559673090228198 2.2169481970864564 2.5951311221962756 -0.9251045146972197 1.1053799839539415 -0.8392929182480384
Ni 0.36891677153208496 2.1306379344146595 8.578186841265412 -0.7247541290674938 1.1622923808702692 -1.9647799573645002
Ni 2.7393264409415603 7.375131855937438 13.494129032529804 -0.3281257281052027 1.6641928009991984 -0.47022417207157075
Ni 8.862745295643181 7.962196233210571 11.176575551925499 1.603296479734458 -0.5042714914642671 0.17619667120165783
Ni 4.275244944574647 7.635189482729618 8.564393775874477 -0.95465343199893 0.8083268088838272 -0.8895402444393647
Ni 2.412403504915079 0.12428286690617882 3.6583472778680752 -1.2492979976275518 0.9364430796384904 0.5317529847139874
Ni 8.966693844622746 3.9804415700452553 5.512845454220817 0.397659927550599 4.918086859546923 1.304640221843282
Ni 2.3217255778935764 9.046671459623326 11.459767830695375 -1.744752662131137 -1.4096952399031077 0.4491169577793104
Ni 6.463677601706308 7.3271247989593284 9.150460761139394 0.44948873929643235 -0.028191117722235322 -1.3914789740053972
Ni 4.5049617388479755 6.064785987439899 0.18182521498804824 2.1365211638979655 -0.5118649875408088 -0.06241327212989896
Ni 2.0099637454093573 6.90206444946334 4.452872917937083 0.490904840349374 -1.3840901377404937 1.244071716231606
Ni 4.591281314236936 0.5196263359332743 3.5839805749585336 2.1959743249582764 1.9080737629217073 -0.3954755183047705
Ni 0.14157099504859616 5.761824672675236 2.009608930885426 0.03651917797195646 -0.02581593262183941 -0.5054814526119681
Ni 2.3909470045702563 2.6586503721537125 2.8713444507237855 -0.6086163708309453 -1.117827722798991 1.1365540955639006
Ni 4.5449971099340845 2.9121052824769342 13.277042145273684 0.7169922257338879 -0.5391819301882069 1.066331868912544
P 4.031521823687336 2.4596376063686134 4.201574832908939 0.492662446470429 1.5245623589573485 1.2724656939932666
P 4.940526833304451 4.539772675605332 11.821837892568816 -1.4909624115147162 -0.49210863084948797 -0.2676379551327907
P 4.099383593658137 7.743636074099177 11.68193853025108 0.8170330784085735 0.4162952832635992 0.3058514900880345
P 1.0329200241953336 6.266620506525555 13.231612848406446 -1.092312866357338 -1.2972164185753854 -0.2834420120445828
P 2.01406134096132 8.124488955219785 9.385674852354368 0.7795427947725995 0.9023150276065299 -0.9668013802153738
P 4.197837639511206 6.0394367713207116 2.368353421459763 0.4040223794335171 -0.557471472526014 1.249600873579951
P 5.842500741463085 4.941011094596956 6.319296959889469 -0.9399534067845942 0.3339616180606894 -0.5358708635371029
P 3.339251680617559 3.2942340058489505 8.837254526223107 0.05729163463261746 0.0917413316700549 -0.09478988868839158
