# total energy = -381169.8384978045 ev
CRYSTAL
PRIMVEC
9.18065379084602 0.00000000000000 0.00000000000000
0.00000000000000 9.18065379084602 0.00000000000000
0.00000000000000 0.00000000000000 13.43681481760514
PRIMCOORD
 96 1
Ni 4.9404677383546565 1.2769921907428734 12.68894854282909 1.596528050662373 -0.050463298856874374 0.13602112742403671
Ni 3.3329995605943896 1.3862052457629834 10.970513805214415 -1.580394121214988 -0.4947252425367286 0.21483855194357193
Ni 5.37251847661133 5.8538601439536615 3.3706916519436305 0.018558222618161587 -0.5279240978862005 -0.2343542533789964
Ni 0.2900352079854839 5.289433561687659 7.8642314029108045 -1.736437457397222 0.9264959957281075 -0.43608609273728116
Ni 3.471755958843713 8.547023233753537 12.610114270514222 0.31455570273025185 1.2782157091031663 0.3003390449102376
Ni 2.344013653395218 6.415348917073191 11.278391613437925 0.8547714734996118 0.48764596709244407 0.5583176225763933
Ni 3.7950251327986653 2.8182127722501877 8.861014439197787 -0.8712303903865835 1.8478999216452885 0.09132995516424916
Ni 7.038531682268641 4.192253652016059 7.438862344331638 -0.039884752010079697 1.0376602120094647 2.42876869004932
Ni 9.211684191835742 2.656192597822237 3.2687331493845906 -0.00406105744325107 0.4935016545422726 0.5740399184076564
Ni 5.252912921735574 1.1273567179980204 9.781235414931624 1.044745143880704 0.342468627090436 0.5389111930253235
Ni 7.4146263369386 1.9551578902452698 8.095237762555433 -3.4249726917965275 -2.6107904525731875 -2.3946177551992243
Ni 1.453728952863934 2.043595126207671 8.50522096379531 0.7165068014570369 0.7179121664449959 -0.5844914527582836
Ni 8.743663652841947 8.228931948419241 0.14396366496144494 -0.02244187394328393 -0.023771648498300997 1.1607029248959624
Ni 1.7121368092569265 5.492785038545043 0.08814529117847011 -1.7064267699677451 -0.49659340609371894 -0.4187545434373691
Ni 7.617482058502516 2.9343113174573423 1.0435015462387582 -0.02814663763754507 -0.9661002403832911 3.2474745281746262
Ni 0.13218855867624044 1.05060645404643 6.359093544179679 1.2242148294066788 0.43244823887437783 4.227837963345151
Ni 2.363816323173158 4.270344291390727 4.416922606492533 -1.8199399460972527 0.07534617814148314 0.6975983945883082
Ni 5.750394178076338 8.49042450441603 5.1880350789971645 2.5359260991641297 -0.9795774489341194 0.46446361543870973
Ni 6.520880530006629 2.4089759581465877 3.8702596708437476 1.0901199724710773 -0.9607993969956677 -0.2046646967343637
Ni 1.0048225346293749 1.9548273867162917 10.82944112806617 -0.041510460538960764 -0.42395794201517956 -0.6172359941791563
Ni 6.791774075272128 3.2743719068151007 12.58912637835875 -1.4862086988798147 1.1765275506330446 -1.060745118853386
Ni 4.071234276488563 5.472817117002613 10.222378672496628 0.6660401601660529 -1.9516272220326256 -0.4724276074807929
Ni 0.409038511986213 6.405479714471761 10.00080635247361 -0.16314909398908028 0.715607172460903 0.8895348451227262
Ni 6.3308593621513625 5.528461058367516 11.798329666507398 0.39413648777837285 -0.7773606995196161 -0.1260655588732216
P 2.185215888374804 0.5388373465348698 2.4330981254352007 0.4077409659356849 -0.6860834519701732 -2.6126835558308423
Ni 4.596973584556958 3.3797566292912142 11.401620772282785 1.3020477785257578 0.2222289308703721 -0.20014392604587466
P 5.7861161011667255 3.6423508637179296 2.3269339654699137 -0.44159108171591044 0.9981372142141778 -0.9697900305300524
Ni 1.2236342321200695 8.290901360102643 5.3211260959205875 -0.13018703724076286 0.7314474819272693 -1.303283964925704
P 7.0286532990136275 0.45487292499797316 -0.013132924950089726 -0.8404162332192042 0.3062471828645565 -0.06420661658489586
P 0.5465610303940173 6.979986654371596 12.150373762986687 -1.712801048925205 -0.9342360446848427 0.31792873296754276
P 5.479656703921744 3.9351769903925624 9.407154077592356 2.0715858966771616 0.545284443541519 0.26818431455456393
Ni 2.0674005609476795 8.678783973972822 9.902730348314703 0.1542307084535279 0.22157072846108294 -1.1704121817639261
Ni 5.854989364344337 6.119502355369841 8.731040254165698 0.76623167948599 0.17855308724897637 1.9170132315031825
Ni 6.451226911274485 8.534243763966382 8.886733122144435 -2.685419807153304 0.22763056150191766 2.255848632716405
Ni 8.69467568532452 1.6287672940721905 12.530394065128618 -0.07887578856129641 -0.28760771338649826 0.839152278905116
Ni 6.3734116915072985 4.39408114037871 5.318331504970006 -2.9381924151384884 1.6685119971998426 1.1546590326947275
Ni 5.5314264094747365 5.373895574648739 0.7953264463290725 2.0844984909737714 -2.2862951221317207 -0.181919432618048
Ni 8.295510048201171 3.2324530425563736 5.533750950961883 1.1600478078104666 -1.4285720222029525 1.3050569976657267
Ni 5.290654588614161 2.8361793113115827 6.776924368102068 -0.3479826149301298 0.8034411986567518 -0.6670853136011158
Ni 4.30261428873401 7.660309807465934 9.961073401832929 -0.17026256510541002 1.7307704889194322 -0.13061281192427182
Ni 4.2352282914368 7.749527398982865 7.524293834311054 -0.22677695525237074 -0.9782253057815993 1.0461955031739854
Ni 8.707785658640654 0.7804152287800086 4.448633502032627 -1.741001165508505 -0.6423358745705776 -2.713368726957746
Ni 9.285680259712514 4.076136745501739 11.35957705113533 -0.19175415932028264 -0.2346198483355572 1.5799948288940402
Ni 7.8004983876741605 8.716084969479438 7.305743785447468 0.7139128154776156 -0.6255586551122387 -2.976533733920848
Ni 6.109265926625102 8.674524150710436 11.405678621166349 -0.9054936824448276 0.3270417510124045 0.7204822411650172
Ni 3.601634665078539 8.53942165258704 5.545977745403358 -2.7103368821099583 -1.0840274864200943 0.42545586671694463
Ni 5.07390853817958 0.7694829064936984 7.4273332795624505 1.6455011381269662 -1.4747811737691632 -1.1060875515439275
Ni 4.6992644267756924 6.887197788610983 12.18473144095468 0.21343318695561306 -0.4447525101630276 -0.263577669020488
Ni 1.8891030877175554 2.944051990908615 1.8905600574411339 -0.7497794474672378 0.10556718180955367 -0.9234081008314032
Ni 0.3228551264783715 5.967920584065451 4.196263761500994 0.9994926998008077 -0.320980375309673 -0.0208192507381964
Ni 1.9653575963756784 7.856977768515092 1.1775877460105482 -1.0616753439771394 2.081093836167596 -0.442849893823676
Ni 4.299199085601236 8.719252294965479 3.3488435325474586 0.10242040865045586 -0.46973411980902974 0.6557223231798127
Ni 4.5023485880797995 3.614331508983449 4.284220849281018 0.18078737589613383 -0.08786076566872611 0.6625491162936589
Ni 8.171112192155233 5.494015246125128 -0.22146674250681894 0.7584664337182744 0.006460153803046939 0.048126423193581624
Ni 2.8183137594395977 1.3142381023279934 6.689975316085428 -0.7545275036751844 0.6265945525759209 -1.709259868541166
Ni 1.395440983267206 8.890287871211667 12.085366473032762 -0.6845999254461113 1.4173321876230751 0.24623583530793075
P 7.9560370206727065 7.195897265330149 9.043392712945431 0.006922181041130015 -0.6384388535090165 -0.2643441148728673
Ni 7.7047166288455795 5.053215345004116 10.068151036829697 -1.610275739265769 0.1780895173489965 -0.9296728507941925
P 6.757980089434112 1.2063287001166305 5.680426580991665 0.8619461368711799 0.06168127905988086 1.2753260462601972
Ni 0.025221091522465218 4.780329597911164 2.037948106188936 0.3087658355213521 -1.0759153988359211 -0.9139824366421291
P 1.6934909018304096 5.957573987477718 2.1310922632432003 1.1677212651953244 1.0661367221826026 2.9500313167549455
P 8.070253531895403 5.567790978315915 6.097062083817584 1.5143427381118695 0.5985379035490207 -1.0996312543956221
P 4.336151216271708 5.61404311106569 5.308280525427637 -0.9319428777752917 0.002917173646794976 0.9290125915023743
Ni 6.158593578325089 6.551323577286948 6.594721444837853 -0.012134835590321037 0.3531140226194241 -1.734519671549219
Ni 7.2040496857116105 2.3579315242266303 10.630495446863137 0.28191683364930803 -0.3609551159303977 -1.251904324902147
Ni 1.022339221665216 8.323180538099507 7.593963978219646 0.49765784280249137 -0.366356232341311 0.9431819410242207
Ni 3.9679519236828944 2.1313621744585327 2.587795810565569 0.3471824876263376 -1.7679756372148197 1.2207818924657299
Ni 0.3286508730851465 8.234724940829942 3.0067154600028703 0.4566014390818136 -0.5186125906772875 -0.4373618741259112
Ni 4.621697084655239 1.281334639887503 4.944559555656477 0.040463507331685154 1.5515944233744763 -0.10404148919364663
Ni 4.184459277124325 4.854215497944944 7.640549368694473 1.2614423462995694 1.4473732140698556 -1.091654406837733
Ni 8.094426192778721 7.620915622942455 4.8607273355311715 -1.3567467127305344 0.10349667243377016 0.7874391668015406
Ni 3.8181052959056383 6.661427155704582 1.0911730080324218 -0.19291321262539035 1.2387616168726021 0.5946977038673242
Ni 7.368208952424336 0.5809857271331654 2.5205851637517895 -1.5046213970590476 -1.1686787440125874 -1.0934274395777555
Ni 4.380025559743556 9.286781938142443 1.3281633176822722 -0.12124062668075247 0.40125278710817996 -2.6783017080512845
Ni 2.5603465744185763 1.5004033956785139 -0.02845727191037618 -0.4690877444742825 -0.900783678563668 0.6709579091826444
Ni 3.5614050410790337 4.556936754282689 2.305744098935624 -0.7622762943826679 1.4849550289783715 0.4314995018078634
Ni 2.151697322144271 4.156752064611657 7.407971281156481 -0.8857188138107456 -1.5825083393445134 -1.3991272345792745
Ni 7.71603637471308 4.45870376094752 3.729078661983227 0.5818992665510753 1.315474850564941 -2.923526071375565
Ni 2.916326417088782 6.859637466555639 3.8527246225007405 -0.4907567448072839 -1.3028653893310465 0.37524093642545053
Ni 1.8574114715499848 6.385530154236497 6.365569577216934 1.069169081251023 -0.5699742329787151 -0.9430934950754725
Ni 2.2738000147945283 1.2601089688042402 4.296300753265169 -0.5635151076169327 1.1559237583397641 1.5670662937578301
Ni 4.277009445891787 3.186265174381678 0.6536606989593837 0.6177324741996006 0.22248938362061035 -2.437465703602686
Ni 2.4213239372153543 3.4594630636964423 12.16682090388014 -0.7998876769775386 0.7120289681913414 0.06377749946727726
Ni 8.997875950547634 0.6864328780536413 9.019744267381688 -0.5381437187316797 -1.318498210772297 1.426363444587408
Ni 2.29081176588332 6.43400400515329 8.633650044829423 1.4699554702457458 0.36727334483894164 0.3218386095449103
Ni 0.23932678598665436 1.0123782125279583 1.5835957242491032 0.8860440583606483 0.15063553490310186 -1.3683884107345206
Ni 8.628088404889008 3.3281154528883796 8.918780029605657 3.5605029956270746 1.0600622338537486 2.1114835042030475
Ni 7.562058452823598 6.3888351895262785 2.0385935061358014 0.45763193722885703 0.0012688394100945888 1.1400345979133335
P 3.373743301194528 0.8388776307948086 8.598109898679974 -1.4226967943690982 -3.1275667613726847 2.835774063370561
Ni 6.545144997425774 7.394236105331364 13.769241558300624 -1.1175153337648946 1.6971564004094126 -1.0852091654330216
P 1.2380294969377839 2.757840794290181 5.859889079161437 1.3763302912894169 1.2315278181283242 -0.47157220145903306
Ni 1.7447832133971006 4.391079066657159 9.715985755723112 0.4160415153815802 -0.8958936974612184 0.3459028495829656
P 6.319493713015947 7.715366187001542 3.134728657429687 0.632211384542066 1.9156955411330234 0.14571521478334903
P 3.694726492407382 5.192164536978676 12.874994487683034 1.0193768403192445 -1.7685916735322638 -0.8512320928877856
P 0.31803803754351506 3.4889605036577414 0.2527773615507064 1.2605848833952806 -0.1550228653375201 -1.139935353331308
Ni 8.329092879006783 8.621882283067086 11.127980375465333 0.9670086111301734 -0.2790904199441065 -0.8850300152738371
