# total energy = -340859.3966779642 ev
CRYSTAL
PRIMVEC
9.34642374953587 0.00000000000000 0.00000000000000

0.00000000000000 9.34642374953587 0.00000000000000

0.00000000000000 0.00000000000000 13.67943590843901

PRIMCOORD
 96 1
Ni 6.887416962337063 9.085555604938056 6.345630019559061 0.43236107847721017 -1.176812428863315 0.6954476667938926
Ni 2.9539091505755732 2.1525935202275654 8.051866386249216 -0.8708750639296938 -1.4573264686278256 2.2804911138554336
Ni 9.073947346783369 3.2885204631327434 12.640345396366378 1.123942320337161 -1.2725574823761245 -0.15458423513820474
Ni 0.1996797984655501 6.199482797105422 10.882674725770372 1.6798284506539265 -0.03378223865676763 0.16851087252162592
Ni 3.574287365773326 0.046275078059322565 9.358046847447465 -0.24153354473625502 0.6946004883022489 -1.363950172457509
Ni 3.6442360002577776 7.13826562627723 8.475819227691131 0.5553045467816824 0.68760451660039 0.30973848384726654
Ni 2.872604611374578 5.419327469867089 9.700470835521143 -0.03204751535384803 -1.6851352075788204 0.8808085209933216
Ni 6.735752546011676 8.243302639068684 12.123454522224966 -0.44966126031855463 2.2943565589836163 1.716083833441535
Ni 2.723314186652484 0.9207246040665952 2.7519880797223464 -1.3262991948739544 -0.05008097581679117 -1.9613300511426865
Ni 4.915134646876207 8.54003289663314 3.5009235480926395 1.6864912073860827 0.5001898651957256 -0.3641671951097922
Ni 8.861633987490368 -0.17560060725466106 5.28660918889224 -1.9284590114462785 1.4337548519554726 -1.1632084649266354
Ni 6.638194576109389 5.846963736863564 0.366125583769714 -0.7263114462522846 -0.7349408397925085 -1.5774437803374122
Ni 3.0115205058618053 5.139159074983881 5.665488902354296 0.049694024791017644 0.9051360419950929 -1.1850872672775976
Ni 4.544558296171498 2.550377310133802 9.963457699836104 -1.431043880782213 -0.19495852519019327 0.30141428025228734
Ni 6.294563964744429 5.7819500140584 8.316112213827813 -0.64845098632938 0.06316043470856865 -1.37492544052209
Ni 8.378162185698315 4.1126226743029175 10.297906384622026 -0.7666034610031119 -0.7849333696605514 1.1029947715512165
Ni 5.315647592483868 4.044898488643599 1.20572603461147 -0.6235753061336228 -0.16563457941509538 0.8887221194134436
Ni 5.277345948427576 0.9044749119347583 5.83403295976452 -2.1885623487649215 0.8594015160724554 0.11105443017637003
Ni 1.700778055287307 4.65793041486423 12.133659882192038 -0.010740269235639567 0.3929517234416523 0.15451661512506293
Ni 1.9133250751711823 5.305759076278022 3.2829004586010093 -2.0387724496915665 1.1991609717618446 0.9158194898508679
Ni 8.31911148117229 2.2570304579252225 1.1014984568032369 0.8036923954356094 -0.9652659174074538 0.5345919968246793
Ni 1.4971007914330612 8.088918413465507 7.7596326930955675 -1.0684244897755146 -0.4472724483714039 0.34794584815492335
Ni 2.610988867406874 4.4027169710865115 1.2279929542795294 2.4033762181181446 -1.5710813284544942 -0.15680309716639446
Ni 0.08863680854266437 8.639048908622488 11.349800567267147 -0.24051230256059225 -0.4885237417117071 -0.00735309793096153
P 5.327171732825841 1.0286580388461115 8.245649526043437 -1.241964697190932 -0.3257130048986519 -1.2334119225249145
P 7.369458761312961 4.268025660082311 7.448275282542314 1.3786327141703483 -0.4760875728308833 0.46910471375514695
P 0.6174303531832692 1.3299680439917236 3.4740292140828837 -0.34611830802788135 -0.408540836129161 -0.1481510779183513
P 7.069429216205345 1.1636951675248075 4.250788985614617 0.3163487900749326 -0.9771081614580206 1.72331248997949
P 0.9983102013032179 1.9764134347075335 11.252142590631967 -2.346781609552552 -1.241262786027901 1.305599243322442
P 4.3664248081117485 4.020859487054341 4.251910556450818 -0.7403193304956025 0.8438982782305338 -1.5475945581864639
P 4.10489318195676 8.276641332174782 12.083333129486935 -0.425048603976197 -1.5820812791094236 -1.825602800809985
P 7.822470568478501 8.96482785084457 9.715887761307101 -0.9162992577007639 0.42488302493261015 4.2365228927136585
Ni 3.5273309334310103 2.593931644272972 5.994712001685881 1.5201153789295887 -0.02320523447186971 -3.2366075035531354
Ni 4.540221555604852 5.842767192651442 12.395374698250272 -0.1801911370730316 0.959255963767948 0.05753717498452026
Ni 0.9629620271155912 0.9538212248005467 13.31260841308919 -1.4407587940771316 -0.5639645364495255 0.3156707901713015
Ni 0.8989250055802863 5.934343451427319 0.8483384222981313 -0.405859689752572 1.755547438753796 0.3922451842929309
Ni 5.910164253483535 8.237545242109514 8.55459929786831 0.369445412789596 0.5678978100656606 0.04911218414561864
Ni 8.577128852040513 9.095406735449362 7.918642463755713 1.3240679915505906 2.4837679291033354 -2.657926743939358
Ni 5.1372337117150675 2.0715226416174457 3.7528031225597482 -2.900919389719643 -0.864513126267408 0.545522270583938
Ni 2.9442916806551427 7.605072754728052 4.246917696944993 -0.07843330170723911 0.420841764983701 0.7525552104401619
Ni 1.4816137674698413 3.3367480090894204 9.894253975315364 1.0634144381554331 0.818507606071571 -0.869936097055192
Ni 8.1998511155895 4.5406327982447925 1.8079562990371143 -0.3836682412571973 0.1924704686610169 -0.40553907318835963
Ni 4.227667802826317 0.3598597413648 13.503996999148118 -0.5281860932983355 0.3984256020720299 1.6728075392514028
Ni 9.253006130782985 2.90826121754216 4.9153636342552645 -1.583697474556608 -2.423375801168523 -1.421551110800429
Ni 6.7087974602482925 6.823393960437211 5.648703660148172 -0.31134568043338634 0.9828437783902172 0.3201553083052163
Ni 7.315417739855303 6.381840868648199 11.303536704916187 -0.4035148436694792 -2.1265853928414926 -0.6882938293579308
Ni 2.3094638945176564 3.130780871444596 3.72543025165988 0.5466939222945358 -0.8543932642245867 0.3850016153566402
Ni 8.35662802564324 2.2964256335468107 7.953785016623369 1.0409627940201363 0.4917013681087403 0.12398990729111549
Ni 1.1843133780636506 0.684113347249647 9.079930927194505 0.08865163700113765 0.8674220723840868 0.9551157163473293
Ni 3.2405826563087516 8.214095065209262 1.66355592316086 -0.19061541773014912 -0.43584775147423 -0.059937042675264514
Ni 5.51050183242666 1.46209843491993 1.5648184345958351 0.39441905201579813 0.08490965346020216 0.12074748909441786
Ni 2.0515306414621484 7.040483342207703 12.694147149378978 0.5535132592092146 1.1429229752047219 0.2861622391892233
Ni 5.81982172262748 4.466450233853679 10.60696644424579 -0.28028829690694956 0.012618460094958914 -0.011313882350922452
Ni 6.803401960281914 2.738969446241134 6.167304929814794 0.1935395333554796 -1.927949933020344 -1.7551751430160418
Ni 5.394120165323454 0.34092388708025967 10.674912140145262 -0.04654725163191984 -1.8066388581129724 1.075485253277038
Ni 4.848952621116666 2.0228184280553827 12.131252243463658 -0.20839331053886045 0.8425625901382457 -0.6683850062491458
P 1.173976233523324 8.571427533623154 0.9316870243481042 -0.06396596132899952 -0.1850975732357135 0.3896517125341418
P 4.456234592820608 6.965711953127584 6.627782660179983 0.9183774803860313 -0.3637522190595607 -2.2577036836472733
P 0.3324401383467566 4.856523224261028 5.357865388043231 1.4745294627696737 1.9795990246552035 -0.8451969424372993
P 8.85358671674062 7.430117050704208 6.539358950096197 -1.5514013335270636 -0.47167144604105865 1.4891274151885063
P 3.6159069902200476 3.995371789801655 11.478168088039896 0.8805663230755287 -0.5635554739365649 -0.5941706277192607
P 3.5261439376293637 2.2347018518611717 1.2041390118782445 0.163602379476415 1.040100703130157 0.13491246774089025
P 0.6874388047789853 3.8764478954697243 0.8056710637619245 -1.7834539353560768 -1.6072384951013416 -0.17529447110236263
P 7.369935428918345 4.385033537569064 12.235462063066985 -1.3685514186749461 1.148351859529777 0.035760445429061
Ni 9.525501111861846 4.541791754775534 8.49926566602193 -1.5115276372605773 0.6836959255746032 -1.5743006067227403
Ni 0.4213134114073868 8.067851574592183 3.0681196434683655 1.409166106872515 1.3339024611425092 -0.6441575011603486
Ni 3.1373794465309164 9.254716526308192 6.784124961534696 1.6681201610780625 0.45276920981991703 0.1802880676622121
Ni 2.4945511217618574 0.5750714266270179 11.48740235459129 1.278325495208153 -2.0885299807306676 -0.7952460644404692
Ni 8.182420035510196 7.146350282721517 1.35705211040127 -0.11280920808394766 1.1644569926217558 3.180940806118451
Ni 1.092082869633323 6.87889302398193 5.355115670209809 0.04270216685421678 -1.60683945989071 -0.5010789526688982
Ni 7.056073176830909 3.0838244391022807 3.415194411942828 1.8182347904806881 0.8604736660907116 -0.8280757093759804
Ni 7.6287659386428155 0.055113056248592716 2.4650482009155694 -0.1672803425486345 -0.06330133116180711 -0.1863000781842469
Ni 6.5064941206683935 2.7640459008538794 13.323264270675471 0.6981810065646556 0.8245376143157348 0.3264300855703346
Ni 1.3935984960989054 3.471158927384571 6.523845756146799 0.11565284818032985 -0.9237150905488608 2.1116192584499633
Ni 8.062711041592925 1.1182808950822698 12.0946731452833 -0.3303528176635085 0.18114295946333964 -0.6325741671981234
Ni 6.149600934165347 5.261961735124342 3.263133707255316 -0.06909659768734552 -0.5984533142550145 -0.054468306251209415
Ni 1.7009182516418324 5.784623091218014 7.496495351360084 0.6810489748700593 0.46752348531095606 0.34220303213387515
Ni 6.845255245319511 1.6541113620776775 9.621677680350878 1.2419603263155579 0.9721379619369388 0.1497644451520582
Ni 2.716341754620763 2.3823379595998677 12.870392659864455 -0.26771148868320344 1.9487815250537146 0.7711733397619815
Ni 3.9890068753062096 6.18208910272066 3.1359419665758512 1.4859302484074475 -1.8486797372341064 -2.247474806830413
Ni 5.7599018007034 8.137342234318519 1.1478698030260002 0.359614028521471 0.012914394068822919 -0.09568154726472554
Ni 8.350767818024087 7.056568537283564 8.844371143036495 0.4022020383953267 -1.89302252501554 0.09067535229938578
Ni 1.594481179286282 9.091789669502612 5.080774770463033 0.6391831878742089 2.51791629285027 -0.11419246158471946
Ni 2.233000802759599 7.724230309650858 10.24577390287064 -0.774415500848363 -0.04935001118803759 0.8850392712452178
Ni 7.586791150097963 4.746805557209588 5.2313858448447546 0.7214824002947574 -0.528295108072374 -0.2570115857671961
Ni 5.258438133413941 3.218506403682847 7.923895153838592 0.6883231399339694 0.792174624603997 -0.34103729396054816
Ni 5.39202656642921 4.7455157507479555 5.89704094005761 -0.16589528927564978 0.920712556277111 1.6403309067799363
Ni 8.60399981999118 6.151479565315985 3.461854562655913 1.8943720970648987 -1.8687088879708396 1.4732817064055013
P 0.6590836247550769 1.2316436673513664 6.946212509497852 1.078974497377219 0.07201788509919854 -0.46346371341928566
P 3.4861412444715 0.5600068610121008 4.546852843173895 2.0239826929769014 -0.17405031428261636 3.1421863110580723
P 3.332009372306468 4.185076150321553 7.607052327253948 -0.5323541086330961 1.078953928551929 0.7586374120784999
P 5.406317248167148 6.653289050279938 9.957028295017578 -0.8843723270851802 -0.09006497240889651 2.015213431424703
P 8.730559742432918 7.052876699947734 13.18294080478881 0.8643748009173308 -0.12324917247034903 -4.9737021349183825
P 6.915381461853029 7.20444765203677 3.3510237365495423 -2.218957673227327 2.8319438909911936 -0.35791221533901585
P 6.8509378708896005 0.6177257001701357 0.14610983675909836 0.5773975220259797 -1.0445978196695622 0.09409800482768955
P 3.5217885042154466 6.309593013949534 0.7940637402495994 0.7021695588987584 -0.44715366340535245 -0.6287985022057752
