# total energy = -340866.19311224826 ev
CRYSTAL
PRIMVEC
9.25154608991310 0.00000000000000 0.00000000000000
0.00000000000000 9.25154608991310 0.00000000000000
0.00000000000000 0.00000000000000 13.54057286319807
PRIMCOORD
 96 1
Ni 0.7159382780614421 1.2372647379083115 6.743475835599141 0.38896111422502044 0.5256407011686625 -1.1370035243964933
Ni 0.7858762641885259 1.3311216707168285 1.544234730353823 -0.16313983801769968 -0.4701681220226548 1.3353445929056744
Ni 7.288858165006259 0.7273482095777303 11.387350343138975 1.644996687686722 0.32997178017500595 1.7789488483968718
Ni 2.5795715275768893 1.4924593790704732 3.9663449472948367 -0.11369752422617192 -1.0683956934201082 -0.6566450921043981
Ni 6.825735030510295 5.8272064336688905 5.385939151126288 0.43033119253137503 1.6383979514232814 2.2172666586781493
Ni 0.422087902808218 2.713395138525652 4.126827812810482 0.35867506164696933 0.5388777686842268 0.12176178929154514
Ni 7.398387216511436 2.933702200227891 12.107167794381946 0.25730726263074394 0.24247996780992434 -0.21449890921596607
Ni 4.766599964067985 9.219535517101967 7.633971355901866 0.3825107306139864 -0.6812196961199688 0.9299140202707211
Ni 9.1091923295606 3.873770278743319 0.05875379232992099 0.6324407269440527 0.615479673609682 0.29705985993833356
Ni 6.21876886089291 3.864296695776743 6.704478719465631 0.2678102190445969 0.1897258160363442 1.050771809690758
Ni 3.496899306354187 5.770457451328088 9.891212549432261 0.7678062230619616 -1.5621578007126193 -0.7298549406291689
Ni 5.265887391353352 9.074711818118772 12.041983252520708 0.09350459421806477 -1.389527506705981 1.7858252638017311
Ni 3.382291156168686 7.51023840602893 0.5853138516730723 0.029564343920678117 0.34338214004364087 0.6150153323787537
Ni 3.447246259692452 6.801588495800562 4.618093224675615 -0.5534644082491501 -0.07975767694561749 1.2428506993403112
Ni 3.4626130773755412 0.8921515470127028 1.5038434062583372 -0.6457988934185136 -1.0860401459747488 0.8444158412969005
Ni 8.438649536753454 4.346949843595405 9.384550714937268 -1.129828603914609 -0.43790360556199426 0.47216484073770937
Ni 5.503356070636645 2.1707364642214264 8.321765506284965 -0.541391793355332 1.985108898729839 -0.8463112585474004
Ni 7.045884815932815 8.265229309499077 7.874628117890515 -1.22564461987467 -2.187046426341027 -1.3048466814271333
Ni 6.449261874593391 5.2156144911186075 12.362271770394624 1.4759726229741033 0.6458271755532877 0.44356028962713934
Ni 8.830961339192601 4.599951868387373 5.988088040811352 0.3281666086454671 -0.6910821907363454 0.4513224500710615
Ni 1.8170128595885198 5.379320595213897 6.5594598128646675 0.059587629755645764 -0.558834928532444 -0.6078044164526113
Ni 1.7009707197938202 6.009147334665667 13.10849313353858 -1.656141905670264 1.0825683853760646 1.348310666148039
Ni 0.7168347528558379 3.1908211629301384 7.92583912487605 -0.2210040573243355 0.9155911758901458 1.1854014560839068
Ni 7.86250026641504 8.545791689425256 2.1676159178008927 1.9450143447017985 0.6782984087081156 0.07395778243438876
P 4.812940957309766 1.6689233649146973 3.698106551616487 -1.1611292138001035 -0.7364971285360348 0.4772278570829136
P 7.298812828357856 5.727132462038558 7.717381443118724 -1.5784817346836235 -0.31263765977193253 0.3981759479550691
P 8.357143417675776 6.819138678307981 -0.04383104884838942 1.162172053242321 -1.2954264165544982 0.39676055566478124
P 6.980124827918726 2.822091550902908 9.904224848692504 -1.6575254162813517 -0.6740645731324262 0.5373525902889519
P 2.1607077885029016 0.2958033765854938 13.25379698775221 1.3925323549705761 0.9906054246135069 -0.03431188590799252
P 1.8022658954784385 7.030323715786544 10.238798678537798 -1.5337262848448037 -0.20332000978101114 0.3932543422837357
P 7.0472447931750875 0.28834663061766097 -0.011864182418298877 0.20881317168509844 0.8481210580626297 0.262114197101084
P 4.410507963693434 8.596369890673571 9.894989955609265 0.6339101124007276 0.7473402418981258 -0.9978217398562879
Ni 7.240370813123612 5.119176377013534 1.48003917874564 -0.9646740494597258 -0.15106876578577855 -0.8236870933899815
Ni 5.86945824363799 0.6644136436710554 1.9507226765231334 -0.45674130709378763 -1.3225153023514902 -0.5844495437767547
Ni 0.6516705643955057 8.283575124950953 0.6439408978246317 -0.26638762766545737 -1.1182884644854933 -0.42182341217068
Ni 0.006099544189320376 1.0483111651452608 13.016606779999478 -0.9884408128620203 1.1306588131253883 -1.4971952797983055
Ni 4.76879258043818 1.4548240904884084 10.625408753259855 -0.434142081637033 1.3994679057481447 -0.6859764940786638
Ni 3.287980897612745 1.3525482509420157 8.751123273834528 -0.5741571607118112 0.9591695747017288 -0.18200222213984138
Ni 7.434014919640623 7.6209609069507955 11.738687974093093 0.2017765765532912 0.7503669445395916 1.8292805067718882
Ni 4.869699191196434 3.5993324221802987 11.731105407101486 0.46338426633160196 -1.0945967772955083 -1.0035154478069557
Ni 0.08018777379180093 6.11895393254682 8.04877366634077 -0.05560087719375586 0.8446855500185195 -1.741007336156092
Ni 7.504613466142525 1.524007150472843 3.641371446594483 0.019176058707818588 -0.8332672808792487 0.6099209485749819
Ni 1.1675080820801975 8.68480541760473 5.186323171752905 1.4219277774135577 -0.44789285556422215 -0.9668453460794316
Ni 8.820368319176263 1.7939857619285495 9.557139228218308 2.32849103877348 1.010384149902331 3.788890747009991
Ni 4.025079311378439 2.709074666606324 6.020246414240865 -1.1996484529212244 -0.19054985459953633 0.007779129724786603
Ni 1.8065678643060343 1.5480334150863198 11.019791976818354 0.4069868613784797 0.6374235248706248 0.5482741222974622
Ni 0.9348224520095212 8.428010259007786 11.794664452354102 -0.20639453494127682 -0.9715954591699072 -1.779687526335109
Ni 1.183800054349867 6.0370037392675835 3.98874108952676 1.0641225199660511 -0.45854467885111355 -0.1486745545219891
Ni 7.635051011304406 2.185418667510447 1.1307896216934332 1.2779434292783862 -0.4424637141288509 -1.0153656622773222
Ni 5.186009544348055 6.705973769277544 8.252532487952857 -0.4061306840257715 0.19381875515879524 -1.6307576612692045
Ni 8.11946195283757 6.181660910425196 3.610742353696587 -0.3520135904663937 1.14483844705988 -0.9344661584177778
Ni 3.0240898033367336 3.7702177258674467 3.8498013737142105 -0.7295651773028918 0.41773201571012575 0.6504680167594088
Ni 6.63500516094101 0.5525865081728131 9.374423047677977 -2.3101570163509826 -1.8109117744567134 0.9093038002195373
Ni 3.79363338845378 0.07399108837088969 5.579677623411129 0.21169666388048058 0.6454379105346691 -2.3347527034124758
Ni 1.7475615047739772 8.368633837641097 2.6594771292197836 0.4074476030649822 -0.09441296496494707 0.7248793417914484
Ni 6.3853799503900595 7.555931791060105 0.6634329798092807 -1.0769790642137451 -0.2340629473908227 -0.6126859129146287
P 1.7926257846862772 3.173927840179192 6.17827854525666 1.2893329020622506 0.06093668758437246 -2.2363218755373873
P 0.014314916918148669 6.762001131040815 5.631185605018958 -0.11071093079402224 0.38194791613198087 0.9047745448906159
P 2.9688765776096537 4.659800118593217 0.5639094751579627 -0.2857634610889078 0.9873396093780415 0.3578137420879386
P 5.0826142677519 6.837031168012434 12.519437031562795 1.4238298795322768 0.23015049971029397 2.953236453955804
P 6.552351850175975 7.90234667445903 3.662291967260811 -1.0079963663964446 0.17340239628597232 0.325874984397813
P 3.771337162917208 6.277146115306093 6.564198454657129 1.4611939220030317 -0.5307268574423182 1.5885090370126385
P 0.15856224459390555 0.5295825393775072 3.432467840326426 0.7790324307950842 -0.1644608708219684 1.1513837043775654
P 5.975064639696069 5.2269013770748805 3.336586669282473 0.3417752005678372 0.3711256287054963 -0.4794292356096066
Ni 0.17700705158654625 5.695593942182054 11.449231157971536 -1.3494380948842633 0.07065879996814284 0.186540219219511
Ni 3.5741589658794632 5.357940272718038 12.174938143312673 1.1971598821714156 -0.6366650494380454 0.07307923648417737
Ni 5.591967376939254 6.630564418925427 10.502352091389707 -0.41158399383085886 1.5222015720346558 0.5990858056326908
Ni 1.2927647615572315 4.978774916954188 9.51027552263511 2.710414786535745 -1.1118828180694655 0.4186401293466919
Ni 7.82509626647962 6.704364000296895 9.844226723443633 0.454854631594036 -0.4291528559525577 -2.304794980708121
Ni 5.8640183346689 1.402691629534639 5.6120663603327 0.9059999326572848 -0.7306028745387868 0.5930928212740495
Ni 4.855350043558582 4.785260332079299 5.068439049176326 -1.844032211159766 -0.08678270211319891 0.33597607738755686
Ni 7.806213861367527 1.4083998333338361 7.823214502050517 -0.4446383531826665 0.671017044555354 -5.499266988543787
Ni 5.664110931600744 7.881438180802328 5.657846709895013 -0.25362647134504707 0.029650990097213455 0.4165732195153342
Ni 4.0808661329491995 1.830945687662411 13.034277232603152 -0.4551076281451065 -0.6427235969272996 -0.2903451669223193
Ni 7.43734547615231 3.889830962366344 4.139664332699276 0.6304332095957207 -0.8199453669593619 -0.2625155463045608
Ni 4.38546402903472 8.333700000451845 3.3472296476464867 0.7395842521017908 1.4871944598318516 -1.5317041122084523
Ni 6.024227354426918 4.696093933024741 9.430183039765726 -0.38707315317368823 -0.8624804121080953 -0.9318814284097371
Ni 3.785427267270818 4.342832905685125 7.906367396292306 0.4738627972654227 0.021325758060969726 -0.7191493812862066
Ni 2.3097779470384987 3.4360703922865676 12.58242803189925 -0.8323810216195536 -1.227774007512847 -1.1192726827756336
Ni 3.430787759597197 7.518287250932174 11.576146639622308 -2.327079246027618 2.87664509055331 -0.5593594335773463
Ni 0.2880015479568667 6.07047583221004 1.6894978777656446 0.8430251315969609 1.2822029758856885 -0.9416482779885137
Ni 4.419241422990748 4.476304957890987 2.032317610441122 -0.708994809350708 1.2009286051852286 0.000643804231585988
Ni 8.110460198710149 8.645319819849506 5.116589644789456 -1.1396221929662633 -0.153573020264871 0.17065157301371253
Ni 2.4516041451611765 7.169143161502837 8.150760857656149 -0.2502498415633303 0.778606399001259 -0.07804120847514302
Ni 1.3244328030558568 0.27616234471240547 9.060958470034677 0.7126750864157727 -1.1703075378652616 0.4256433001374024
Ni 2.2731140707723427 2.9313430560321123 1.520769109419814 0.6455464110880753 1.0523047013955167 0.8411268861329837
Ni 5.987184164780264 2.916734865110018 2.435650779470195 -0.7666672243615118 1.3213449361924727 0.5286558338459024
Ni 9.16711625822636 8.517361688979658 7.624141588419457 0.9867623967183329 -1.19553314520127 -1.7982773735221544
P 7.739130902294629 2.559199623580403 5.953911905228509 0.8946621390469623 -0.8848137854979728 -0.828169040420735
P 2.394133542242842 9.039454176824217 6.986542625285829 -1.1067791782943133 0.49552871227463036 2.2551690901508774
P 3.110008909792396 3.35240866302216 9.710296719717414 0.19252446182740393 -0.1814797739774681 1.2745346607071533
P 0.37716702185683765 3.3058271295878687 11.530460655827827 -0.4402733913457514 -0.0613326374712105 -0.7106174325557955
P 8.986341052008672 4.183891347710722 2.3492348650015393 0.9003221655462172 -1.9964124966681165 1.2867589706874871
P 6.055932402109006 3.570772900092581 0.2699804617648795 -0.5183217989097461 -0.33769563118182483 -0.5034993891849329
P 2.961965672847903 6.459873397701462 2.6447856743848965 -0.32385126909956485 -0.16312235451620294 -1.6772025829953048
P 8.66635783514833 8.788968572507745 9.775250898086593 -0.6798238442137066 -0.47419575512480916 0.9481482838905606
