# total energy = -381174.8113384773 ev
CRYSTAL
PRIMVEC
9.17325485081614 0.00000000000000 0.00000000000000

0.00000000000000 9.17325485081614 0.00000000000000

0.00000000000000 0.00000000000000 13.42598572097932

PRIMCOORD
 96 1
Ni 7.743180923668304 1.8631614007804986 7.1861515483021225 0.4228140582187235 -0.5787239541468872 -0.11880142111164055
Ni 3.329992335401508 4.161648773139858 13.063846568467447 1.1054188076116769 1.6030671373324714 -0.11001441894762988
Ni 6.4746665808283845 6.639876896660635 12.546449322391751 1.7703521078667963 -0.3940053615171472 0.5205113503618971
Ni 4.838139608862522 5.661411691871794 6.482804175007995 -0.2328992661000247 2.2165889158848344 -0.4044684658320002
Ni 6.817076656290373 4.262361935689679 6.794354504579298 -0.8024333262175276 -0.5114777794047191 -0.4443655591372541
Ni 1.1618936043103114 0.6831799729966707 13.584814962569434 -1.9868335947304296 -1.4085696109390966 0.2534246397468861
Ni 0.5291004843288204 9.024592862513783 2.6208465478576546 -0.01793138766744009 -0.20224837398338716 0.17414493087895172
Ni 0.7800339473249134 2.9525220807551293 7.339597165075247 -0.5239106058514331 0.18010474800681242 -0.6129988161693571
Ni 3.8934319811010365 4.088748918619098 10.447000476952626 -0.7722881700927151 -0.005019307591462323 1.1754772549916594
Ni 8.364723964175244 6.811389238421635 3.476685519443699 1.8322966678903927 0.6467823403777054 1.6255833161571167
Ni 7.649879750857099 1.1665352711515729 9.662655099953025 1.0208925056328224 -0.7579313871504108 0.39583830096082795
Ni -0.002847378236220468 7.93126933654029 10.182656633017324 -0.6269316242003655 -0.01861787221150342 -0.2360504101344967
Ni 5.85014223256767 2.4536071081019113 3.574614599214226 -0.2729025459658397 -0.38878807898226586 1.0120286274842893
Ni 5.08151522737143 7.645063792177924 1.8627614468787614 -1.520454507436562 1.5940320237133967 -1.8223426420014746
Ni 2.682287172698368 2.3149441911601962 11.903277582125275 -1.1790001805432533 -2.2814704470495673 -2.2353782806771956
Ni 3.522704068605502 0.02014354983542695 13.298143416872016 -0.6836907833682806 -0.49916373792405644 -0.03256482130989875
Ni 4.338775146732581 8.209686787724335 9.027176051016747 0.9413482302495917 -0.22189185924592753 0.27538134652363544
Ni 4.017133319746117 7.291710023945925 4.330591686279835 1.2406251524439023 0.025828016806697454 -0.23081333010527344
Ni 3.9540671941854995 -0.027362901226875107 6.939422187901584 -0.5310595581913886 -1.3922960705900538 0.28669445754360945
Ni 4.773156273084861 6.395464700378875 10.604688723990739 0.4211269003242877 -1.0374354975931683 0.06953471366602865
Ni 6.997615480604339 8.553436158361865 2.8986301271469737 -0.4849558218547906 1.476511783307025 0.21304777859173632
Ni 0.426245366823595 0.8314500395092425 11.274685812762948 -0.6478488339690068 0.8922944101457343 0.2264979905593712
Ni 4.30417363027954 6.716088296101741 12.911676034087474 -1.9744933279975219 -0.40633662938899046 0.9938100475937337
Ni 0.5033456546380582 4.910956904091639 4.189659306143399 2.078965476970684 0.07279538669517141 1.4639460308268724
P 4.373486742241145 3.179890369939925 1.31194970349876 0.45984951370546606 -0.7825517568022522 0.13157517583754114
Ni 0.2210818577889131 5.7547312111922535 11.111775231865687 0.8008891216588594 -0.10066717340477502 0.5715865717711576
P 7.46201149609616 8.754945042753151 11.774025507105398 1.3255790288784783 0.42017687770619255 -0.7357895609460489
Ni 7.7903406257057055 5.788314496381697 8.721949763185298 2.1687008339543037 0.045898048083695145 -2.8315021754680845
P 9.12651689467437 8.588982520041487 4.771232641589579 -0.27144113092896477 0.29823819651715083 -0.4002282024984075
P 7.414512383637559 6.683431509629625 1.5231106864085735 -0.11861630168402797 0.03975311152822186 -1.7383025356304194
P 1.5702226875219147 4.051056015356759 11.52393965283684 0.23783526994906135 1.7593377590341637 -1.1499927375673098
Ni 8.152794262527687 1.5064593946096452 2.8882652667439275 -0.23832892175602827 1.1081863430544852 0.3087331825112038
Ni 0.490059112636313 2.922975027601566 12.962681164464515 -0.5509632390938511 -0.535407036526807 0.5086469948241434
Ni 7.74906097988421 3.3977735138404035 8.91874818132562 -0.02771674918897807 0.8806789373939929 -0.6784192505566962
Ni 7.180933801070285 2.157778819635823 12.76411139085572 0.41654056650518584 -0.295819045552697 -1.5625108131766638
Ni 2.315274428326768 8.874050580830104 4.544521157436077 -0.5329973986440498 -0.17373869657946853 0.8180252671185139
Ni 5.84222571382457 8.382630157207146 5.760982784220554 -0.8473157885525149 -0.7753765792100518 -0.6390507760614027
Ni 1.8733712331803485 7.002247974190974 3.0750070458366703 0.1692464651360698 -0.8534519833572398 -0.3243073828003769
Ni 3.326359726569217 6.257297139187017 8.410184779455724 0.19951709109515317 -0.014719308488045618 0.3331188104444199
Ni 8.312207081435675 2.8636882829472716 5.02350723441214 -0.38205975911949686 1.029697505518962 0.3535778496297201
Ni 2.33079557515565 5.101678041041573 6.650025268254484 -1.376586887384913 -0.029583370084071636 -1.6507058222563569
Ni 5.933508770617837 2.688708450937267 10.451001850620923 -0.05074612020461583 0.3940117892750505 -0.3343380275635016
Ni 3.4464284563820056 1.893121250392277 4.31159387594732 -0.12798283050059248 0.4804214243195469 0.2347239780135893
Ni 1.61058500788071 2.166731916151774 9.40764137329884 -1.0259735197001556 -2.5074038233547205 0.5257620572378752
Ni 3.1485728786433502 3.878002566818424 8.317922019068295 1.6222599082108384 -0.9505697488478597 -0.44791882370615116
Ni 7.9469097356793235 4.213991364041514 3.0769673703504594 -2.030502753483606 -0.16213736489511432 -0.9902477841637721
Ni 0.21634203712314276 5.65366029171198 1.8582096779328445 0.509094366774207 -0.6330485357313806 -1.6078789568988179
Ni 1.2171257704194718 4.246583937731241 9.268199647039294 -2.140484776531404 3.4294854920652162 1.2384471709559768
Ni 2.2142952413927635 8.89897431365166 9.361469630784768 -0.42351031295479963 -0.10614490868989462 0.9970977172060698
Ni 3.005048136749325 5.040400700133221 4.108391608751891 0.12214616921415739 -0.38689343306271434 2.6262517814335804
Ni 6.191735888367857 0.2388908143217688 8.035049118111917 -0.3613798621726422 0.04212572552545649 -0.006830392658272106
Ni 4.465531179168452 3.6915286467607897 5.699665998317305 -0.3678803822953213 -1.2120897640083705 -1.0625901424819246
Ni 8.243811294936771 8.04369674524879 6.942362216009537 -0.15136212865648127 1.7568664146755357 0.8236868362796653
Ni 7.2800049510418745 5.598400605838938 10.695757126625733 -2.0834276265070955 -2.4196114490300844 2.1713133318764863
Ni 6.592258531891884 2.7866329440804805 1.4342979870863581 1.0083982298205536 0.9277612355937763 -0.30075967738742393
Ni 8.243040741548104 5.024430063827616 13.098471935382516 -0.5042059283336542 -0.5536698393917369 0.5066986128485209
P 0.3085919549540948 0.25492199410791216 8.504368419362049 -1.6653680522542222 0.9010359037837902 1.1063616311409206
Ni 2.2905800268708867 6.545603358858967 10.544674540244523 0.5857134980908428 -0.7813551653909898 -0.5446609510249071
P 3.1622226815283248 7.124013756109758 6.3673679387818405 -0.5555395456106239 0.6953697623681057 -0.1934989099255313
Ni 5.415550121358969 4.976041145670196 8.789053038107259 0.7517692242037568 -0.6477961263542005 0.051567073444014414
P 6.325289302482334 4.434094435561726 4.564620675649294 -0.15754228932526415 -0.3235111121513267 1.0357491110296806
P 4.862806490554521 0.2763415436619546 3.833978283212531 0.7870293329576317 -0.46900418362154067 0.0033239221669104048
P 4.027168860308054 5.921014797815864 2.4580295341575877 -0.0532575737725599 -0.23562360700972326 -0.3074617719979479
Ni 7.2232958909377665 6.502755086496255 5.466859803789625 -0.19627930088414583 -1.3960581087356474 0.11898191255356282
Ni 0.8992413085282271 1.3081428028285553 5.52771976161245 -0.6020217483325632 0.7593637487215632 -0.770860436507253
Ni 6.239822089122585 7.032914164409031 7.701319693503457 -0.8857782062937714 0.24908436050031937 -0.32523015172496245
Ni 7.808182605955219 0.3588852407720791 0.7624607434359717 0.12759125148912864 0.3591080354193299 0.06749505752818054
Ni 0.9179125509960209 6.690916885405257 8.20633854978548 -0.050003071391004204 -0.3255384269940006 0.8543184451225933
Ni 5.378380093610369 1.5385290927856334 6.078991085049263 0.3272523243613138 0.7918691775484362 -0.0061392801285184585
Ni 1.3132247858919128 2.608763536862971 3.1529320092421003 -0.3225981134187541 -0.11332008628209517 0.09889825442981032
Ni 6.138182427855437 6.278936846852107 3.2107840568727317 -0.33510678740872607 -2.271411777261985 1.9755425951976429
Ni 8.39047328991323 3.3215712876539234 11.070718496131628 0.34094499135705797 0.2854032495360117 -0.15207586689405422
Ni 7.332668605855475 0.7048371098455525 5.100169040655433 1.657551384423281 0.029098202917536984 -0.8035970075083256
Ni 1.5883398654102376 8.859134868806605 6.972704590339261 0.6440289460022843 -0.48282823398882646 -0.2301952369053003
Ni 4.809032871931053 1.8726740658286964 12.559069886107578 0.7982539980288574 0.9258231380307991 0.33074799621939815
Ni 2.929607290696886 2.0189324376015674 6.877917350278481 0.15525555017361647 -0.1385698619878194 -0.01749661412286664
Ni 5.263402520115564 0.9343785430514839 1.4132325251609177 -0.14638267316401887 0.22638897578533268 1.0451680903507354
Ni 2.3517014224505806 4.609037574553223 2.044576270911343 0.1034755893878476 -0.8507512965966252 -1.9887426388276848
Ni 3.112650413524023 0.4831122069072867 2.3862671632105754 -0.22085236223781965 -0.20505730418709203 -0.02115529392137647
Ni 5.668300806096671 4.32707007382853 12.135761795415545 0.42284336879476214 0.19151916049134113 0.1909704870767227
Ni 0.7344428718287287 6.895397904295691 5.841028604095746 1.4614178650883798 -0.2523154658431074 -1.960338376653379
Ni 5.806248209177481 8.705363601494222 13.104244664519287 -0.1741935247287 1.027827542189759 -0.3673743891931802
Ni 8.93067708164257 7.505410163736492 13.472707700447415 -1.0187286652122842 -0.25906178342800545 0.2301232460167843
Ni 3.7901227874917747 1.6510023677672674 9.414274553719626 1.5318900029670133 0.3984999069533911 -0.6108784273922446
Ni 1.5889177804517385 5.820576832904853 13.273009616519499 0.13152683909810894 0.06105675810200451 -0.4260405355758211
Ni 2.4682934887597368 2.2508323145721003 0.7519151699167737 1.3595391878740068 1.3651603907155263 2.3052757769992813
Ni 1.541482880775527 8.06074982560038 12.140259442159165 1.078918447328303 -0.03526807917367474 -0.40763709336796894
Ni 5.415605160886731 0.3926721722142416 10.555698040329787 0.507204605950662 -0.10989331998873332 1.5035865280366298
P 5.082542631889654 3.0093045268962526 7.739784984805389 0.32246467316468336 -0.6725185688015449 0.5301110782351902
Ni -0.20767514615155416 4.983196284279256 6.59356847265262 0.28432261487732324 -0.3043245119205469 0.7030154518388215
P 8.9138349861474 3.039521227637587 1.4967687684216835 -0.010925388663252152 0.0833101701835662 0.35592912347071604
Ni 5.626782655654873 4.984700698038083 1.0662165585507126 -0.2645947974310927 1.1769440693451731 -0.19087818447323254
P 2.0288212060894724 8.179928749714351 1.2487496484205882 -0.45039916692584364 -1.1769247860714633 -1.4458050982517874
P 3.6924826652419984 8.125476310248484 11.29107933610686 -0.3550868300750788 0.9440553447681096 -0.026367434249935234
P 1.9814505191956497 3.305316280454881 5.308232215477708 -0.4105666083099381 0.3367355812614007 -0.3836505006453844
Ni 6.677872517325664 7.621103251092202 9.883888316443283 0.49345048958936316 1.5196947464524022 0.546924036027471
