# total energy = -381171.1598623325 ev
CRYSTAL
PRIMVEC
9.23845082089030 0.00000000000000 0.00000000000000
0.00000000000000 9.23845082089030 0.00000000000000
0.00000000000000 0.00000000000000 13.52140661329584
PRIMCOORD
 96 1
Ni 4.932251853335193 5.8006292791121785 10.54657576113959 0.5913827805614783 -0.1623772488200623 -0.44170960957164573
Ni 4.479983492139905 1.633395063482215 4.470866988844479 -0.8018591988816126 0.9912155473936801 0.7639338845907488
Ni 7.232930983016458 7.3782518148334715 3.9322680760229702 1.0997281849848028 0.1581534405467018 0.8121893771630271
Ni 8.611335564681674 2.860492297181821 5.746935402791742 0.7664350537460478 1.5792463807637898 0.7019921527806298
Ni 3.2100752772171544 6.2170154972192755 2.7299178806061506 -0.47473594389899537 0.22153113347239908 0.9725292838380862
Ni 4.130622234924889 3.0584261065702205 2.535088190702209 -0.4299897500315562 0.242599266996608 -0.4558689317911633
Ni 1.6449985577455444 2.617447132309476 2.197080065732581 -0.17193121105708453 -1.547081108885155 0.1729192860019667
Ni 7.831684220835432 7.156917009450637 6.419625810426222 -1.9056690101349565 -1.0063333768717249 -0.41529358147196216
Ni 2.584955500681985 1.736376075069262 8.51325370357858 0.35934380557921985 1.7118425416666776 -1.8199504876202142
Ni 6.285749571517977 3.208513979024079 3.434545612817326 0.29620522524752213 -0.4260451635615114 0.3799370563495393
Ni 7.536395616425566 2.676296064202316 10.332045074805274 0.6117991394343012 -1.8126706661293492 1.0921056354425385
Ni 3.821623769458669 4.971838615212873 0.7631403844931998 1.2318026690562656 1.2585130884679163 -0.6183839917406705
Ni 8.79775826431521 5.797238767651477 8.32558935615126 -0.5622974331597477 -1.0825197915263163 -0.7416946135765743
Ni 0.4110648704194541 2.312966269307243 0.1461245770406676 -2.8231640879160347 -0.32750712068459725 0.004447751358708469
Ni 6.0046142738051005 3.9082342461455415 1.0820923569015468 -0.8202415580435422 -0.5964329413908761 -0.26681571634181145
Ni 2.354908836150806 3.0751477026025658 5.650298435401054 -0.7152176503319683 -0.22600742407619784 -1.4559360160382022
Ni 5.332092005976028 4.704856624196987 7.947206429446738 0.7329297228997506 0.9867497983128426 -0.22474578375495485
Ni 5.868725900302465 9.381277296688141 3.61655695217161 0.9446901501386311 -0.05189643175897514 -2.1982980879954463
Ni 2.6743744664262237 5.555930431538293 11.939848705597322 1.3918960069381578 -0.9191979194047977 -0.3301121624076121
Ni 6.820156999190384 7.2855254836861505 9.14474339197248 0.31431890412909735 -2.4512288188250495 -1.1224796197487055
Ni 4.38215753612526 4.638967992759038 4.652837679015039 -0.03524853878964897 -0.4305484507485037 -1.6944683120542883
Ni 9.147498298014936 8.79515302117647 3.0257524774610514 -1.2275166400864022 1.4084492833111486 1.4242068032557214
Ni 2.1240953801993587 3.950361582006036 7.836750587279708 -0.3880897673636607 -0.9079097480854881 -2.2110831555752566
Ni 8.151519389144713 0.6678550024613703 5.9135868937684695 -0.45623299999880135 -1.8501982307611617 -0.5216886584994499
P 4.4683153287206485 6.72626662323639 12.820876342118558 0.336870049956736 -0.19193773608599848 -0.16021032307573055
Ni 1.435378108036197 4.999600160006905 1.6318855006138808 -0.6614551118985319 0.9246319459361754 -1.2361064386379421
P 5.829905929845054 0.9174188182510762 10.997920277250216 -0.10380417637185994 0.6540212813283058 0.7026346714606351
Ni 1.1358675315894344 0.9360860320317156 6.829851829508804 0.7804002576768883 -0.5267910127230218 -0.7412544407153621
P 0.7831185344489716 1.6003398863530813 4.737103436877044 1.6964704300859816 -1.2290451609157864 0.9556592475556251
P 7.868259247737121 4.850408417285166 11.670082245496271 0.06822885037041153 0.09407357934765735 -0.2171278621983809
P 8.68128911449213 3.525937911662399 8.351374796309205 0.028577811637692723 1.9972820437572636 0.1008965158067617
Ni 2.510502825309238 7.017767462799151 5.148181241127683 -1.1176837410219589 -0.8682947047970273 -0.7457677552046834
Ni 4.840273836706446 0.9461744203562024 7.537048774900421 -0.5803164954449876 -0.7560087162064012 -0.6985666720388486
Ni 8.774329552968233 1.4904023212785447 8.4057578610628 -0.003082495580065659 -1.3213631910249177 -0.2669861804814047
Ni 3.762008046145561 9.256465825750578 12.756148983952025 1.0138559105010152 -0.33688701923760045 0.7370542865910855
Ni 5.8830177837621545 8.742346036137306 5.80414450965931 0.7670978841410272 0.6081314607747268 0.8263510133753897
Ni 3.506066003891363 6.196007259994107 8.799338963255064 -0.5728546398503038 0.46907180363468254 0.6151760263263341
Ni 6.589786988879573 7.608427817676503 11.528959365743955 -1.8920138812453673 0.7874515080967148 -1.010919967801143
Ni 5.118027861409467 1.3233156992669424 1.2680947070215618 -0.3483099163625614 -0.317523269999008 -0.08759979869785559
Ni 8.537566534671576 2.2297555425319193 3.4808829107286168 -1.4309690616802193 -0.9403526991055418 -1.6160838613071133
Ni 5.3304937539795665 2.4828059496711323 9.28405461151378 -0.9945309849201582 -0.20119473590789222 1.765377280360024
Ni 3.211978398091554 9.088898804294955 5.8598394344331215 0.17430793881937723 0.6350722510296288 0.17613470761547084
Ni 7.9463056804891945 5.079281798558827 1.8322046780108714 0.7619021988727007 2.47553577100153 0.6117132645887142
Ni 0.5546202342796823 5.330087262142316 5.893291864948659 -0.6263731805937341 -0.5589832811848502 -0.7424834280264567
Ni 1.4919451425699268 5.101749711017757 9.472921805241326 -0.7088282018658567 1.2837384386936086 3.337819493717787
Ni 3.535666000403868 0.7352966174866329 10.19365308112321 1.5495192860130023 0.31564070826431445 2.7228416994451883
Ni 0.4374960782915759 3.790379328695469 11.784771145841216 0.5802519607556393 0.5635238493676812 1.104533576793246
Ni 2.9896920322715186 3.0866680508082753 10.847561718186553 0.4446555795738471 1.2983577312686803 0.009680974733189778
Ni 0.8096652229566759 2.647878589398176 9.97659383079218 0.06285833008711755 -0.0014336471227330149 -1.2694842427674395
Ni 6.7191992083387415 2.657209424753242 7.567998509081614 0.9055407336326792 -1.4532453565799166 -0.1527016734035112
Ni 4.491032679352437 7.54135666453019 4.379975414035293 1.2552387885920189 -0.35346060732556545 -0.4389104495599538
Ni 7.049732502728387 4.708524289183087 9.578280794076289 -0.12665614126936894 1.2228847977413455 -0.03796105262480559
Ni 1.3180682591860737 0.37255531191048785 9.92361685825744 -1.5086225477986406 -1.2631801549262827 0.6129486796577122
Ni 3.4914138208486554 7.599946919799325 11.063917922408155 0.39298463356211677 0.4790440843560459 -1.4624401357053072
Ni 3.578911188816801 5.311425591432185 6.536951364642785 -0.8105646970754105 0.4809572422183587 0.517423969685825
Ni 0.4727675597788089 6.3951790217959505 3.5286410823801138 0.11782671590319709 1.695578000178699 -0.08360276172332054
P 2.523796956077495 4.14800899941819 3.3900597004556947 1.21897080739892 1.1024810651395915 1.3793780769768051
Ni 0.3972118133749778 8.028527893023933 5.385008004735182 0.8385354712567236 0.5465789939832264 -0.06442670301550193
P 3.0474600654153066 1.5861403874018576 0.7128120758161786 0.5230418300932347 0.27515174701133255 0.04077589636578138
Ni 7.16595221437861 -0.04581440159337262 7.949545605201097 -0.9515809637211933 0.1013459446393545 -0.8408774891263389
P 6.3637498120158185 1.8377218808564608 5.524765441452373 0.04623049172244941 0.039283885201287186 -0.38467020015915043
P 1.2572884910662943 7.369299755963116 9.42646255977886 1.0632987385131754 -1.2913028813044276 1.9193845599488364
P 7.977910420835412 3.1527691666156965 1.317768933378644 0.6689632473501189 -2.137879734808389 -0.05934851716164618
Ni 0.7697107707353015 5.851597812432869 12.932427864555995 -1.8072728921525454 -0.10856251699245174 0.5930997632525851
Ni 3.324170145172661 0.5034004150959642 2.850623783987484 -0.3335728672627029 -0.7152130223462779 -0.7775597029042995
Ni 1.3076103328277229 0.34791636350260646 1.0925595217107442 0.29245321440425764 -0.30492769272218456 -0.22349288518446028
Ni 7.676219569988853 6.51053955751744 13.110802025811973 0.14082909033564134 -0.845766441787524 1.2186195947070886
Ni 4.575970996436075 7.720517941798298 1.2738012981095066 0.47030001961482876 -0.23539272194583974 0.5984795395072596
Ni 4.612019431639507 7.604390614656539 7.393356681967663 0.5966404294159918 -0.3259516032720193 -0.9661817443535037
Ni 1.986581039347722 1.4129009571264197 12.13793679711486 1.700875758242529 0.12655226870165304 0.3992360137884673
Ni 8.53807464946814 8.8515814789475 13.016720413925455 -0.3182274951548842 0.15154262009840352 -0.2738425412816058
Ni 0.4422899104358764 4.19025643513969 3.5273698715436215 0.9751122140739142 -1.2002025256524813 0.8701721243253981
Ni 2.7109310164262186 8.666840177368046 8.359961012526036 0.8789349581196928 -0.8810160090184376 -0.915021933650237
Ni 8.187641731954919 8.958202440168108 10.1792660416198 -0.23898352462089162 1.0739446482627957 0.5640313851317189
Ni 7.809280977532428 4.915077573211365 4.265895327601141 -1.564664626294873 0.823198326679021 0.65945222253589
Ni 5.631935166653268 5.864411543757104 2.986351408445388 0.4933047080401181 -0.5735951175607541 -0.9553818255245224
Ni 7.355534464201683 1.0720852669445098 1.6807781540293405 0.9832608113229777 -0.3974056454479478 -0.1067329199828807
Ni 6.975390688765798 1.7661423636970064 12.80202713085624 0.38044073545883517 0.5329125522397273 -0.2885420522753095
Ni 6.209042714138659 8.837964002399612 13.476867326002724 -0.13053413616753648 -0.2656664332287167 0.3416073075314052
Ni 4.584396463608174 2.944848591862123 6.372097676200806 0.2337644423137974 0.7622472409169453 0.9101000708685875
Ni 4.626847145248299 2.561027912989292 12.656672116771094 -0.3141497255410848 -0.3220214149796776 -0.0004386301993153736
Ni 9.291664323476123 8.026615533698687 7.944651073942568 -1.340998191647026 3.3274438069104177 -0.39523357749729354
Ni 2.2309565411419774 7.324576415414727 0.7056809156076882 2.0067570731272344 -1.342271916153127 0.12195719313180287
Ni 5.30415493061591 8.856524050150432 9.340763918190547 -0.39419253782728886 -0.3398239903787373 1.2015569827978467
Ni 1.705658226004318 6.640921814315503 7.2908643844304 1.0129447115406554 -0.16175067097965692 0.29533053595205266
Ni 2.2894359350009537 3.4946195632924257 13.525327619918563 0.7610624765802249 0.5497797603087112 -1.2847524817804197
Ni 7.359885774550431 4.5371787413312035 6.555394084067852 -0.0732800396410738 2.717519001680694 0.5479763885513853
Ni 8.573088378176752 6.672184731980396 10.639169982439803 1.4172092888919656 -0.628728311089472 0.2723014220467311
P 1.8637465968913323 8.085898672781317 2.6742506711848795 0.731162860807315 -0.7584846885507195 1.0261676379888327
Ni 0.05357008107909308 7.492956420544854 1.1542991648734855 -1.508199087107977 -1.659309504764968 0.2805027269106008
P 6.144530611876854 5.975836499417943 5.322038723764758 -0.8456214315692275 0.32135678481248525 -0.06621567659512467
Ni 1.596007052906026 8.085067212205121 12.25971066541406 -1.4331005062009254 0.8885758236435666 -1.2712503335289267
P 3.7978162816269814 4.010605519976712 9.11591572995075 -0.593085879295514 0.20933407718557495 1.124176033614522
P 9.313374682965634 1.0153704171972344 11.689945838661547 -2.124295825476367 0.6098404730460336 -1.069680473669803
P 6.893630398773391 8.090092929465673 1.959954900162737 -0.02046803804636475 0.08987779609875489 -0.861739934397645
Ni 5.864115913330012 4.767456367133547 12.35912009190381 -0.42072503690017865 -0.1793359881615879 0.8073135371279644
