# total energy = -381167.30159177945 ev
CRYSTAL
PRIMVEC
9.29126728130830 0.00000000000000 0.00000000000000
0.00000000000000 9.29126728130830 0.00000000000000
0.00000000000000 0.00000000000000 13.59870884188286
PRIMCOORD
 96 1
Ni 2.7238093961785075 6.760447015539853 11.290844888605607 -1.1593898625114938 1.506502416131844 2.4501510123798385
Ni 0.3715968104320621 4.669865372920021 8.854323341613268 -0.18224133473384097 -0.44061226274240894 1.0352444034791204
Ni 2.180892762667231 8.876412400954903 7.700323761489919 0.9877856957765246 -0.5312827299457882 0.3185388557477159
Ni 0.9863702484929853 8.581024424766952 1.5340161371590069 0.3522624732524062 1.5945981806295118 -1.3869494615661597
Ni 2.200711036233188 6.26824212001404 1.1105424637976606 0.46553216591254015 -0.8220251323065261 0.12981114195858287
Ni 1.8600745873465931 1.491322763021374 2.6822096042249877 -1.3433504939292864 -0.4897624992148146 -1.1400088868817206
Ni 8.810425819208337 4.150873753207309 12.912110673172545 -1.5623987130788317 -1.3495869617573015 -1.3737705009820405
Ni 8.361443900067348 4.129726828389626 4.432839564372577 1.584267231017149 -0.9254662689120126 1.613404000482105
Ni 4.201659821332728 7.3237393986667625 9.227934498838158 -0.13417070447885926 1.7969038902133956 0.8850989208385597
Ni 0.6145876127110314 6.851594349661765 2.8114241903989763 0.47572607572640646 -0.3561965181994898 1.6697134737071115
Ni 6.563834504086871 4.870222265173322 6.3470478635228895 0.8758221235223239 -0.49633809554980324 0.33734313293841256
Ni 1.0548840549980791 2.5735881833260046 7.8452721800392435 0.11291976551988295 -0.2192266537089386 -0.925830851340283
Ni 8.35769951926703 8.807303953330155 3.12052329002869 1.1018953678394507 -0.9268420662136166 0.6354592020554024
Ni 7.978801630837719 6.081181031545495 7.9412110208081135 0.3555717401312973 1.0981924650665669 -0.627862620655067
Ni 4.862612717095254 9.1181525986291 5.453409110259643 -0.3807940050331958 0.6894947916445674 -0.17236906992545153
Ni 4.698138699906052 4.128584002487791 8.267987685973031 -0.06565620454722886 0.026711704963231418 -0.9420154315199454
Ni 5.323598953839252 4.502631849284926 1.8795862490852284 0.6516962327395551 0.42663908839176845 -0.35208532424459366
Ni 4.0888824164834165 1.9829980562999958 13.634745506451395 0.34483866998450935 0.5468682430888712 -1.6225239605055026
Ni 5.638879533733115 2.662124671281936 9.83079281546402 -0.2992596958031298 0.1051501488767931 -0.8774809992819855
Ni 3.113224999411691 6.735379175839454 7.056097934597901 1.3967957582326203 0.43424826819759405 -0.12296815089482048
Ni 1.5725841885290426 0.8131354951831363 5.84577190354211 0.790604966124032 0.6376037592022309 -0.26844451019448606
Ni 2.39001132016793 4.420664287447669 7.3687054168335715 0.2926303634120702 0.2359048856955679 -1.1549169143418045
Ni 7.159887896399698 7.854215025002785 9.322432264018616 1.213518268924781 1.4679908903202072 -0.5155285524353249
Ni 8.93523541546314 3.4580796837408294 1.5413460180854877 1.7158349506555224 1.0334857689168007 0.25018273577082073
P 6.986810165510508 5.579313217825309 0.5837108725730155 -0.776760861152088 -1.2035295331431852 -0.5349992595654269
Ni 8.514062259933455 6.4077783752477675 5.402522696445282 -0.9409203986835538 0.2480649180968695 -0.42026146700019884
P 1.5726863924714833 5.244753257880175 12.83130637802561 0.6191347538637659 0.12398039420941875 -0.7496236386156638
Ni 8.953371969612576 1.9390503610505931 6.127714486538641 -1.8606639061791763 1.393026778108491 -0.28462960459478076
P 4.137364250270178 4.743340716267224 5.94080020009651 -0.2983670087855313 1.488720666668391 0.6964190295682263
P 6.9433549074383185 2.6237331539942974 6.5363146988946506 0.4118927833205293 0.6144548318895935 -0.48497973311419057
P 5.396498238601791 2.045398208793651 11.735046450620631 0.6955438260521246 -0.10586414422468218 2.113527788326586
Ni 6.2276671548651725 4.540623842070298 11.705686974464482 -1.1399649210176626 -1.9458252706388681 2.637086410155239
Ni 3.6610660046950994 2.6793692637518918 6.165940619264877 -0.8872787020986977 -1.3859171636469034 0.20096076552021516
Ni 6.263029718949577 3.000029487525122 0.3687694777334589 1.2160240660657704 -0.26721063778738496 -1.0792388067821994
Ni 2.718885024406376 3.41158618119791 9.396327572656576 -0.5239597139218137 -0.4703036191592545 1.5685909579324726
Ni 5.491315623384064 6.316826157743242 7.819448031164785 1.0434346525993965 -0.27781103901105053 -0.5487829436130807
Ni 6.6570444995925815 8.27271229549403 7.09016250861331 -0.5094643485191163 0.18207601280057029 -0.6291350596095875
Ni 0.12995788757355559 4.514784827167848 6.540720617940584 -0.6488093981100633 -0.3067225798390782 -0.2364967536432959
Ni 7.728095360031244 1.9792350929646874 11.368465995508897 -0.15048409692690212 0.8606053065725694 0.045515467933295806
Ni 0.6639149518398004 7.928619495099448 12.758172953322207 0.09049100420272156 0.11188643915936215 -0.4190731031190525
Ni 4.796802669431085 6.806708236395409 5.272477470957277 1.1045716291200331 0.04103300668190998 0.6658090179918533
Ni 0.6168676897542033 7.482174091984481 9.178489160612207 0.32128967901997574 -0.3718509369072951 -0.24845881110117854
Ni 4.463701438482601 0.11444239998434262 11.86492814980073 -0.7718230575308385 -0.5386995912351497 1.0541551243406944
Ni 3.9190845030198154 5.0879631189089976 13.35874654727115 1.077836527118034 0.965630242725408 1.1709688255983446
Ni 1.1126757388144182 7.735537665294409 5.204307441349483 0.4772641096374876 0.21741376886991587 0.5907698295678278
Ni 4.231020226615628 5.417673037221957 10.437186459371574 2.270707809216425 -2.3497075249500954 0.5031805723929333
Ni 8.406413634741154 8.94711894658872 5.671355301006949 -0.970515081621535 -0.2614498240442078 -2.556819397673371
Ni 1.1719911904998697 1.0671671106259248 9.434390179074907 -0.6895567552307543 0.6333817507010834 1.3220165083382007
Ni 0.16019631763469308 5.9768679713837525 10.976279736308827 1.9532099931387135 -0.20924151747176867 0.20751990679497165
Ni 3.592292042700157 1.5824143495383172 8.375771034544004 -1.8467773780050711 -0.392937068153633 0.9904532153063588
Ni 1.9390224872481094 1.4022659640857453 11.885938492986243 2.6210098163083506 -0.7481812497421824 -1.3986893757109073
Ni 7.7226506772794155 6.727453724666571 12.14345712111975 -1.102819936536249 0.22736342388346004 1.453667788829316
Ni 0.7151442134247117 3.4354647386590016 11.076556669870921 0.7740861425334024 -0.85444417206718 -0.9724868606359252
Ni 6.151432305072077 8.942919293681165 2.8294018638742546 -1.1591083267153328 -0.6102541635446844 -0.2965451250854441
Ni 9.021421212742942 1.5815130965913422 3.741454051058277 0.6642604425578109 1.2543517580013752 0.5983975213164145
Ni 9.265958081933011 -0.005897167478815174 7.59052792437962 -0.845778268862066 0.22075363187642627 1.5873852078208406
P 4.991724170200053 2.1921073225331993 2.0312931356101163 1.211372683336688 1.4179546516984227 0.6488456506646374
Ni 7.238770757428752 4.011569779660947 8.692784435825606 -0.04944591333595355 -0.3884209254508343 -0.4898907972625627
P 1.5902190142337713 4.950285117174189 3.076667578327484 -0.119612089938394 -0.46378253021128507 0.0681702292183342
Ni 5.42766114977864 3.4654476588640377 4.882018458384451 0.6100579883734782 -1.4989935093493088 -1.5031476407269984
P 8.350749651181076 9.25445549277471 -0.03379512725806591 0.1937976721128727 0.8672305251985709 -0.635216747027293
P 4.379689797796535 8.853416513905797 7.625857039901042 0.36659251672183313 -0.8808463162097927 -0.05662340492099925
P 6.8542423608977225 7.665797411480029 4.3812460851018775 -0.1308814922046262 -0.17958975604360686 1.3181043177679879
Ni 6.415917525573026 6.012128331525715 10.14084334088518 0.7030946418161891 -0.23912519240507848 -1.6517214080050653
Ni 5.258560081377134 6.817857757388914 1.4006260553729504 0.009965595853144127 0.5435420069291155 -0.19699252490108654
Ni 2.170505125608282 5.614638616839734 5.070238167909572 -0.28442160234903274 -0.3360588669093503 0.18931572508211914
Ni 6.997820317491595 8.965218335668176 11.482070323165228 1.6003052583166182 -0.7122020034340959 1.9077176651338694
Ni 9.177105690882263 5.903643492258902 0.4782215379464582 1.4188167425884015 1.7151286686171172 1.0932698309539686
Ni 3.269996555847879 3.6950441699228085 2.536866306807143 -0.5842140307271809 -1.3078201622331604 0.35817549630273154
Ni 1.4776367260018455 3.2444176964352773 4.986687374091236 0.26245049739458026 -0.3533968439671656 -0.7616875117587334
Ni 5.31257951059067 6.948660221177729 12.090734752848459 -0.19992821049064277 0.05207358076678774 -0.303724930663335
Ni 6.4512893809249245 5.403420232885259 3.973474653806386 -1.0183255162365947 1.3262961095501609 0.39415782793461146
Ni 3.6478352397828053 7.707775358020579 13.427039221609874 -0.9224264536444242 1.05742556756185 1.0080099932431996
Ni 7.60124168492763 1.405787354466194 8.70620660084829 0.7345950264173156 -0.0666260246596659 0.36129732976116485
Ni 2.8365403446903468 9.033276870066036 10.04006282062488 0.801226193283304 -0.29450521183727985 1.0177328769579184
Ni 2.12483854587238 3.1516722643042976 0.6567969118121962 -1.0394653835390033 0.3891506045280072 -1.0307562858007797
Ni 7.9914284633628645 1.4775345220594047 1.6253994694752802 -0.6424649439492741 -2.2670136481942893 -0.9520730728662635
Ni 2.996034242502449 3.942517079641167 11.750767275221476 -0.8735243286270827 -1.2932484350665727 -0.5978197944360737
Ni 4.043234419282504 5.561353197758271 3.5335154845293917 -0.28678444615425447 0.5891731745046691 -0.2719491809136349
Ni 0.3340591606271761 1.9208766418311787 13.120157018404369 -2.52948934239985 -0.6933864133894897 1.9491000847353976
Ni 2.3694497452024055 5.756153912049808 9.36900752971549 -1.2252782376741866 0.2108559131467401 -1.7601430285442783
Ni 3.2569423250179828 7.776995300855262 2.6809989520704427 -0.438798863682754 -0.3593602606394521 0.7750014552588201
Ni 4.336373908736764 0.2405072464776657 1.6698674757043799 -1.8669967903757394 -0.6450075078654698 -0.881972716504752
Ni 6.735295554432004 1.2186891009276704 4.4157863720130095 0.019982613769513973 0.8713280923067123 0.9079866240700104
Ni 7.71472522610653 7.542251427604489 1.1622725247005303 0.02221073176908433 0.9024669798033619 0.6338499485867536
Ni 5.590323369806396 0.19596491010860956 9.932783058752115 -1.6428765560199254 1.0571301478086181 -2.61647721854532
Ni 5.574388846053178 1.3723666652881603 7.551512963043095 1.1916376668016058 0.26883377521310475 -0.7811278798715321
Ni 8.14712223276968 5.554979388256983 2.59871362888487 -0.5537791112760915 -0.5201724789652397 -0.7858347984288981
P 1.0744886294116602 6.4123218050526205 7.192411978264504 -1.7392276185478497 0.07733724042958295 0.12342400748531646
Ni 3.7880776313461206 1.5252080155741372 3.7309419110149 1.8989748859442328 0.29850790523876974 1.9949030020021254
P 2.450051490717959 9.070135328217066 4.245530399061926 0.9786333398532951 0.5776728871745535 -1.307994997248128
Ni 7.103610689184976 3.264784154783415 2.8640109061648467 -1.7505584701796368 -1.0829658779247993 -0.28773189766918833
P 8.066167419089332 4.351611587427889 10.722568669594601 0.14745919405764926 -0.5743232539760302 -1.1621951931707726
P 2.37071335758167 0.73914913212373 0.44235538716384853 -0.8708179854395132 -0.26868645100196303 -0.014390207283401022
P 8.854048320095428 -0.19383070596510263 10.113128419075574 -1.2657782546707619 0.8037245342251256 -0.05458529144504794
Ni 6.152175606471644 9.10414136724726 0.32537461289998443 0.05577648353967168 0.07395135467648555 -1.0334006654021621
