# total energy = -340893.9136215141 ev
CRYSTAL
PRIMVEC
9.03682617494126 0.00000000000000 0.00000000000000
0.00000000000000 9.03682617494126 0.00000000000000
0.00000000000000 0.00000000000000 13.22630856341824
PRIMCOORD
 96 1
Ni 6.322633659206611 1.8810786713958803 11.248261615339624 0.6392775473602281 0.5845575301095288 0.916943319042666
Ni 4.431289153028783 0.3039834772408136 6.045124468565437 -0.03365625460186462 -0.6925459197660654 -0.5976012506673644
Ni 2.6506638438125876 1.4526608057774484 4.661771602805719 -0.6308193892905458 -0.15346374838051635 1.294886227780312
Ni 3.3574792201065806 4.37060686380275 4.817524016729389 0.5203408862223038 -0.5260600480942682 0.19694470238228662
Ni 5.149834329980318 4.558753589295827 2.6089950373164985 -0.3560072850068191 -0.2616058900060978 -0.40219021132078475
Ni 7.304656546459591 5.956109017550815 2.4998518628777293 0.015596568886676366 0.7369990078731179 -0.0675855603594578
Ni 5.156675207559485 4.57271548607233 11.440108921240451 0.14693726011590824 -0.3902250685391086 -0.24784534588689572
Ni 5.560431573952623 8.085022652762621 12.238700499011996 -0.06108426890583029 -0.7648263144980312 1.4933558514475571
Ni 1.737411205406979 6.431527417236944 0.3167488982029423 0.7466594137810173 1.223947691788221 0.9183049752768829
Ni 2.5885898833221006 1.5961927193704613 0.6322254112498122 1.3311284979417977 -0.6376868058343405 -0.9491497285718814
Ni 0.24488715104667474 9.07505216819941 4.899540445702975 0.9217715936692448 0.32625113679030904 -0.402016661857398
Ni 8.757687862119134 2.2600470229942298 1.3766077785403121 -0.018541767557929356 1.0824794252066843 -0.30832823376330126
Ni 6.716982689325095 0.751898295801191 4.803517839503562 -0.42881989809317117 0.06715387213867789 -1.215771583735332
Ni 1.0669419448638575 7.492297209674684 2.4951698831237445 -1.9601655985209403 -0.9081187787725006 0.4759932133448641
Ni 7.497077690836347 3.7688717048014317 3.6728662685721645 1.5056279839466908 0.17342167955968196 0.34970294005534613
Ni 7.576791536445111 3.685705791510712 12.551820207735686 0.23341862893860443 0.8378610708975184 -0.33629772239303374
Ni 7.662948639271766 9.014288547535845 6.790479198375776 0.821954684079907 -1.0953727362295844 0.5787951737044549
Ni 6.8191711221721505 0.7553684371359337 0.28608875361826847 0.027920894779984173 0.20969943094479368 -0.0900487744589804
Ni 1.8887780474823403 6.544207605525761 9.250956704978487 0.12651653036771116 -0.8777203689863012 0.3597438692311159
Ni 0.08198299271593347 4.836066680804281 1.3396932464093483 0.3392796878394931 -1.0794069569289475 0.23246603521734802
Ni 6.1695046359846994 1.9327331710557467 6.8743472730771975 0.7490065738569552 0.37679542539676397 0.3534361818455332
Ni 3.432466805512034 4.60478718293952 0.6703942548840632 0.9752307419296496 -0.09943638632146747 -1.1140944810088038
Ni 6.129842004947759 5.584243611497016 4.630464421451338 -0.4154717589210393 0.10352803989233783 1.221336222307303
Ni 5.174495829205611 2.7478187643589878 9.362890451407278 0.2867600206742223 -0.29513744610464004 -0.9115612287951462
P 0.03884750929633214 5.4914534780982205 12.404730495591922 -0.3307166287608304 0.03314717617593001 -0.005227052726894224
P 3.9682060213684953 6.195738543002299 12.475636146515857 -0.48382967867014737 -0.14988631544190315 0.8803264391505806
P 2.5447251280126193 8.500861256042612 1.3681827452945294 -1.4784092574400538 -0.040001480093602076 -0.1886994316543589
P 6.276708507479626 7.571260998692864 5.766736898398907 0.16328716222884135 0.5879459869657875 -0.6831122851569913
P 4.709542074482064 1.081662935057336 12.590427337449977 0.06511113067703626 0.6482275574646643 -0.024768208083615406
P 4.1406919267232665 6.018011278339842 8.171174333493443 -0.5881197935394904 0.852008566042494 -0.6217678206112389
P 4.578227950171791 0.9956142741473901 3.732848203752774 1.6363801496623045 -0.509746141425593 0.6930241449540645
P 0.3774185358720256 5.500689114671417 3.5261868283466233 -1.3859035368001487 -0.04483721091934858 -0.1708181804985639
Ni 1.3297418931858624 0.8221361252547157 2.674333099499978 -0.15516427601139082 0.8905254911707696 0.3871574853573784
Ni 1.868300598876802 6.4216772764690555 4.873709581142484 0.6250560044442074 0.9917392811076339 -0.21608142321173757
Ni 6.000877455499551 5.706358246539664 9.311943535253949 0.21466345981828838 -0.6143123927744581 -0.49109587331425747
Ni 8.68898087105651 2.4172968390511467 10.230788161831272 -0.043280407955189976 -0.016379726909604046 -0.28594935184746884
Ni 2.2811931967528176 5.264574914686638 7.083958268617879 0.7012884418453857 0.22196642123760482 0.574276717008811
Ni 0.6334661675135106 0.04361985731424249 9.320156203079508 -0.08433321213144185 -0.4984654263054512 0.24198451623074455
Ni 1.4761836648772793 1.0702042391915714 11.451840529263274 0.5643352895253829 0.7135626312270485 -0.47431711119402187
Ni 4.003232760466054 6.865593299350726 1.5664443905687966 1.149071511304621 0.20689307184425013 -0.4621984735536168
Ni 5.765630790848458 7.737303646829741 8.062295034385336 -1.7631424774922344 1.0179313661219693 -0.5126517451081622
Ni 5.367413999033958 3.040630013130681 4.71684563757253 -1.1337024850477184 -1.0693752837245583 -0.5339448501589837
Ni 0.842196072480918 7.570700715456525 7.2872461967316875 -0.512813210386691 0.6086983890217904 -1.4912154080657867
Ni 5.1912681789902 4.170965295138339 7.248545987705554 0.6735871192753753 1.935257265315035 -0.04750858710392463
Ni 8.093228091127065 7.2420765236911215 9.184639954496694 0.7458037506489413 0.4510666253065135 1.1055715311394574
Ni 4.7078702615994406 0.29576357995414204 10.30374426866368 -1.0795432253964956 0.07372792581176979 -0.3277169227025582
Ni 8.294568583153277 6.9509099773228735 4.7122955954838766 -0.9006828913197455 0.7433951412074487 -0.20743171795653953
Ni 7.507488114840576 6.411411441687108 7.15567090813867 -0.8974715834712995 -1.280604521050317 -1.750426572587463
Ni 2.3511743803367935 5.388777056625967 2.6481317250573926 -0.7646008287507864 -1.124661972112005 -0.4666889052248027
Ni 2.0142363082902355 5.246754293040512 11.614881143672543 1.7196671799174192 -0.4558637895848407 -2.4945917591917164
Ni 0.9760585818338927 3.2031573358008525 3.730652254939382 0.39330859256043876 0.451977567156557 -0.1967313008198999
Ni 3.564693649287956 2.635048207806246 2.823591649977955 0.7140822511759444 0.892617854923424 -0.46260470785310004
Ni 1.17476935737987 3.2102241340398336 8.234792687614418 -0.32882686793728527 0.39769540877422477 -0.3862820247309605
Ni 3.623794493895291 2.626047528719257 6.9672494631232595 -1.0471478397849256 -0.6885542821081689 -0.12427555685233435
Ni 4.17753506792573 6.74691265833725 5.9360861213128215 -0.09516655530151998 0.2223495156086364 0.37330283886247323
Ni 0.6337698048803005 7.354169318264422 11.334219004303005 -0.011562250916302667 0.3670458022091679 0.14902165344876273
P 0.201305248403281 5.676798787409604 8.043751466627805 1.2471480411640845 -1.6731443537655315 0.6745960201558641
P 8.65045688014503 1.4152031603802917 8.098561626063953 0.7295890885622918 1.9734350619363368 -1.4507984377013208
P 1.921970310822209 3.180709859041736 10.354903550237236 -1.6468813063039445 1.0189870610799936 0.3930543104577876
P 4.012829870094951 6.1127533662394296 3.744090015785117 1.438000000385072 0.7649584692005212 0.30357786356250943
P 6.877892420070998 3.8736537068231516 10.143190588877642 0.35557868210983273 -0.13066577664939433 0.5340458945132222
P 6.341864025769975 7.898312782665962 10.22670080525392 -0.41095587332855676 -0.8613339572084778 -0.3478144647833816
P 2.3411163925618754 8.333508268078813 5.756763856792079 -0.22698624304969942 1.1600768612761894 0.5600675153879645
P 6.979520569681715 3.954614634474087 1.4686758695103412 -0.4708525496841891 -0.09387868972803187 -0.12593648949452507
Ni 5.168025461508538 2.988532708977579 0.4909011943445016 0.3322909152264858 -0.5288970033224311 -0.4602297798630203
Ni 1.5356007984083537 1.0284541012579491 7.011332909631441 -0.023390611009798425 0.3030872970793361 -0.3030906395134458
Ni 6.955184396206555 0.6920636608907802 9.068698375562802 -1.0922218493054285 0.25751577909712425 0.6253488530942778
Ni 2.804705586500146 1.5654584728093683 9.279366679791412 0.20119062214283415 -0.7018720822629977 -0.6412938064593084
Ni 6.393527562256235 1.9887072737312566 2.4879612067104 -0.7554502725997698 -0.48731506611558656 0.0481747599330138
Ni 4.082720685415001 6.887381087783185 10.491015325679315 0.01658207272839725 0.07153528903582518 -0.9957422316194399
Ni 8.406643304073793 7.082802458522271 0.5203784183543895 -0.9218574685148317 0.7833333721632832 -0.4079718509995683
Ni 7.733969057890887 3.7676788437176136 7.93515050177259 0.1629806867320161 0.1825544950988856 0.5033253255009139
Ni 3.0794160720075436 8.428187098193652 12.460518439643746 0.4312279933140316 -0.3875004705190939 0.21316167846178127
Ni 8.969339373059256 4.907069025770616 10.190024845339718 -0.20265820782729613 -0.1968608844192287 -0.44334971627823005
Ni 8.622225834494676 2.27007790028997 5.864082495982191 0.19987113200046225 0.7878148049734045 0.016351187664513774
Ni 3.680518653161383 2.6942755679830768 11.40392185363409 0.3759001672760042 -0.5233382782877309 1.1567639948528723
Ni 1.522813689062883 3.3253171549754637 12.775979590085749 -1.6795245462602624 -0.04782457568244667 -0.7102811322622993
Ni 2.998165965912047 8.386518291697564 8.073656132526061 1.5326065694180637 -0.28563799125463707 0.05842677667832519
Ni 5.743291756006052 7.847480634207819 3.5948314653071396 -0.6396066485648727 0.14680536252373427 -0.6795063129732877
Ni 3.102966041586552 8.18880156705477 3.5517800243729893 1.0312255121277143 0.3232249483694756 0.7525197292165362
Ni 3.5436468806196864 4.411859976284782 9.455581179715754 -0.5532656619747827 0.19946746880414035 -0.026257391034632198
Ni 7.139391065392474 6.244383779473442 11.410957926663338 0.8057287091393479 -0.5447236859420425 0.5392575206211487
Ni 0.6575167772746667 0.2141013945751444 0.304076556552657 -0.839819994396102 -1.5028339661413215 0.21615444254151808
Ni 4.437370937190975 0.4086507115673484 1.5365532799101296 1.8399834950116893 -0.4163227940674249 0.29406863852049353
Ni 5.916211429027666 5.6221530982138 0.224090702469479 0.23590000059956148 0.5121220978569373 1.0322058737631128
Ni 7.8341784257579725 -0.15168222731646164 11.380723416601752 1.036271559192054 0.7288642945811254 0.5164281814314591
Ni 9.276121555433846 5.095279009048439 5.80083465174331 -1.4346022875574325 -2.247258319944233 0.5637441929086033
Ni 7.89639697547074 -0.15993646454342494 2.2612227141079013 0.27479462078223 -0.7024701208583127 0.7245777513906295
P 8.371969001205544 1.6316893734404325 3.4526749566910744 0.1586578909869461 -0.5793641588340475 1.719975455186457
P 2.019911435264762 3.356141769800482 1.6261877535326428 -2.0495158042509996 0.34553980981659194 0.8815651966536882
P 4.731393120699272 0.9541442778319374 8.126415836053738 -0.4600467173179368 -0.19482174250201287 0.4361400859036682
P 8.72048324786097 1.8474345667363834 12.400259977575525 -1.0605198902164574 -1.449441409452794 0.016836097720732295
P 6.309430855847081 7.609089153972115 1.2656454909487207 0.12635635064076303 0.5641298583827962 0.09299191624770436
P 1.8202879402531364 3.428382159982598 5.9546956579030175 -1.0247211353502932 -1.599498960365239 0.07766659874454365
P 6.929040857452882 3.8342079596196323 5.853025035208256 0.6316244016903444 0.7187570309437944 0.8171562342499992
P 2.3790981738898003 8.364694355959534 10.382665584597813 0.5652819697093684 0.5566168378352028 -0.703888341362078
