# total energy = -340864.6877515535 ev
CRYSTAL
PRIMVEC
9.32798028928071 0.00000000000000 0.00000000000000
0.00000000000000 9.32798028928071 0.00000000000000
0.00000000000000 0.00000000000000 13.65244204006330
PRIMCOORD
 96 1
Ni 2.173475359554256 6.936192813107598 0.25992790007177136 -0.8587350861330502 -0.5598181183813198 -1.466686569686487
Ni 5.4306941172344505 4.2169466587576725 1.2485454886940996 0.11139792955871783 -1.4221995430177052 -1.1705031988158359
Ni 3.574705892508434 0.5398223418082462 0.5151321109592373 -0.6147073142200317 -2.0615079436158688 0.2067999979098116
Ni 9.103390441972602 8.383083809247353 13.231428390044474 -1.3212060966217634 -1.7300130419281172 -3.980302178278874
Ni 3.45446822744979 5.6009390842620155 10.220068139867553 -0.010280813100717778 1.6059341744676214 0.26829770020397664
Ni 6.797439107308737 7.412208971804857 11.95866559909861 1.7345780355909806 0.4417594889729746 1.6269591134587205
Ni 8.896533152574582 8.151563340142966 1.7550212340075324 1.0502421624395333 -1.1296072319324224 2.903253180059142
Ni 6.641661837605141 8.479777652226243 5.410121256855333 1.4020091841127595 1.5933056870703335 2.1431672084595736
Ni 6.9828513701769035 6.038981035476438 1.5583445022235538 0.5269429649198537 0.5682706200240472 -0.08906018529346597
Ni 9.394302161149012 4.577183926942293 7.772226099656243 -0.4119406058393292 -0.8679265228243309 -0.6865881595207336
Ni 3.8114686864974563 4.900314489804705 13.03346719538396 -1.1857518974447903 0.5529021079877768 0.8131828514245479
Ni 5.121023829832057 3.223964508189577 6.514057866565364 1.060937180259534 -0.38054975023287363 1.2994877311080653
Ni 5.73433852941358 2.272575821430364 3.2839853969265707 1.2517302612181282 -0.19528531240199268 -0.2589910780910701
Ni 4.341307291074339 7.226031814558504 3.545662293289924 0.9472946776410137 0.06727934197294864 -0.1346522721009681
Ni 5.878129344532198 9.010371823201089 9.898730414803765 -0.584885859983225 1.8550301049321665 0.042328585564881935
Ni 1.275965086555999 6.157782191580929 11.501513414803842 -0.5012085362682271 -0.6258479042178834 -0.932825023269929
Ni 0.5363607283479466 9.325256451547455 5.924845735078878 0.45689917282789055 1.4240417384327668 0.6476639716517104
Ni 5.763992178538593 6.852110399388544 10.08228734240582 -0.7406983111015759 -1.2564490068500362 -2.0995708119258616
Ni 3.9374710433331552 3.708730312334857 8.97455517754355 0.6588845229578782 -1.1110240696135962 0.9480852918631092
Ni 8.743022582064876 7.610130056150419 5.182985871253201 0.24995313625851792 -0.7307286014833737 -1.1762832958327225
Ni 1.450780763892232 8.401543882106239 9.725958497934123 -0.0851330823249179 -1.3420924531524692 1.860395740119454
Ni 1.8895502975639533 1.3031374929420214 12.464256119088997 0.7125946108868244 -0.6755666115992495 -0.6611144407296614
Ni 4.874597248333279 9.112578502491047 7.294486130214003 0.798744821622347 -1.504588744048899 0.6539459480056803
Ni 3.787896880477038 5.904984599590681 1.7352524455235303 0.4302414610310461 0.8327283776566432 -0.5638552645651708
P 8.855984422550538 6.217378657217831 13.292467894221685 -0.421689457695977 -0.9751572083792367 0.2863280753431262
P 0.8428837552235144 0.405039557189793 0.5107162451222503 1.7747666919947238 1.7105564758654026 2.7701911352634294
P 6.125833859321359 4.780561879717593 5.389929910867283 0.15184215361669334 0.46882549195183126 0.428033911856766
P 7.403086207147963 0.2131294232991402 11.905461598307689 -0.6960374778590916 0.08934969150942677 0.3675029443512445
P 2.2292753372408973 0.8573271997989065 4.641324984543243 0.4673185683890016 -0.16031548119502714 0.012420485151539899
P 5.2226148624273785 5.924004351262874 11.902294749022397 -0.302985224283833 0.1485082041474539 0.46229231881900384
P 2.097582912469917 8.015719964173297 11.95069204160504 0.637216036845509 1.7558680553180084 0.10959224380854674
P 4.424503546672327 2.606405577607148 11.152707586381004 1.148527465875693 1.0464698398812944 -0.03734167387325182
Ni 3.598828049361937 1.3922570159808332 2.8463016401526633 -0.6291376307127488 -0.6211566693898012 -0.25012514306000794
Ni 5.374017309406963 6.778344731794769 6.149032546132907 -1.2473131059870388 -0.55796718121551 -0.2796486064404216
Ni 2.3865544117601987 8.201533330191 2.1463141467444995 0.31632513592584877 1.0047935431884307 -0.8830710917752533
Ni 3.8968010495662284 1.3848039597836372 8.462233587025134 0.3127075937779195 0.017120461730370514 2.1918626167827475
Ni 3.5714970673121442 0.70676800223137 10.769114921317108 0.29051331706906747 -1.7446696154990273 0.4824906481437497
Ni 6.9052332467515365 7.307493065835241 3.6432357648037277 0.7289164879752995 -4.278619307663076 -1.1644207400671818
Ni 4.313873701242107 7.944230323753634 12.569120339944137 -0.7018995930668234 -0.669239383829641 0.557893390554781
Ni 5.110679099766112 5.423716788028566 8.083802093417946 1.2591252681306186 0.31905641881408275 -0.10405537315071757
Ni 6.3796575291360025 9.230502828454693 3.1512295824103083 -0.45991867638050465 2.592020885275168 -1.2646320568814606
Ni 7.815541508614065 3.2376766391155822 6.27541361896561 -0.18983534503101498 0.9688420647944863 -0.8422666561643817
Ni 1.7558057171441834 7.780328383276875 4.2603814658623325 -0.47579523840144505 0.5784874126560489 1.3663731800767047
Ni 2.1000361712682434 -0.08786957368909423 7.7154867943612695 -0.25956083455161105 -0.19032102641818188 -1.0529765306515608
Ni 0.6299959266121181 2.534132386848857 0.5896029738577779 -0.19954794433308862 -0.7096447842298811 0.10834962965069726
Ni 8.133709585998494 8.538142824473871 10.005765256656513 0.3618020373117253 -0.9287935335130326 -0.35567561269901327
Ni 0.2608616308919708 7.217813863983124 7.492446392076497 -1.270389013969896 2.4523143385797446 2.4207545614955923
Ni 5.926578873804083 1.9076932190953002 9.363800598621838 0.08603913907895505 1.709364255329514 0.6465787090073316
Ni 3.0532717981113673 1.790179324261414 6.577937740720104 -1.0879964983701713 0.4464023870616247 -2.5875332818174597
Ni 6.9571714406263645 8.630806979996956 0.7323984934867335 -2.3893613918962915 -0.06225694905769279 -0.959966102461095
Ni 8.075419037592638 1.337511100059252 1.446681116584763 -0.6585225116327691 -0.02496901124051184 0.6225581777230182
Ni 2.506129790223097 3.785350341876494 11.40146802853127 1.4536243371858901 -1.6538628798281 1.1911998079332387
Ni 7.950881173651759 4.072680116647744 0.29389574004935487 0.7771341853311068 0.25817963793336823 -0.4280848196993595
Ni 3.0148685035383314 2.6434749710084704 0.23105966688143073 1.0990180462916557 2.8243072003815426 0.9136291670677684
Ni 1.2773269716683777 4.5171117343140805 13.365686009376443 -0.17161085160318834 1.4244870535003016 0.07548270371934743
Ni 3.1788543958370865 4.857256533101005 6.693300603314849 1.0712676156512648 -1.2375292871273977 -0.3367587211898523
P 5.197475955729702 1.8999416675310077 1.0929799641415379 0.3254021585264525 0.2771677490000969 -0.04369718377763442
P 0.9319846223018826 6.442621395632965 2.6827317757717988 -0.017025330913402935 0.956559133662075 -0.3549639313439693
P 5.77060571651583 1.1238070731784506 5.805619223076275 -1.5293407541825985 2.250013514091867 -1.0511209655000606
P 7.468727203968574 4.079107095020545 2.4326467604300412 -1.2837649210561697 0.7866670645222064 -0.526273706766971
P 8.396851908054687 0.5786453954912621 4.286293662120394 -0.5371255618798104 -0.4396038760825526 -0.3583809274453183
P 2.0980679674414495 3.2938870479319817 8.164132793491804 -0.15169791472934518 0.07648594817288118 -1.033480369600162
P 0.9938962926298291 5.962388989875468 9.16024261582826 0.5301221339787838 1.3579492176790677 0.5882167241286708
P 3.9632908925870205 8.057229476160183 9.484788233290313 -0.5830907157560151 0.8004206666628731 -0.20589137005261315
Ni 5.239554474510116 4.552614027038145 3.426776252565415 0.13604581001438507 1.7278751696495083 1.42697099626442
Ni 7.393636963183307 0.9662854711733834 6.982473586977922 1.8804102355681682 -0.16125521940047713 1.610392724459607
Ni 0.944224797948892 3.9334040439564624 9.920437557577852 -1.7643043590108196 -0.1939786777754272 0.21756366418421885
Ni 3.0004008062143623 6.9558468674348735 7.958663507550782 -0.25700361534739613 -0.5841708361940714 -0.661255594293216
Ni 8.519962591021637 2.8034218478711987 3.6650249938037653 0.17672734689414724 -1.264984812235189 0.6483455710997673
Ni 3.7916000886250814 3.029093673376534 4.625378802354124 0.3473210700867309 0.4182092124568604 -0.1183432505282994
Ni 7.691861818853588 5.974468724262661 6.468390873793634 -0.3553125729326397 -0.47067180113195073 0.1509931753528367
Ni 5.95335017704057 4.565150832456207 10.340632284233957 -0.2440100313012056 -2.0256143150430534 -0.9816620993772901
Ni 5.942632327765753 4.013372818397715 12.611224977069172 -1.2977866892565584 0.3132853206582605 1.0674040189308005
Ni 7.112920726389295 2.54341372716952 11.56603505399784 1.8315068249992457 -1.7642542224991744 -0.7310219643540765
Ni 7.630558332836101 5.630723325110134 9.03791641599796 0.4382856714917613 0.3557815421492582 -0.4427907584509664
Ni 0.7551373108733476 0.9206949678394717 2.793944619965878 0.23346285191297858 -1.0525404715554068 -0.19627158757466195
Ni 8.87468702289519 5.441281374786162 4.101165902648992 -1.2203126661387953 0.3425444746336939 -0.023614554095146425
Ni 1.788537599742382 1.5050229688818373 9.486740579550728 -1.2819702910495923 0.9498295282477255 0.6089398156086351
Ni 2.6355555158001858 5.445758805292614 3.924326053604634 -0.6019230179711698 -1.0964664835143954 -0.08544984223438831
Ni 4.460192399000826 9.11437880267385 4.93961700167112 -2.9765062231170223 0.3025548216146338 -0.8885038327550504
Ni 5.358448910416825 0.7400315797022098 12.629041419292758 1.2477723050116445 1.1573442928363746 -0.27022319936146366
Ni 8.42165500746438 1.9870463468419164 9.3712816387597 -0.272593242255537 0.6148698079398249 -0.17597349944725824
Ni 1.2315265887794762 5.854958641661317 6.22478973750403 0.3067632032690265 -0.49428224146203903 -3.232019369961821
Ni 8.294971708072492 5.118057532121534 11.455272751248472 -0.4514888004455966 -0.39169599665768023 0.03189993403239022
Ni 1.6929724423703256 2.823663564952444 3.6629504510024433 0.7399979426004417 0.9985326498803835 0.45006055263950234
Ni 0.5281856864815854 2.126620914900294 7.378830660177289 -0.6193517549705785 -0.5397547719725414 -0.9466776128823052
Ni 0.0043953442804990665 0.9306488555341248 11.343281953503897 -0.6919638220103502 0.401045041972748 -0.6548715451437431
Ni 0.559875633689012 4.29678484147582 2.216282393589991 -0.11682038612586977 0.8119523214515565 -0.7275594597267728
P -0.2432280170807326 0.20301229595060605 8.36284395776215 2.0041124364155354 -0.36409700399348904 -0.7132484424207394
P 4.683849380778259 8.14179694485077 1.3042120762635696 0.20811228896333192 -0.7940268473213874 0.4440130608938418
P 3.272740516769224 6.900345385115329 5.485277726300173 0.3178515998727042 -0.3850975175045561 1.2137229287364195
P 2.7927879504183784 4.059415728772383 1.9416368063243072 -0.4078139852654654 -1.0575024435463722 -0.27094336535693986
P 0.5622262847048987 3.9037597228116705 5.182985871253201 -0.14685858435917287 -0.33228268769636965 1.3298455174643162
P 7.033763486227336 3.4876851650195206 8.293667656437488 0.255217984201883 0.8765502599376 0.4508311122569397
P -0.05177681981699102 3.192174751593777 12.060799520142838 0.11435752640767402 -0.7855357791312407 -0.1258552426346284
P 6.75413862311927 7.766485660627765 8.009259405071697 -0.1378509815439239 -0.9263201322718755 -0.07921774528174744
