# total energy = -340861.89993493614 ev
CRYSTAL
PRIMVEC
9.34655084003061 0.00000000000000 0.00000000000000

0.00000000000000 9.34655084003061 0.00000000000000

0.00000000000000 0.00000000000000 13.67962191822531

PRIMCOORD
 96 1
Ni 7.8446253759459506 0.5669383952968836 5.296078981885035 1.3005441973970377 -0.9642313054953523 -1.7595779000694276
Ni 5.395988000270008 7.610185846304409 13.564138618604193 -0.48757011954918617 1.0424753740099206 -1.2669910440319407
Ni 2.416961915565302 7.402477451486248 8.187609202106492 -0.6891718610875098 0.2587704774398318 0.4286892860525779
Ni 7.419833996020169 7.850354811486765 10.334885745576072 -1.3400409699400793 -0.39891488300362266 0.6979184969318883
Ni 1.3014417504236733 8.616164437974012 13.596272059696075 -1.3047551501545918 -1.0820747335690977 -0.6358806058635371
Ni 0.4359315336306709 5.2116459820457095 3.276666055102262 -0.013477979881776788 0.46518301010323754 0.07558734761801175
Ni 2.5305225058114735 2.0835891474253487 1.1134386883146477 0.4792130058337424 0.9732412223034466 0.3467040053280223
Ni 1.002791417902199 7.474025296616656 1.9269932994236652 -1.850231912212575 -1.5221979724902301 1.2982823979460545
Ni 7.815987544792512 1.5305257065499005 7.404915966547583 -0.11094747228486053 0.5355037100056713 2.972371117902726
Ni 4.110771861753113 4.809351749504499 11.374126841654569 1.3344555054325018 -1.4882426985907078 -0.3135753410948535
Ni 7.196283197871368 0.8646961322324722 10.252903411313909 0.3276174210102164 0.3559437787587354 0.17465786595962823
Ni 3.4276698618575017 5.897159392005807 13.099386996082654 -0.9678635029313009 1.1696084549157084 1.2861190231106432
Ni 2.23929333449621 0.24312621380407462 2.5025632342343216 -0.5534631226975694 -0.3917224790202415 -0.18356622419285162
Ni 0.5713116463401909 2.2246379430965395 11.329339105654517 -0.8703263905150753 0.6885576245422786 -0.872943259312632
Ni 7.582566789170465 2.3882399654561266 0.4839045740879979 -0.07842455995649075 -1.131480023475103 0.3549335923266661
Ni 0.24322902586108758 7.054944659130414 10.221235428443778 -0.19757590820838228 0.11615986972373543 -0.23405549119165495
Ni 3.3069030810697835 5.527101412613489 2.9949619535417207 0.067008090589433 2.8551491254630634 0.700295224694181
Ni 6.970778970639321 6.007046787851423 7.425216674532332 3.613071256642094 -1.889385956704217 1.8501028428338782
Ni 6.230849942867437 9.319791463069672 1.6017473570630567 0.34573469943621743 1.0648915369215919 0.2508008289707939
Ni 7.106229182478623 3.3779742521176757 6.437069432169038 -0.968767502802809 1.3381437529173665 -0.4604125852977877
Ni 6.340774724915604 5.36362089541219 0.41165573765977537 1.2639661411626877 0.8591968562608171 2.5194404428042803
Ni 8.978502166539718 3.1086440489461795 4.7212343394038525 -1.173030850333696 1.1102889912197846 -0.39829344736953987
Ni 8.901215539317858 7.096714393929603 5.490015234338774 1.3312683659537718 -0.13423961004358173 -0.7913582993502887
Ni 8.826031885989446 4.921715981269064 10.962110327140184 0.5894158866430946 -1.865442815625058 0.4171015812149785
P 5.441711325988878 2.854445911256869 8.287183613978641 0.43162085787707605 -1.969811092030504 -1.0033470405498914
P 5.619622917374547 2.1961216171013898 1.6320470049198499 -0.30063934975947576 1.4758047299376713 -0.7186570150308204
P 3.46514018336342 5.650176791408681 8.96138302439199 0.8433971702243991 -1.8740403274860822 -0.8128185261065937
P 1.9718137483509481 8.59245223900656 10.20930642586508 -1.5702930282252439 0.6537716272113451 -1.052476965307323
P 7.705688900718845 8.830424764789093 7.261936173514677 -0.8329862593037203 -1.538075562952435 0.6811294503990076
P 1.294179480578301 5.852660464420455 12.377677199468538 -0.5454219975606477 -0.9235963055828093 0.9535643126998095
P 5.243807462789501 6.072949316396753 6.465276387338085 -4.10591445166476 -2.515374757375339 -2.4285426900814433
P 2.884093169879162 3.4663365418450254 2.962404179050896 -0.21432176020815347 -2.1751964689809764 -2.6912796083681907
Ni 2.3304689359654613 6.306426151322626 10.571638546500404 0.6891749464113035 -0.6226193699782568 -0.11113516281563442
Ni 7.436788638876676 5.409905014169313 5.152484185820176 0.05746698386821715 -1.7394567038395203 -0.5931743252442623
Ni 4.605980154182158 3.7376295206504055 5.88338631498632 0.24022048235178628 0.8974651557133964 0.08646105710772206
Ni 4.975598845694511 3.9257008125790853 3.3596054761497083 1.7758100456575736 -0.8253038030577982 0.3902592642111537
Ni 6.650463333740018 6.218568575329702 3.1209506521706354 -0.882818352334499 1.771277190784227 -0.9382973592384097
Ni 9.259394052849856 7.354006239879941 7.6751023137574785 -0.2688173201528725 -1.5480362737095725 1.7407173157194988
Ni 4.118351914320162 1.5908203047127027 4.100548604665766 -0.8540492506216065 1.241980380920216 -1.4981134207372004
Ni 0.15765107356866215 2.737941157559871 1.7125385643553235 1.1846231831569856 1.1583493370621214 0.2517369676318181
Ni 0.339912549621044 0.05963192772260062 6.663754128746607 2.1876886879107165 0.5316789369429424 -0.4016880748733856
Ni 6.516835699275038 7.530338264207863 5.858311388935915 2.0477330013189636 2.581736986850657 -0.45247456139763365
Ni 2.176521900414458 1.6913798430220492 8.762892197812576 -1.5516910968533404 -0.9877859528868409 -1.4053580459803343
Ni 3.311735247749394 8.058932435514219 11.68476319071363 1.0529623895841735 0.7200626371290954 2.0567583447460254
Ni 4.442079042202169 4.22404270892952 1.0151400806045237 -1.5483422349857656 -0.24786540049155376 0.8981349280869113
Ni 6.613937013848492 5.273183671443306 11.974087535008962 -0.03207322638546089 -0.06697518046896853 -2.469992215475482
Ni 5.669486765025849 1.070123968695073 12.888406373886289 -0.24761034705795423 -3.196785229349875 -0.7079817947051613
Ni 4.331817784331052 8.651559825238394 2.878397381920642 -0.15654727240184652 -0.004965828645707577 -0.12073309091671465
Ni 3.009065898453776 7.738084045228575 1.102119080837517 2.498851562909335 -0.5129836745262842 -0.7838982435278178
Ni 9.106288206856233 9.280984584822585 11.711876599458085 -0.258585100901903 -0.618163133979116 0.8249322786509921
Ni 2.639297662131222 9.22005442121643 5.100008911920745 0.4738293729243258 -0.22888808805810257 0.8334919952955452
Ni 5.552664228607175 9.300602994610792 4.805268241530956 0.6048098526006616 -0.3722461154631847 -0.7951211088268307
Ni 5.17200726079188 7.215032378450284 8.25820930700225 -1.553299321880725 0.5754540251463638 0.21975604384984734
Ni 2.9296295645852806 3.2445428952160835 10.194888436851604 -0.3000315409721478 0.5348761037240014 0.2058489468504519
Ni 4.505588853784287 1.3760459176125572 6.374553158919691 -0.5360500694274446 0.46589134902417184 1.5846539249326062
Ni 9.025571395550394 0.5356293199712355 2.0906841140143086 0.9640862952770557 -0.0015609167292166665 -2.4036837220562344
P 5.392118528306065 8.933236821802089 10.782879937459557 -0.4472400524715717 1.1916170979763154 -0.46794000402308444
P 0.4837111004898007 4.880264029191553 6.114900374278309 -1.2653151989914144 0.7245085887155909 -0.2173618325860579
P 0.4347118087724713 1.2242859749107395 13.637064145298575 -0.8191313556984989 0.9362502469013941 0.5750642459071129
P 8.530026627298398 5.83550954400056 1.5261393703357005 0.38932929619771656 -0.4226433369688141 0.37615470648897154
P 4.130549162902159 0.44929897035248767 0.8984437226194558 -0.8882336098127993 -0.6230626281632624 0.11496944896006006
P 7.689855843938844 3.000429685664684 12.098257394883811 -0.046850898915267704 0.5127892991272911 -1.475924029124355
P 6.309800256102779 1.942119756975468 5.064032169206706 -0.9843561012696854 2.1832319376909433 -0.8601669334835702
P 4.821698542896696 6.520836022947907 1.587697622144699 -0.08456846807069951 -1.3315774125537583 1.1463587403591482
Ni 2.6580001099569492 6.128654758196521 5.754004818475977 0.4400191092431003 2.9018272462458925 -1.4131495170002952
Ni 0.5113525893452763 2.623483298452496 6.867894945186418 0.7896104634212465 0.3874680746192617 0.9784795878842503
Ni 2.4546004749826955 4.413534676555107 7.017809878792384 0.3247262155053504 -1.971811667400301 2.4652354175167868
Ni 5.695442136146311 3.250655539333038 13.027883079740244 -0.693524995849883 1.475608297656149 -0.5263906919608096
Ni 7.409235007597193 3.818140707842218 8.816748891896237 3.8241817090018015 -2.49931744680216 -0.2002439419588487
Ni 1.7288408179773294 3.665193753209432 13.036884742659264 0.26604155717994826 -0.15559596423217073 -1.6249968475260275
Ni 9.206763626209842 9.233634959292782 9.331554097047022 0.8999087321578824 1.4044373339382779 -1.247540905727129
Ni 5.496379300667878 0.322826120400548 8.286813490573394 0.23329778709002402 0.4996658743714556 1.0719823823301022
Ni 7.696884450018278 4.2273046551020235 2.8408606999051975 -0.19748154872236312 -0.5833768795378663 -0.38423002729793826
Ni 5.614407542118797 2.4787893480326617 10.60405986135192 -0.8793471059564468 0.9727542553646988 -0.267366703749275
Ni 3.4543729570289683 0.9031693386217986 10.608273286379324 1.364303956252502 -0.16346353990570558 -0.5389446173664202
Ni 8.760895774596396 4.409057678799723 13.549952424046529 0.43484887789607046 0.6864385213167469 -0.01913363550565737
Ni 5.579227125519077 4.708595933631764 9.254154376562449 -3.6850153510805628 3.0634038535415304 1.1177372199677136
Ni 7.88981594827848 7.833446901383447 1.0588324008698549 0.5518512981257593 -0.5195204472035375 0.09547971566656459
Ni 1.404001450569454 1.9361099249155265 3.902262467545314 0.5308998926850728 -0.4504852988817467 -0.43004040076383354
Ni 7.346687890730742 1.8875919805560306 2.861736220754154 -0.646127737512842 0.016229317374668824 1.9648786877258935
Ni 2.31680427893337 1.0686472136943408 12.610982992517743 -0.20205554124629072 -0.7681528077681028 0.15215351420952505
Ni 2.036660116674235 4.162047038550685 4.691877758506387 0.19244989983572663 -0.3810907103380082 1.1590412209228231
Ni 1.9318478978248061 4.792247561837791 1.2874639839452249 -0.8365410665345141 0.17847852525729907 0.27738295033469645
Ni 8.624716531807366 6.715019958993541 12.591681430796148 0.06742975150788387 0.792382626849745 0.50931599586671
Ni 0.3936402613059074 8.821545541683426 3.87967746258475 1.9169592383367955 -0.5330915010197529 2.5321383499869228
Ni 5.1047868686066575 6.826673852909654 10.566111931108424 0.2641803356014934 -0.36468578661742357 0.6576923024219898
Ni 4.752328444064837 7.19239503280615 4.528871111422411 -1.6465331789359063 -2.302403854768125 -0.2326149020903865
Ni 1.0690865015743054 4.7909203516472605 8.95933145652705 -0.1854027631809581 -0.3243806592404736 -0.08155359250377568
P 2.235994002121157 7.445826753343182 3.8595954638849213 0.23157077709658827 -0.22216388196039158 -0.38007666725119704
P 2.4991554818718726 2.1646891673073263 5.821226145316263 -0.3156669335165596 0.4313856019378184 0.47190053133272925
P 7.190553762330554 8.500678458296505 12.704292411497546 0.9650129208563832 0.3922410705278729 -0.4069624358984475
P 7.692921512547958 5.888700763678829 9.419773384549618 0.32282334205568275 0.695508601938815 0.793350132969337
P 7.786536563733609 8.662616794642611 3.349469141983291 -2.7662537478822355 -0.6160512298424358 -0.3097955623374471
P 3.5970293594098166 2.6278948703534173 12.299115702739716 1.6706354713007487 2.0963037111388156 -1.0937889366822324
P 3.4242303312228852 9.039208012930573 7.31562930296218 0.6910017152073971 0.3876642497904678 0.24710795350023895
P 9.177929517493014 2.3772484219063736 9.164840607980196 0.8791334472837439 -0.3011191176093717 -0.32322186304568207
