# total energy = -340894.1300128333 ev
CRYSTAL
PRIMVEC
9.01450272989336 0.00000000000000 0.00000000000000

0.00000000000000 9.01450272989336 0.00000000000000

0.00000000000000 0.00000000000000 13.19363594510484

PRIMCOORD
 96 1
Ni 6.3805730597015815 1.7811394954793036 11.521816987907831 1.0888601319220474 1.2074898033425139 -0.8391180832330709
Ni 4.5612120735254065 0.22478293055896303 5.9356983456965455 0.49786713059981996 -0.19363903504782135 0.04362467866848616
Ni 2.617117415940592 1.3907574492248789 5.0559063371732105 0.3538509007854487 1.452050307830551 -0.8818572739728103
Ni 3.0275026432932144 4.082064220928504 4.774433904598817 0.7599738715017363 0.5753792060443703 -0.1802315033926638
Ni 5.198456271368003 4.438623853717206 2.659849763699897 0.07669343619799696 0.5404955067933079 0.12069529570024376
Ni 6.958006033305088 6.07897484879468 2.745925642489557 0.09923635449551942 0.28353482886870524 -1.676236876647926
Ni 4.919313186245514 4.520619768665025 11.458765050011776 0.7838056838140114 0.6949162197704548 -0.10320048134959
Ni 5.69797689966654 7.945607886200667 12.418298446401966 -0.5753324119668349 -0.8560863356562934 0.033091126127013974
Ni 1.825085195278184 6.612525224116965 0.35482974975456705 -0.010815088337632986 -0.3857341226472905 -0.22033145673734314
Ni 2.7563103493958767 1.4931171253718099 0.2148741893858493 -0.19766075461270474 -0.04994804978335269 2.258844739230252
Ni 0.3587150003419142 0.015001033648270165 4.80913252770976 0.4800496428024249 1.0031372385319304 -0.004199125683012123
Ni 8.601773524838721 2.4693246470785106 1.145702705392537 0.5617706141220002 -1.3686154391436622 1.7642668209046648
Ni 6.771306671554397 0.8084241920499535 4.73555165086702 0.7651204486996822 0.6139195282114137 0.13068505992310395
Ni 1.000411460980546 7.565105734711284 2.713904326627899 -0.6667780667733421 -0.30507913069838427 -0.579927230426369
Ni 7.616226978518351 3.9235622230692804 3.5877449605856504 -0.19003897640138884 -0.6952167817300091 0.2600436877253005
Ni 7.871526704467908 3.7593540451130942 12.451123855888662 -1.5033114199983724 -0.12388089251707697 -0.8108053523313068
Ni 7.84398739926061 8.879690637618102 6.840622787253579 0.1529659828084914 0.7784552181353754 0.24842744364261088
Ni 6.906461107879447 0.6606007738792946 0.4279950580310048 0.5761132559969174 0.17602235040732267 0.41535605927878144
Ni 1.7898835629264653 6.2791959643296416 9.264056404888779 0.4062708091480616 1.2289942530731932 -0.546870042861084
Ni -0.04650221271436 4.869643277344626 1.1922878515301072 -0.1170510140794371 0.16953828534487575 1.5712921589137196
Ni 6.416495852255128 2.040937458187762 6.943137512843903 0.0281198981646677 -0.3629119825464524 -0.4731092069288497
Ni 3.3026523037980824 4.179799457281215 0.5849005874934322 1.0953092299815008 1.437034551148009 -1.0365996319554343
Ni 5.842668679660761 5.7071446487322754 5.082030365484421 -0.15102248592887538 0.0037612668146451357 -1.9519321548675543
Ni 5.4999733517522 2.7728609760278244 9.244490427162939 -0.7239666001691919 0.11141824127369199 0.5910349103037563
P 0.22231746411896428 5.458164089051233 12.392861323182995 0.9517249454982255 2.0839349051608176 -1.5926963356211086
P 3.9194335809138163 6.284586636838304 12.706631816846498 -0.25066687449609093 -0.9228547994310946 -1.3541103035489517
P 2.522843748556655 8.541700880026466 1.4015333855406906 -0.4944776453022967 0.40019554948825914 0.3657599935182088
P 6.350726041848435 7.7351643248047965 5.767201968890241 -0.6283339038645307 0.663223002432232 -0.06101536334110781
P 4.889430110382276 0.9447829659120552 12.828990166840365 -1.4143029138784482 -0.42256517543271094 -1.260899586422222
P 4.0929176819660125 5.959839183452731 8.019065264358845 -1.3848164743835571 2.1633382840908095 0.35568512578071
P 4.71347603563882 1.2422254911559243 3.9033237634552362 -0.1257094610853835 -1.443434798247398 1.0018861397336487
P 0.06244345897576314 5.626419778640178 3.3347313124758866 0.6443156240047678 -0.08568586950459436 0.8130429834125739
Ni 1.6432446503873086 1.1252352774144123 2.830417673185952 -0.39312758689788424 -0.3153933681401987 -1.4444138743312156
Ni 1.9079825604782876 6.4077607993104895 4.817114869693742 -1.5266022722055128 -0.32641671583389587 -0.7192655951490968
Ni 5.952789842479864 5.58998315944283 9.14989223768818 0.39689193903632286 -0.15038485234487647 0.4297611789605179
Ni 8.774040668050333 2.2929829487265723 10.202440876910117 -1.0508579416466612 0.7073976400669172 0.3755476690325919
Ni 2.0832966055426216 5.297732987652121 7.012654651949344 0.5932699702818621 -0.23474480394919572 0.3961992838446725
Ni 0.46095298070478674 9.277635851489197 9.22101846549395 0.7252740061267058 -1.2385011641223638 0.04401111547362743
Ni 1.470094085928458 1.021063686260389 11.285518931826182 0.6386561117261452 0.11688286393268901 0.461640801277934
Ni 4.0009336982228785 6.842881821585805 1.660247805045903 0.6688418912809061 0.1568519481264589 0.13284118703415831
Ni 5.686564539472616 7.753797301519523 7.93149928830216 -1.4481941673092544 0.6416905276770949 -0.13328161700568658
Ni 5.2392378807813635 3.0989786337968708 4.87970616651088 0.8046439607156013 0.08779160299368752 0.04853959947160027
Ni 0.5451700690742353 7.326572983454221 6.868276576642918 0.8887653139465533 0.05009717376670727 -0.1577263803116122
Ni 5.2083451806355665 4.541551443523075 7.043039835603106 0.9578336294991245 -0.46082473313454175 -0.29852204630615686
Ni 8.054755482747302 7.3839953645247585 8.948451459961877 0.24454944874444332 -0.20242089500550947 1.080152062625088
Ni 4.79259632428185 0.4313745950268202 10.30575969612548 -1.2297982370317273 -0.8781104053358684 0.18332634026790365
Ni 8.076381274299612 7.222662812873361 4.440977540325921 -0.09079310882417267 -0.480973697278591 1.0760933191746822
Ni 7.330530350061752 6.253711965697552 7.018433849516742 -0.016554561924571488 -1.9433462129707564 -0.9616661158713375
Ni 2.081538777550666 5.276864414311729 2.5025295671214187 0.3027710513904979 -0.5561285853448745 0.16762872702698872
Ni 2.450376162775486 5.207975586032131 11.249078706827826 -0.7831639364649545 -0.24254321694769196 2.140184728792482
Ni 0.9563305436438226 3.2799988589581672 3.676129453471411 0.08577894343903292 0.22944884565757903 -0.016241658669842996
Ni 3.7610036990747755 2.685690736631891 2.7261748674619986 -1.9160961190055514 0.04459501300155545 -0.633826808658302
Ni 1.2062125535771495 3.3443083199561596 8.330065601397076 -0.6188771293270051 0.3572488707234041 0.2405261865176632
Ni 3.952679066218077 2.723596719740464 7.119404390824902 -2.1351196555647487 0.19008499914797586 -1.3330331711636785
Ni 3.8608483290178315 6.809474075236133 5.994462084742483 0.9551393704964131 0.05784879268766811 0.19561467071695343
Ni 0.9349932161722431 7.540180635235611 11.293950196035802 -0.3207302069720799 -0.8609488059549173 0.140804407745293
P 0.017363734759508438 5.594724787769847 8.195041875358609 0.9366377121477999 -0.8278067719853098 -0.2871320593016603
P 8.43166084773007 1.7454600944938738 8.005897780523721 -0.41267002780618606 -0.038844226560707296 0.029940496313174244
P 2.089705916836366 3.029296529295261 10.401373820034564 -1.2550734666587482 0.9912885667234606 0.2735617768163934
P 3.9034148099307164 5.9096013608929026 3.6983078340283724 0.030249285802844673 0.5324078446891669 0.9794977447361196
P 6.929907828941372 3.955437503990068 10.456114386604554 -0.5519304881031268 -0.30956416305293133 -0.3717450074570501
P 6.199949472651291 7.603741892524206 10.195104874757025 0.1969058787245512 0.6613304133952095 -0.47128938011129157
P 2.225815890428837 8.407934677089935 5.806083321171786 0.17496922655245994 -0.21288477065131078 0.24151580412444212
P 6.915060943286243 3.9047219127965294 1.324904705394975 -0.15728749300198072 0.3703668961626009 0.9795095718106615
Ni 5.235046137108241 2.8160494576147856 0.5283381899635747 -0.13502225384587713 0.4805710625235337 -0.458595586693707
Ni 1.2958527666643427 1.0418781725856434 7.084137854055018 0.37958481521644305 0.1313867139758189 -0.253658353024247
Ni 6.863723351418628 0.5562615129783465 9.092261621609365 -0.09683622969445903 1.0049215841258627 -0.3652182620821259
Ni 2.881684050483637 1.6008584595248805 8.989404344923173 -0.20739186585753963 -1.1694649873593086 0.7573161221639151
Ni 6.293781429411609 2.0112977738926405 2.5277025654164698 1.3534078781652885 0.3072668823783224 0.5950494307797881
Ni 4.177626962173209 6.824699569997222 10.359378858581628 -0.7223853717250012 0.2996456183876388 0.18027186971229597
Ni 8.188981425312498 7.252059105600366 0.24122718606114102 -1.686501748909044 -1.7377546335467493 -0.11014631653980386
Ni 7.429130978656654 3.801911511523456 8.148191702846868 1.7422530356377348 0.8410410112873966 0.553981971315517
Ni 3.12161404963174 8.45160994181313 12.299331352257193 0.8782579866573262 -0.9550678938285294 -0.3246961335983634
Ni 9.136108161880493 4.708977798879919 10.25868506250092 -0.20702856898084987 0.20068977124701565 0.2870096747911831
Ni 8.675458068460475 2.4451207078046657 5.834450157710681 -0.3113240831668316 -0.20933510562683944 -0.5692952046338196
Ni 3.7773650211537433 2.529884075026999 11.604290671489359 0.3305345946570114 -0.17158951144694964 -0.7904715258699612
Ni 1.223231934340285 3.318779248811456 12.611295339615117 0.3777300213958914 -0.21229804490990534 -0.9201865085703119
Ni 3.019696084108429 8.235243852259751 7.894029607115692 0.3349895451045715 -0.2616549980764784 0.33618356541267264
Ni 5.654292620440822 7.960301525312909 3.7263312180211474 -0.9297983206284632 -0.384579440217557 -0.6839754044882349
Ni 3.0548977164601476 8.113629198724018 3.6725407800170653 1.5945436732424925 0.934914558809106 0.1536961761062966
Ni 3.5434386806858558 4.417178352215352 9.345671907830134 0.3035745211283998 -1.0682974772793474 -0.7642424169701031
Ni 7.108935849045119 6.0237790498472865 11.342014622037372 0.8778772062791397 -0.439362706606024 0.7047620022162829
Ni 0.5502235991885434 -0.11451122554772905 0.3402442846726002 1.5946899690123697 1.7422239821720127 0.33840576987497206
Ni 4.626395941268115 0.365445227925472 1.8805288930449562 -0.41660355853263736 -0.5588197590237924 -0.8857147000456874
Ni 5.802247650348314 5.517984327792847 0.38941659303422754 0.41387433252693245 0.7733513212499069 0.04748184763104726
Ni 7.825381466053453 8.681389611120508 11.117472378695767 0.734290093582387 0.4992329005990951 1.1741153416471264
Ni 0.1477522036007284 4.902735516105998 5.552316962101364 -0.5683233276388535 0.09257771152842122 -0.11180904895420743
Ni 8.039529987986214 8.82636985519546 2.4818944693963694 -0.4513679585970162 -0.3919073413375379 -0.17107580503532474
P 8.455963946531666 1.6331393930591966 3.391212579483039 -0.022951209479534666 1.0290881540697372 1.3350967385609265
P 1.786611298510672 3.171563408110837 1.5584722686624528 -0.36095537304071384 -0.7716042566518131 1.1132799555273085
P 4.769537226828406 1.04886441204085 8.005752647033104 0.762220758554384 -1.727477162880141 0.9752145439797334
P 8.606019355526982 1.5075313149058427 12.386449307538493 -0.5481090574745077 -0.27702453855401327 -0.9467627163969438
P 6.3242234044312635 7.809011129471963 1.4606540988865322 -0.17063357529158354 -1.1034506281417125 0.27937375551248017
P 1.7056971238655945 3.2544157007983263 6.201747865904599 0.3277189795850872 -0.8922864397259342 -0.521262883815941
P 7.084470489198112 4.102256706579682 5.881168718485591 -0.22351628222322797 -0.5021505884665223 -0.22545772222031493
P 2.5610291812434363 8.43932317487449 10.061150268717766 -0.5288643503122827 0.21053452525157934 0.08198039562854914
