# total energy = -340867.32533207966 ev
CRYSTAL
PRIMVEC
9.31406307421688 0.00000000000000 0.00000000000000
0.00000000000000 9.31406307421688 0.00000000000000
0.00000000000000 0.00000000000000 13.63207278903897
PRIMCOORD
 96 1
Ni 4.8825155784028675 4.603782933218819 7.316742181550386 -0.489313584602854 0.6717456951912625 -0.045626282479547225
Ni 2.125105896472545 1.9803281033581688 2.8792031621221335 0.12504945890388142 0.43042760889992326 -2.2240052629535634
Ni 4.090130994549775 8.112949256801711 10.389684371029325 -1.194183316041595 0.18942448274584153 0.588635042613012
Ni 1.3061576053393322 2.896282359190702 6.1414527478485255 -0.20430037141640944 -1.0161333936812824 -0.738676909796173
Ni 4.398808351832556 4.546482818496763 2.5569682549386 -0.21692320238674254 0.7135950271268807 0.16203477787897902
Ni -0.11843296631149342 7.348972564675257 5.059421299950641 0.10267340520152639 0.3700051419478079 0.4817023479144994
Ni 1.8483757748036544 6.3976714402844985 9.078415207991771 0.5430205872080067 1.3733064168614284 -0.21397748949485731
Ni 6.299389448973194 7.580464283027335 11.303864297886802 0.3853826528451427 0.3957837935738087 0.1746210991844218
Ni 3.4101205791169704 4.18163234809813 12.102485578231748 -0.8173670647092246 0.1858953865466605 0.04816884639574285
Ni 2.522266850936655 7.493871440606828 4.379371765453819 -0.16905800327434756 2.061331565939005 -1.0563205074231292
Ni 8.636353019286425 9.492520305612963 1.661204093170274 0.5054446858367618 -1.1102902767713654 -0.45525083859119014
Ni 2.363219913518932 4.903919294857887 7.174000442577466 0.396942075547968 0.10806680830295583 0.5046221899354664
Ni 1.7791629736821328 4.7030987855077155 2.445784423751973 -0.01726032974234447 -0.05110324643371844 -0.5895377569329395
Ni 9.070006472040687 5.121430604855316 1.1722577062405426 -0.45176930780049296 0.7867771077375095 0.01613521499896576
Ni 2.928173710427425 3.6517925681763326 4.313241919139353 0.39188137319560895 0.8441561598776107 1.2418484833280419
Ni 5.470689334024313 3.2399712787687056 11.681104334703395 0.7425093961683856 -0.274342877956792 -1.3030551367443495
Ni 7.309434367829494 6.921047260580628 7.438258102668934 0.33798488028746954 -1.3038156690594578 0.7731561745199652
Ni 7.479034138468949 7.141380731624999 2.7327674658184646 0.06993503442824085 0.22416265755797524 -0.13825207363708447
Ni 7.237958249432703 0.830577830021698 9.674464003762356 1.686935236902037 0.39554545231075755 -3.723596810898187
Ni 5.607652628398149 6.740754945776524 9.395360658876433 -1.0279938925642942 -0.7184361572692659 -3.194351680207718
Ni 4.562894197258185 7.230739850715279 6.195858983239609 0.32282334205568275 -0.8881243379284446 -1.562777179464173
Ni 3.5169156238834036 2.513381234967077 6.620484314862518 0.9624577585346972 0.30150221198040333 0.466653424001177
Ni 9.027627486022261 5.739642213204108 9.42997264787491 -1.919595133297746 -0.07866033011638066 -1.3215981898538596
Ni 5.296423217891402 6.581978116181776 1.3951199453517262 1.3988500696584876 -0.2803062946290785 0.2891591170340181
P 3.735088232343977 5.914504429360137 4.359277606237082 0.9367775801597736 -1.824971337873573 -0.5590737840161275
P 5.669116129219159 9.085337419510209 6.003891490639001 1.652467285032154 0.752767326450968 -0.1866644035022011
P 8.015663870216555 2.1260373027586645 7.610390367000346 -0.545112436740029 -0.6429711941617314 -0.19195881913192103
P 6.621134436450229 7.004547834131219 -0.38097031899249906 0.12424058984934089 -0.20625878069436093 1.6494588372231334
P 3.006458408775748 6.142019042870485 11.020099264538853 -0.6267776151210045 1.0075446235710068 1.484081625234483
P -0.39953324627485576 3.245438633668226 12.053096828503989 2.4595111134384995 1.000105393684142 -0.4168537268702305
P 1.1491504476882102 6.74377270214355 0.33761708199879237 1.484673750292527 -0.9023427955206719 0.325637157355394
P 7.199547054193145 4.589662813921252 2.01509284298757 -1.3234398710482884 -0.20038895217714522 0.7899611618924459
Ni 8.541209867159344 7.74444767376149 13.74958072897989 0.47114539833425956 -1.9041008943168882 0.08212977672221985
Ni 0.3419341501349551 1.0585432441745293 10.476384325172738 -0.5620408370642515 1.3017400174773517 0.41075841260577
Ni 1.6832374402747112 7.768431385629061 6.538650958564079 0.5879279892436584 -1.7646324317742 -0.11087291029318323
Ni 0.5556080662335726 1.9847150269657905 0.5714103052838718 -0.5956562111258517 1.708468225877806 0.48502241342666785
Ni 7.475289885198749 1.7736676765940291 11.695746041521188 0.26056844988051897 0.7770195141301134 1.0918459540232486
Ni 8.492860566846893 8.526288738455714 11.34069862228396 1.0085342411777856 -0.9044750113723261 -0.6131993622159376
Ni 6.108618813450249 2.29025354506435 6.322718382221624 -0.01950336014025028 -0.24541642473042896 0.7397310620923002
Ni 4.966025466016318 8.10168855480253 3.67147132018946 -1.0631838102018658 -2.777993404916667 0.6223044098409992
Ni 8.087484608939212 3.140627484291226 9.87977668563048 -0.19565760813974692 0.6034386832847478 0.47761660788089993
Ni 1.4097299843557929 3.886274100706854 10.5827546486727 -0.9525361285456111 0.027976430608267946 -0.9556168243534637
Ni 3.355773022321912 1.1660275295926907 0.4138815601125228 0.05540753023602716 -0.03259644587878257 1.050751497975784
Ni 7.012604498506151 2.950257353471313 4.08550469952662 -0.5504968409803939 1.7521818647156726 -0.6882768600770662
Ni 1.3953770134866954 0.4600224961205844 4.341992568379282 -0.8452859026066797 -1.115188228293615 1.2334985687014497
Ni 3.569065061843221 4.745198349640305 9.597047376072696 1.0920025342057709 -0.9346042266575388 -1.3962650825401308
Ni 5.235434734276313 3.5087192485655545 0.3511019822092269 -2.34668210786021 -0.10083532355152311 1.404323691178549
Ni 6.860263686348485 7.471741227248636 5.202693940506649 0.07346104530362832 0.2123425249945956 -0.8191056446668862
Ni 8.737792477907671 5.25517123347918 3.820702166757773 -1.0276982157007462 -0.7123909795164505 -0.8886030773370761
Ni 1.804664877796078 8.625548706367441 11.141602145969394 0.9988887476682216 -0.9217286562464513 -2.2282216150277563
Ni 7.241627990200013 3.890083552417082 13.210773369335334 1.2115158937827715 0.10813288565420086 0.8138695930789274
Ni 4.499884562002217 7.885490527668529 12.955554075844368 0.2854896386022309 0.46606618403913924 -0.9831931913098356
Ni 1.9521716913287839 2.0944533155963607 12.12361546123865 1.4432599632324306 2.3198698727633724 -0.9201538555601636
Ni 3.3777914669257716 5.594883048215454 0.4808301125524885 -1.369496556197035 -0.18691405761916197 0.09679663470577524
Ni 5.990907687010498 5.45817123353887 4.083692182893833 -0.1002586251124467 0.43758067500493664 -2.3446887315792653
Ni 5.6258895634803645 0.6835441708823408 11.04554994130706 -2.1767825825211737 -0.17658207956553462 0.6983255025623198
P 6.200911862341806 5.001567929894629 10.186607064247887 0.7246983361288938 -2.8949446601934463 1.5574714509805434
P 3.6595604966025674 6.759308558996019 7.946407292999587 0.10386254041362113 -2.295677591787885 1.7259735817514212
P 7.467959717726991 8.052547559146879 9.426673606809477 0.9446166165882183 -0.8188017402732221 -1.005851809249616
P 6.522107320110029 5.166091536274735 5.985570728991036 1.113479216022308 0.29505517080347893 2.2948928911030606
P 8.095634413942754 0.3675291948775121 13.093714227295868 0.8040518356575571 0.9322637514498203 1.5440844881506761
P 3.8153940823331793 0.5501844874295002 12.063893690172684 -1.8079370080991057 -0.3737244997809241 -0.007264909092529423
P 2.86861959249296 3.3607281037640666 0.7101106723813201 -0.15570240790304798 0.13570873838994046 0.18840966832808195
P 2.1200483603389175 3.181311310868915 8.5366767127648 0.5612471375183625 -0.5012550732354464 0.10711575724359615
Ni 8.907904522004493 1.8956353297613455 3.003309324122379 0.6566499772004045 0.6945194985526684 0.6667405286671872
Ni 0.5621297730489796 8.736516451295689 8.604769032124121 0.5294305072283979 -0.08830453807436406 1.0482644698878723
Ni 3.1922646487936777 8.773418768351734 8.084909270558091 -0.13327853168189305 1.5313806674307626 0.11303675071372145
Ni 3.451363249466331 8.028535905090724 1.2933731226560594 -1.1215121136291137 0.3519256587382778 1.4865126032734786
Ni 8.39264125046046 3.9572565737720025 6.025812137582817 -0.8547637601901279 0.33328438948800665 -1.2902710976058038
Ni 0.8014024595152985 6.46938972431568 11.260582779177126 1.5958251110580775 1.1018249196128314 1.1603851365452273
Ni 2.467928608204458 1.2182794222439808 9.606780571762641 0.2460257761796537 0.6299110185436635 -0.1352644517636703
Ni 8.568649096348416 1.5337560454154326 5.310128861391646 -0.04555840535608928 -0.6448427001528314 0.9668294052398316
Ni 8.127916955819648 5.583184585261796 11.82860369698581 -1.41639476341047 -0.0039440722494125625 -0.1924432149675073
Ni 6.08480275471418 1.0706515258940794 -0.06368211059454545 -1.3555989722793365 -0.5316416559471038 0.34241823346847483
Ni 5.296618813211486 5.511475615293475 12.643842196881412 0.4443532178420799 -0.10297371005076458 -0.9005551074926297
Ni 5.665874835343463 8.787659970466496 8.157636267597141 0.3234992850767848 0.06964655665354456 -0.2511877799965674
Ni 4.620743841689051 2.1970104617609514 2.36947244391765 0.34481398739416097 -1.1202682139196833 -0.10167633139557973
Ni 8.193758066185417 -0.3531901951027063 7.025152403992749 -0.4844791393286882 1.5489536433175195 -0.5741034246557403
Ni 0.6878742787065091 7.177808031475122 2.79371589896325 0.13690712957341583 0.32214482793141935 -1.302986231179627
Ni 1.29801711439865 0.29623097508136953 12.937886230002974 -2.1269219502453045 -3.3827402654898777 2.6367282554848717
Ni 5.338075707006653 2.9687085119993353 9.217367054786472 1.2897802740123143 1.1573756602949423 -0.2534675771696796
Ni 7.094605507936088 2.3944779084810937 1.5936845886769175 -0.07942986129255353 0.4327290033395902 0.24666623797713003
Ni 1.125008396751999 4.740504061958265 12.917860994851408 0.17990882994592242 -0.8755033067303244 0.27773133481305073
Ni 3.700076670048755 9.512452400135915 5.551184259489597 -1.4637051184606598 0.6225782323276762 -0.11123003652228586
Ni 6.165695390663638 0.6939544989422957 4.0599310771286445 0.7958734136118228 1.1243033032210057 0.04229259012062394
Ni 7.157335721306221 4.596452765747061 8.197932629159805 -0.7422402016673991 -0.24276973113620123 -0.3411293394537222
Ni 0.06687962837479285 3.6927278744512737 8.015890201944082 1.7449539795086657 0.9211707268604522 1.2494162683729708
Ni 1.4071499889432426 5.547018079171785 5.080264309821418 0.0105759757436334 -1.0217646238251308 -0.0882932252204544
P 0.6946856528768992 3.447870475893384 4.015762859634584 -0.07912081469256696 0.3921441399386924 0.8205207798468579
P 0.3004698050894983 6.197940676289086 7.0863197176147725 -0.7597563561742916 -0.8726565813101488 0.6726669214539512
P 8.513472587958711 8.984242581214827 3.8461388724316894 -0.919486397179494 0.2995643715277421 0.1508993300874498
P 4.587809315411874 1.1029061255823893 9.055894735399695 -0.6320442628365824 -1.3236321895647527 -0.12102902489057867
P 1.7397179174649826 -0.2312616609994073 2.1287709802084245 -0.20822875993653817 1.1612595687303806 0.4662021953963713
P 5.217579675771407 9.343867862348331 2.0879427856563875 -0.07027339160426607 0.9535583991625384 -2.1968898947940096
P 4.785993944972329 2.6282329441084427 4.473746507394853 0.6671251657001156 -0.4340464365994331 0.7964138594963253
P 1.4671884381464897 9.772594175849022 6.777171068751215 -0.07063437448811062 2.266833413862683 -0.021106185850995905
