# total energy = -381170.9973626149 ev
CRYSTAL
PRIMVEC
9.21235512544524 0.00000000000000 0.00000000000000
0.00000000000000 9.21235512544524 0.00000000000000
0.00000000000000 0.00000000000000 13.48321292522483
PRIMCOORD
 96 1
Ni 0.9791812131356847 7.434527096444829 5.804253481205676 -0.932755346374258 -1.408985872540909 0.5518865222390689
Ni 6.716801730613725 3.3925694900083423 0.14536543451456604 0.5643640858807893 -0.24519222453476483 1.4779130345299256
Ni 2.828948398646461 2.4731211867039846 1.1750137708208213 -0.12842274625148853 -0.6059897318413757 -0.9161725023149125
Ni 4.706757992782555 2.757782956257966 9.565287691747892 -0.06757527594681265 0.1469776264355404 1.0580066368763004
Ni 4.18087070750783 6.653153569906656 0.09083105661072455 1.4628000901478873 0.6601693032075728 2.0716267772174257
Ni 6.980192172468673 1.3922263619940118 8.203092685824075 0.13160371508263144 -0.6147633642689477 0.6545367875121437
Ni 1.605520017349459 0.1686422918974801 4.85248731531969 -0.23072951214221551 1.7142066710234798 0.47270862905632133
Ni 3.13911917920028 3.878696251095528 7.6188110458997755 -0.593743567484171 2.2979285926055906 -0.014949679331296832
Ni 2.4824164529007473 2.160665742109733 5.845997425425093 0.0362659243105698 0.17860065265746014 -0.3515549056624203
Ni 4.9423823966622376 2.3506337146007574 2.1998808948811694 0.5862971385084549 1.2988626959295566 0.16612797411174615
Ni 0.36984104637113396 4.099101844512324 8.395200688382005 0.8441083373588109 -0.9693778826932983 0.2052136272592982
Ni 5.395989544593256 5.566952428715677 4.171314731664518 -2.4509773649358757 -2.381712359991466 0.6031527766132129
Ni 4.057286965159395 0.41530954571775625 5.237297517333163 0.8241105540806452 1.1253908798582297 0.9339717352798624
Ni 0.949066024634974 7.896425363877421 11.147097871029354 -0.8966071785884753 -1.676519183775035 0.06406983389671546
Ni 5.597021555441378 0.23691505481542685 3.329989041245975 0.5152513875145385 -0.18231743938741504 0.48331083005219994
Ni 0.36944767881255935 5.280402126386337 4.111274129176132 -0.02438871325700961 0.6041323669176628 -0.5837998260078977
Ni 7.73463798533674 7.515162839775121 11.222980960414244 0.09298754537233017 0.3484279299976644 -0.3037344437450317
Ni 6.97938148522852 6.04178484257072 2.914827814443747 2.0214319015305895 0.6657853638427694 -0.8264412590963508
Ni 8.169249257254156 3.8717501354242105 2.3597373638134838 1.5655652837322716 0.78237126536033 -0.8049568639703298
Ni 3.601229330797911 7.504522569748103 5.6404725490426175 -0.2541448057423623 -1.7252194771942158 1.6268629542004884
Ni 7.325775245649207 4.136725102339459 8.131119319901925 -0.6973065743795024 -0.7877548982697465 -0.20204859926775526
Ni 3.6490506656119797 1.6238065420279268 11.793173224598872 -0.13347033597772498 0.5496031255215309 -0.21048413162961813
Ni 4.58971502248536 0.2511463008221255 9.431871602906092 -0.08761085444144912 0.4817985071727315 -0.05862500873206032
Ni 4.7884255198730425 4.661875399214044 1.0920509866170887 1.1151658596961118 -1.0719420160104698 0.5769113264181807
P 1.0212908878486702 6.322273415308909 13.103390281131832 -1.1462684946381871 -0.2814352660271992 -1.3619357131306418
Ni 6.197215696160195 8.667619238138665 13.264151403325316 -0.6935139401062895 -0.46240107648272627 0.8437977480969275
P 9.168808199653705 5.869237433388 9.83554502302114 -1.638780531573681 2.3708764457182263 -2.5591968967666117
Ni 2.800040028650979 8.685205623837 7.823081199531011 -1.0402529124373052 0.48886595554247425 -0.7152724148293037
P 2.3157373138541395 6.247699401569768 4.408080546328916 0.37991725885519734 -0.026883197544089188 0.39972760871290514
P 0.9996971277245753 0.5150701380316741 6.953346448758082 -0.1605301683089945 -0.11850805824093782 -0.19238048005037192
P 2.5906616241712745 -0.012454182726861721 10.674147541301167 -0.49229452160804893 1.6166811285714804 -0.711360224259091
Ni 5.98731218744539 0.7911063795975197 11.298568333203578 0.4129734179792178 0.867046948432855 -0.38036103126083526
Ni 6.6983770206102315 5.898993340043642 9.53991225989558 2.3765099898549202 1.6075688818575669 -0.6519651701302256
Ni 2.742748392895115 4.0484154672927115 4.155809416961077 -0.8190979313574022 -0.4111103966285501 -1.0699717796579766
Ni 0.9831609504964395 7.816756917822313 3.3177734585136585 -0.81987311896053 -0.9501264906628542 -1.2239908863213307
Ni 5.912590776026221 7.657429238067099 4.8444108436896585 0.8694810117956446 0.9150216765399208 0.678682788630728
Ni 3.0496764244883185 3.9555641412301044 11.475387511400609 2.3810798686137895 0.877465572663018 0.2506380781406845
Ni 8.83628824586565 2.240205215194816 0.7888852808065985 2.609411312837474 1.2176736858540513 0.8644699317342982
Ni 1.8165105839544697 2.5471608838530253 10.29168280487114 -0.9827427340359784 -1.110963648689306 -1.128476974982721
Ni 9.03109270473259 4.554717285833724 0.0017374501533294773 -0.36776134021895374 -0.2145269342404241 0.6888504731923492
Ni 4.654662125247676 6.5067139747988865 7.713354681576204 0.20008710466601023 1.0758300382109667 -0.8606114772201566
Ni 6.177169611676393 2.887548188812574 6.096596512360113 2.3306574502971795 1.5335877023844104 1.0974738417329872
Ni 5.771512771529467 3.6239654229422222 11.654997111927669 -2.572307723116957 -0.40062363816461327 -0.8357684500345478
Ni 6.502881635118159 5.567532807080786 6.409447166983941 -1.4886761865837008 1.3219943968510137 0.38325840741328837
Ni 7.117373350799687 6.188933789013624 0.6994075191456306 -0.9768358816332402 0.0338647710682449 -1.7760725552903411
Ni 3.8366142134475476 5.069899814596418 5.792280183409906 0.5000759653256807 0.545464420762809 1.1190682800743115
Ni 0.5381627483145532 8.428015096898228 8.893365233749973 -0.11479409972446035 -0.7735207569482356 -0.5421366419411566
Ni 8.545076491905427 8.080635614492353 13.262087835804925 1.8785677830427905 -2.073360729189397 1.2204695034316335
Ni 0.7736959498797181 2.6156363185810103 4.113228990907503 -0.8333451853050357 0.532499890182341 0.43784909817497497
Ni 4.669300557345452 5.280033632186266 9.541692086881918 -1.6641133539115147 -1.4842888561492824 1.887004086735602
Ni 2.535498042420813 1.978076865975108 8.12080424600647 -2.079036696528252 -3.0790477307263746 1.760308350477549
Ni 8.721686549643916 6.281711416236218 7.690878377842942 0.25414814817647197 -0.33889685057877766 0.005571580550506533
Ni 8.252934290090026 8.930355602788486 4.439712088462914 -0.2908313625301185 -1.4058776659292305 1.0968979146248594
Ni 8.23243680021114 8.556389263847572 6.858411287994079 0.28010137770712407 0.4967091057359768 0.4100007085041391
Ni 8.054334340962365 0.9219909132848397 12.756616050449571 -2.072937011388417 -0.7611190408497731 0.5631474398648689
Ni 1.2739857855465895 4.193758792155275 6.157189856148605 -0.4561746359570402 0.47895949506203966 -0.10944697647993408
P 7.879935248424293 6.528316947277982 4.869232613006366 0.14229230514472913 0.7180731175028924 0.8738814548561853
Ni 4.707172548757633 1.7345574738589289 7.506994244595072 -0.26797605519849976 -1.0043885944405282 -1.590823544078428
P 5.19050796627929 1.6640461086755576 13.34754440450763 0.5264441709065643 0.09477600473132064 0.5345480309606213
Ni 7.005295839848433 1.2796790209376692 1.6322773024520332 -0.7670400343198983 -0.30369047788097375 -0.5748480161312487
P 6.420440270207525 3.625531523292519 3.261979751681078 -3.1907009708290084 0.3056895105888735 1.1398973010045206
P 5.395915845753242 7.694149685104063 1.736314269957762 1.3188602220974062 -0.9402197730721034 0.43706696859331173
P 4.852635634235218 8.702690673630315 7.378822749455766 1.278503158436598 -0.0736281670091119 -1.6603618572888827
Ni 3.2847941488429044 7.410574973440288 9.766295750473008 -0.42692319529109046 -0.16358489597491827 -2.388950529611118
Ni 7.638285964373469 1.9149814465681432 3.8669311525227967 -1.1522578794524028 0.8236035325372396 0.5537677984221818
Ni 9.345934149272294 1.569840566427693 8.598636202650082 -0.0878733640742164 1.192539866900901 -0.5473382407467541
Ni 6.449376277268013 0.6547441796261608 5.949211729629165 -0.9108048102450959 -1.244979829868172 -0.6099284047741496
Ni 8.738434611037093 0.7951653432112894 10.677922764380885 0.28959517613017216 -0.8663064707224049 -1.1156697959157236
Ni 7.4174934520466 5.21038822837306 11.66396349705087 0.5396650404722125 -0.2803674868843172 0.5615919224522908
Ni 4.6002631689623605 2.686672787999481 4.740697229844491 -0.7839663777615918 0.1723497866517419 -2.005863357668371
Ni 2.8381054795181977 1.626607097948458 3.3932659440464743 0.44445657618916357 -0.3669473289580906 -0.24124609540282327
Ni 0.03554218683223996 6.235235085252405 1.7267140748104415 0.438293127690929 -0.10555869716912143 0.006724977428659386
Ni 7.332187044730422 2.7419929797849716 10.204109236989032 0.8568057303208211 0.4930427126279831 0.15184498183017076
Ni 8.487904616764585 2.0218263398784044 6.084326576733288 1.0440596877779051 -0.9638579813163336 0.9903277454720881
Ni 2.8311225144268732 6.389680216856692 11.588552080242069 -1.6164718407741516 -1.4294731938609835 1.6259016187284838
Ni 1.4436405152587617 0.20609512115708237 12.742094615260317 -0.31428085180231036 1.4502009133266378 1.3521758055304003
Ni 3.5920906746361783 8.502137705242284 12.397058755966889 0.32370677310190055 1.0693711699595 0.9265155361121333
Ni 2.6098509596399135 4.793676562224038 0.324163426565972 -1.1809022826619726 0.16202166525285644 -0.8227864359525832
Ni 1.4668280127981586 2.809353719557745 12.622903323776715 0.13851432615953563 -0.5436651627705411 1.1534992080586715
Ni 3.1472721133768258 5.8220333263590485 2.474830078556809 0.17790079837695813 0.4144479456422152 -0.3521812263925096
Ni 1.3399370350040958 3.9645369750018062 2.2206851561816143 -0.021726078823181935 0.04342361840127361 -0.6962238828382848
Ni 2.0982151875528903 7.466411057105876 0.9170015018158935 0.6100263638045945 1.3278212879454359 0.9954519540725308
Ni 5.231420034842048 7.69334821021891 11.032625147777647 1.4712649330857888 -1.6816899293426972 -0.14990816981877408
Ni 3.3304505802315627 8.21177348794222 3.519549827645922 0.5251550197814956 0.057876817712126126 -2.129882832645842
Ni 4.237729362578612 0.24934804912578454 1.3862088517068705 -1.4419039634251685 -0.2453251505682033 -1.1850142479478172
Ni 2.2877317546488287 4.992396271966721 9.437075662246578 -0.2433034921524842 0.33938741706195097 1.0834546446357598
Ni 2.2657971373896695 6.340486241147364 7.599192414688056 -0.5515736189843404 -0.36078542312175277 -0.5994493596196967
Ni 0.04720410702895145 0.7752242795745079 2.6411186137513423 0.8750371657271834 0.5927812035709017 -0.3788003716419347
P 4.726389521291278 5.539177178385409 11.92858470953405 1.7531519419384258 -1.354836640192015 -0.9205739738167177
Ni 8.0661169430096 4.283514766937294 5.608881541270628 1.454043941221812 -0.728249800925578 -0.6198222668490938
P 1.953396966925428 0.2277819260666949 1.8780362180691372 0.6037253612872313 0.35822794680722175 -0.40558638148652726
Ni 7.707240441561545 8.286568598201406 2.1233225398746516 -0.5678541013119187 -0.8529609026534342 -0.21734434908456116
P 5.1684075266301 3.8995345981094793 7.714406732517404 1.6083633527344041 1.3019169093748482 0.44787460073177704
P 8.65852664375194 2.7565208636227263 12.040023804283683 -0.5432946668049998 1.6873178170524359 -1.226370699407417
P 6.971329886956992 8.624265895500443 9.6138404875491 -0.34397297955010436 1.0503624900674815 -0.4494015788992647
Ni 0.7048842641941692 4.758172146047306 11.256932173537683 0.9678987270446104 -1.416615878282341 1.792049904555204
