# total energy = -340857.6091676003 ev
CRYSTAL
PRIMVEC
9.34878582432048 0.00000000000000 0.00000000000000
0.00000000000000 9.34878582432048 0.00000000000000
0.00000000000000 0.00000000000000 13.68289304364137
PRIMCOORD
 96 1
Ni 6.979607215052215 5.409590811588631 9.981835178563273 1.8379975749299118 -0.8148530400381192 1.3032891071320265
Ni 8.046098010907343 1.8259113706276873 11.324701326814361 -1.2430869837208334 -0.37873249451847674 -0.14922837014293008
Ni 1.1704025509343712 8.632435163859201 0.5820002511811638 2.740172734524468 0.22375925147196948 0.3112446360791478
Ni 6.7528524134825325 4.737095247947589 12.639380885631004 0.28935194977111456 -0.32450690040569274 -0.1044145562623492
Ni 4.754446594544715 5.153116219699839 4.324395899819238 -1.6529575944050112 -0.6663350656986524 -0.23910410935915594
Ni 5.022121031920231 2.847883248112385 4.823739795502641 2.532356636645316 -1.2452811631586747 1.1080590734480014
Ni 4.447750324897427 1.4083198028472481 8.213799336695734 -0.4075982697102335 -1.4077535427957046 -0.9308324183199324
Ni 2.1761168897701437 2.624886658467296 8.790109916789069 0.33879554911422294 0.4863012801390916 0.411554169034188
Ni 2.6230169012908817 6.546066618556959 1.5746954707975611 -0.3612718758398681 -0.36646936088040755 1.0083236678288763
Ni 3.9203479181461587 1.8128043728210208 1.9707063012478225 2.69628914576764 -0.474669352327118 1.193357734816506
Ni 0.27284431596830194 5.492682820508496 3.2703072033152667 0.02922675807560128 -1.1381373808906203 0.49817874830296777
Ni 2.211735763980842 1.3737760390129883 5.584495376899159 1.7190321174365815 -0.6627573756497231 -2.7778895323489516
Ni 1.5883961165077394 4.34827924311217 13.748433898971447 -0.17260638274723822 0.5159797810401306 -0.9617761590866403
Ni 7.66550893764815 6.8573998860017555 11.91120488815492 0.1731062052017922 0.5437206985988249 -0.5540876436554457
Ni 7.355475151440962 8.885301124397513 3.125063530972792 0.1905747943002008 -0.9668006088844253 -1.2367764681217732
Ni 5.3204594869889466 2.6539894289181896 13.153406114663612 2.4535890915271095 0.28229375737275253 1.664062188958605
Ni 8.590730230039274 4.660519342787528 0.7575106178168504 1.296699883950283 2.799701743128036 -2.159981966024067
Ni 4.813054133239431 9.271527515543596 5.355922236475415 0.7345896271006768 0.8475209625847855 0.14091856472565406
Ni 2.5583887444881106 5.574858648411919 9.51162209968841 0.48774521167446966 0.31529206667564413 0.5900177818931516
Ni 2.512383369162429 2.274419373320142 0.5197279884206752 -1.7802120313800116 -0.015294464265225273 -2.1768435176660965
Ni 5.326349222094653 3.642100003938018 7.585877849261828 -0.39103008093890723 0.7396287321864811 -0.10102378541324537
Ni 5.1126266280445805 0.7331757281658142 10.594103058916238 0.14794358989323553 -0.5455564662559831 -0.9466027937803116
Ni 7.225340051962505 6.500519333739499 0.6044607092628442 -1.3406495500583555 0.3086640198361652 0.7126630022309145
Ni 1.633036569094638 1.058254515493023 2.61419912644691 0.5599394744505325 0.012139720686327479 0.3397828527281568
P 4.708880612155492 8.451854015761079 7.477181385568142 -0.8588212180889532 0.5942099655976283 -1.3826863154144318
P 6.012587500982343 8.046341079340278 11.054765418133973 -1.437802282551969 -0.09406560892785736 0.1620499473876306
P 8.991493983231981 3.5555115490982576 12.292355823445627 -0.9002149505443916 2.2077476634441204 0.5688599168686138
P 8.852056841800861 1.9928806864815118 7.295636377645577 0.8221457170447906 0.9541993751806469 2.797109814031144
P 2.670518082357695 0.458602821687917 9.711132669440554 -0.255607763441134 1.888865565424373 1.5394099654931424
P 8.986230616780373 0.9971975948972038 2.0076087637601296 -1.2163025165381374 -0.17052404629691276 0.49398373638501375
P 3.5468171782279296 3.123747221920596 6.3768853799634355 -0.8427525946618647 -0.12126248105762341 0.5001335580364935
P 2.658374009496882 5.207479409604094 3.38186346061028 -0.4167943343872048 0.21087931018550776 -0.8389645883743422
Ni 3.6344339995147186 8.715134523772019 1.7100471927982148 -0.5072675979781134 0.9350197169284026 -3.7415433680742787
Ni 8.367742989180067 3.341863745335242 2.3285133181909927 0.45538145063178354 -3.094724003811051 2.2601004660142237
Ni 6.838973429028189 4.740189696074554 3.3828759341213086 1.4154552823153366 -0.8012351921443684 0.2601244203645649
Ni 1.7656023529024338 0.6054404620232855 7.669234428822156 -0.9770526256297367 0.2815273115203732 -0.18010551933776078
Ni 3.19952848028068 3.162741007834723 3.6488030834154648 -1.7142830327873702 0.18506569155651353 0.15981771562300218
Ni 1.1402433676788035 4.654255656246539 11.057898196283055 0.05614620817426459 -0.6613702654942094 1.0036694568863167
Ni 7.990164224974901 3.008972177646385 5.326148223198189 0.3150580962879671 -0.34878659888866387 -1.368124615550173
Ni 0.2904153590336582 7.900649600154052 8.153458533098483 0.1516518919827582 -0.3200192969479843 0.13086298026186494
Ni 0.0384954956266122 1.3255176062897271 13.693839794055904 2.193426104615126 -1.7248047582543002 -0.5010732962419435
Ni 0.52984243986649 7.768803672859175 5.858070767923439 -1.382579100412606 -2.261580135883544 0.8360237605784634
Ni 7.587007182596382 7.859991730352916 9.285704014455172 -0.6788843631185728 -0.4754334841866522 0.5340044997523256
Ni 7.692826089995568 3.681766902435654 7.644864948663356 -0.17466043706278953 1.545785530002183 0.9294751329610895
Ni 1.2189694935917408 9.222044391869783 11.783638835036857 0.5337545885250485 0.4504086800075404 -0.21224045219909252
Ni 4.495101925390128 7.801281355013497 3.36506088774443 2.215936627012816 -2.3255466114331758 3.168573542802349
Ni 3.6676128406101958 5.572998240021386 7.4612267475817955 1.7940286255481297 -1.3806392030774157 -0.26792283336306116
Ni 0.7449393054412268 4.756671605584649 7.8830841663602245 1.4495167427754199 0.011552480724289781 0.6529758707829271
Ni 9.245584634720844 7.401218760761945 2.026081029784518 -0.10216535521685631 -0.35229409782129006 1.0049825192707853
Ni 4.36361125195877 2.9370706654273615 9.923969933467594 -0.6228710809777467 1.4218020504689708 0.6549977863089622
Ni 3.351034904285556 7.80887256914974 11.087248709559825 -1.3705118848354267 3.040058751057687 -0.003236761769742813
Ni 6.421727766325388 0.2209604240799729 12.609592849174954 0.24145332631762284 -0.21025633188952822 0.7788866492458393
Ni 1.806942684072961 5.4617570368105985 5.488276737722275 0.767561196930691 -2.4436546060222173 -3.257097138866055
Ni 7.770972591183816 2.617706790909864 0.07018787976683982 -3.496185821606243 1.2985199678781574 -0.5599489875322292
Ni 3.6258144189314474 4.3339756007125985 1.4711707554538371 -0.08153302367848539 -0.9321927890025689 2.035354425148953
Ni 1.0556742505895707 2.1695727396526925 11.808528107690702 2.8749234798765135 0.5921854789684317 -1.238877573625176
P 3.3838491427316324 0.22525151679984445 3.590609695935324 0.3936482352880446 1.4784452528843117 2.199721450705534
P 0.8353570229782845 9.001076488761106 4.307689619447974 0.6924741859878654 1.5484221962940816 -2.3900612461767934
P 0.3050705157823959 6.5233958127929315 13.572568278472241 0.5270380957368213 -0.6863022528491987 0.49351451005807906
P 6.505735956261696 3.0310727074716057 9.990263109035961 1.3751702095430447 -0.5081078344912217 -0.1614984457595348
P 6.131148803538793 8.594460395606221 1.2391376293751368 -0.44716369070768147 -1.2008406734571127 -0.7839751195123401
P 5.116272654538589 5.213705701001554 9.25772216343154 -3.003852219230143 -2.534170035704971 -1.211864792481758
P 6.79554831860596 1.199299648095859 4.459391433077784 -0.46122171146264435 0.3812953701496465 0.16649821296697132
P 3.135676272706121 8.671550483989796 13.289537525406832 -0.22166714482963118 0.16127193157102548 -1.1813072314098751
Ni 8.43423155437337 8.315614159101628 0.02183876382052264 -1.9632452658875286 1.8518231679590946 -1.3279729830319515
Ni 1.315907054402956 3.1868328290528254 6.41563516256604 -0.9737230470358713 0.00538080469593912 -0.3111027111846449
Ni 4.328011075319836 4.589066572290844 13.140147666525657 -0.40468341005628367 0.8098597005885858 -1.2215038582334188
Ni 4.4362606670483595 6.002631044017934 11.303602051957112 2.1711320691036153 -2.0592574570187954 -0.7371908121689497
Ni 2.712503479754085 8.05609186301528 8.68245210320688 0.5372613161267263 -2.2907516152411778 -0.8935779048438481
Ni 4.964261396096081 7.2394660674303175 9.214716813495414 -0.07508212584681907 1.8271454627067563 0.7211990647263838
Ni 9.151984590469528 0.717142560378059 5.783033672919568 -0.12610386831032475 0.47292434461155325 -0.5911179569358659
Ni 6.4831212432129615 6.275961496852105 7.613367019269476 1.0080341616129154 -0.9582673746024336 -0.45345235192987066
Ni 5.312148416339784 5.961141132273295 2.2241818026256457 -0.14355497390723662 0.4095242830883528 -1.9879080587415312
Ni 4.8997734710815415 7.167106464703071 13.479660979254788 1.3000875694755931 0.9299890964830306 0.41931992902253584
Ni 2.7941464268622282 6.399430911996643 13.043231607921971 -1.925591717200813 0.01018542517343407 -1.487751360776586
Ni 8.860461400308845 5.441105568797099 5.79922016079579 -1.5875091349932144 -0.046717458661196955 -0.14555529216671706
Ni 7.624308838265854 8.42710777953123 5.28152833794023 -1.515221284062081 -1.0524378845392715 0.7843476723604105
Ni 6.787592501820316 1.2789793501687676 1.736140589073669 -0.6961218100427818 0.9321439380425044 -0.06260456220509864
Ni 0.8698531080045458 6.984197468920312 11.499568496981363 -0.3168822939808994 -0.732848476039854 -0.23451031934088648
Ni 4.983697521944912 6.694366409004284 5.824944280028902 0.5848724902467863 2.16188715346658 0.26678126355945025
Ni 7.15361616667524 0.9750596699284548 8.986650377266479 -0.034387990561566585 1.045778984461857 0.5620030418477805
Ni 1.9933294282038512 7.334655405281584 3.7522464643220146 0.2670779688642626 -0.13822713393642 -0.05856021693239592
Ni 9.202346500016256 3.243748237502886 9.660519277553599 -0.6114340427853986 0.6315909773492479 -0.4587673363848809
Ni 3.9254710528095345 1.266872672451483 12.485667213279369 -2.698115914563734 -1.6599913613233412 -0.5385946902261692
Ni 2.6440984134549566 8.427724799399448 6.094236992240604 2.04246738204465 -0.7307604831625737 0.05164960585549169
Ni 6.4598427663666 1.6431052114896307 6.70219601718052 0.01885518503329011 -0.7640189881053874 -0.25153873557808293
Ni 0.7974074964471853 3.010496029745163 3.833084480965712 -0.13892544555502528 0.3697981681433244 0.7805799777878621
Ni 0.257335615068531 0.9281717692155057 9.499663132788061 0.2552362390343282 -0.795973686635113 0.42468684976140414
P 7.395170096296244 8.9631671620093 7.30150648030093 0.6345415753371394 -0.7375631079067039 0.9131910510890853
P 6.229395194373499 3.4904720457166754 1.6618560713333046 -1.0824120623038584 -0.20166987577209786 -1.27427189396407
P 8.608147018137576 5.852199730389498 8.642087785282442 -1.5483792588712881 1.3776490101008403 0.19479551724976776
P 6.6665911661486446 4.737254177307583 5.635655672760215 -0.5789823500145964 -0.1686779942271095 1.481052865710488
P 7.035877557276412 6.683409631950494 4.12153379032837 -0.020808194994602874 1.474510693716596 -0.3554539836065104
P 3.0615964933765745 3.546340390147944 11.64024248278468 -0.22926295489901807 -0.0919148811334417 0.7283981535779842
P 1.912023037387462 6.503595084294702 7.094853438134882 -1.2923575478211873 3.265515701947053 3.343086655653997
P 8.36766819889301 8.986174524065081 11.006135838611193 1.1606450750748334 0.2460645998373891 0.7268488068129934
