# total energy = -340862.1427041545 ev
CRYSTAL
PRIMVEC
9.31607805550128 0.00000000000000 0.00000000000000
0.00000000000000 9.31607805550128 0.00000000000000
0.00000000000000 0.00000000000000 13.63502191782938
PRIMCOORD
 96 1
Ni 8.964908408998092 2.416106188845363 5.368776546296781 -0.0670782817057361 -0.7937152296182395 1.0624178785701186
Ni 5.88083942984699 9.188401119450457 10.056837523157425 -0.37718623307727944 1.0194526878625025 -2.029646061910266
Ni 3.5179187301209507 1.9496501649875067 2.311231372728378 -0.2980368791396222 -1.4625602062229393 1.2303101436711392
Ni 9.036781950521226 8.919529793215954 8.9099957190235 -0.5971052848675523 -0.60275914071922 -0.5933830988209587
Ni 1.3776802420640606 3.0726660997182664 1.5133102263768101 -0.48677976243740684 1.5699009349931479 -0.6260633626627992
Ni 7.849932249553717 1.1987835968445195 3.7925268971681496 0.15976243690503453 0.4725034550240508 -0.4776870561075192
Ni 9.07383199259997 7.036396424919981 10.286055895128925 1.923472613975281 -0.5201015165179881 -0.37462258611516125
Ni 9.019398149032934 4.827600919096565 5.850828616280869 -1.6604276775298115 1.4674782123498469 -0.38397960185002905
Ni 8.212942543654881 2.3706996248293213 1.3363140610627415 0.8130918343726383 -1.168702398161671 0.38088707896763435
Ni 5.801764560054591 1.6772853095150024 1.9796004240468361 1.7494521244893353 0.10650743423563593 1.9631794456465996
Ni 6.707613401273257 0.6771735965927014 5.9998728212597445 -0.139032917667167 -1.0153155257656772 0.47091579882195667
Ni 7.193605240630014 7.4704138652932555 4.575136137771509 0.43915444724995983 0.4224641310784724 -0.1925961956056038
Ni 2.848810062225148 5.656126313180816 9.630552427497593 -0.5616266323449682 2.8571329886623116 1.8349546743385299
Ni 1.4419891282771777 8.122101467388893 1.2410301472138145 1.0347132135659987 1.2966749442496184 -0.7215610760514929
Ni 1.462186385311806 6.251246689854747 7.676681147582785 -1.065411413980804 -0.05348383085075305 0.03844801956355314
Ni 3.6473563174083696 5.106803775797582 7.599970698378664 -0.3019310719877058 -0.42200030406817646 -1.9410610164810054
Ni 3.3105335184752596 1.1077748311751088 7.370574389317975 0.3574558445278876 0.1604995721813752 0.21823626477121127
Ni 8.069996643313859 3.602508718070408 10.219448732481103 0.23567580040389735 -0.6332256847391933 -0.02929000721336891
Ni 2.314970846424734 8.365139309418128 3.6634442524513116 -0.28159930240888925 0.17607402958086452 -1.4677726036618142
Ni 2.1029182797170742 0.9761665977211456 5.395309667957447 -1.1138139736539077 0.6399005256562076 0.34326669751169914
Ni 6.3561736760083525 3.433477799418981 0.4220174003426903 -0.6267853284304884 -2.4900995277483178 -0.9150630713008175
Ni 8.580741301831596 4.886953651830706 1.782328746643208 -0.494921931928567 -0.04244968452377851 -0.3324917183833822
Ni 2.0238527260026418 7.983319853899569 5.906091590787057 -0.7868354717792707 -0.2142765087925148 1.9296445471139478
Ni 5.493234689910302 8.629492337838151 12.12015688186371 -1.7332042951719053 -0.6404826234119227 2.096375187806699
P 0.5752752673864933 0.6660818741639983 7.129998786695683 1.3657990527407897 1.2229729865797776 0.24764814227442508
P 7.2384342078120385 3.583075379429156 7.2036274773079905 0.22642934210496488 1.3838533391393395 0.014087074220685418
P 7.883730980421627 3.7941870222620473 12.350030174116363 -0.9940800134256687 0.6462274963155 1.020191880021372
P 0.4872122455705646 4.8436432053574645 9.329613297681634 0.8456206602382791 -0.03390693716008999 0.4740887972332996
P 8.604348243402514 1.2624403575998766 10.297796016584202 0.2455390663512223 0.6283179630249308 0.042105670920798456
P 3.1106198013599062 6.421022894743614 2.1810717893984393 0.38815327361174445 -0.001039497008107887 0.8662373080473662
P 4.667764969399556 6.106241936282798 12.608495441260608 0.6980727631215655 -0.1545171293456952 -0.8353820132294065
P 5.108871945106479 3.240299606674493 3.318859297355263 0.42186583537284117 -0.6443292508515226 -0.7474196889858096
Ni 4.212516187337206 7.540126076727812 8.510571670968808 -0.7253028024821122 0.026042703920664826 -1.813004395319684
Ni 1.4925661155654601 5.908517497489925 0.7413157250101915 0.22708188808729926 -1.9710004843529152 -1.3771980386063507
Ni 3.6996940434326038 3.17518022167816 11.76551056256222 -2.1462738724093553 -0.4042314101205296 -1.3967389368527556
Ni 4.653418209328833 4.199035822517508 5.089707841118502 -2.0956280252280295 0.4082914391225162 0.8897521033398548
Ni 0.2580739918695893 5.386677390112296 11.897265990048076 -1.8238405667032396 -1.5108082425960496 -0.9702595139673031
Ni 2.5937078992273515 8.052966852788352 10.797859791711627 0.15555765479506758 0.05177147614533664 0.1669872367882479
Ni 8.592041704406782 6.629684409070921 13.586931435574758 1.8617725658623225 2.620379381813203 0.00111920120610775
Ni 1.23897315719848 2.459165101213468 10.99753129079981 0.3543018722799382 1.5284912616981094 -0.13152786753937348
Ni 6.978189569775905 5.483695026071069 0.0987467000296332 -2.8705428343103145 -1.907125282965509 -1.4668639758046158
Ni 3.26395312863525 4.102716892406335 2.823513184110836 -1.8797044677503951 2.2040293340522683 0.8240843288284001
Ni 2.498106307119716 3.608498956203833 9.279259896264584 -0.4093695026780433 -2.4257432729594353 -1.0407465642442724
Ni 7.00520619588311 6.239517747693032 11.115064793659716 -0.1100928375940491 -0.2952261491637045 -0.03933582148514516
Ni 4.548630964344747 8.439304606121391 2.3637675312133313 -0.29719535707493333 0.7800639573833921 -0.00832471781561147
Ni 5.071374731285271 4.954159838291871 1.561782711652121 0.022771746478876913 1.1876591417698321 0.7042200136698838
Ni 7.0816539316885345 8.931025833428468 2.413043994017281 -0.47040697750633825 -0.7366817337430152 -2.565335405564182
Ni 0.9796508108811783 5.962289899521231 2.9361790362324607 -0.7778057574768347 -0.4137486055823455 0.5965080176031856
Ni 3.5747468057257623 2.955004034982402 0.3060704255607352 -0.45148134424642883 1.3198662947644173 0.6975713980051147
Ni 8.800992017151097 7.480233011471529 2.0309366716895108 -1.9523784983763537 -1.164847286081639 1.417842037379958
Ni 1.3655320763937862 1.5166854414246171 3.2953939601694597 -0.32268655936750235 0.8640369579619378 0.4986898836114314
Ni 4.514105579395332 1.530081961542604 5.21716855666111 0.3594646474278003 3.983637156189378 -0.38270099224792153
Ni 3.9189852027214016 1.642452493992643 9.777728758843885 -0.7911659808338246 -2.2992195435028724 -0.10820359099113623
Ni 6.250855414580091 5.527443328208806 5.958204799332263 1.1256844998392486 0.3914910797357258 1.0556985575684144
Ni 1.6146719494920614 0.8990788473593201 9.113375948750747 0.43259376331330657 0.6658984923818662 0.00820233330513426
Ni 1.5276784134268593 3.569203739334801 5.032795920811978 2.0571239556155603 0.5572583280739435 -0.8856151983533458
P 9.39628939930642 0.22929290059524413 2.3524233430716954 -0.9134131944022205 -0.18771932712927672 -0.8050926182172456
P 7.053780226408272 0.01462624240976302 -0.007545091546284758 -0.7857319543024469 0.4383044405448387 1.2722934300814606
P 5.765198954030182 0.06764963177244276 4.020872352634048 0.6347223238893779 0.10861111084220006 0.21362267725859982
P 3.179623990868897 0.23820093434824757 1.160968704764603 -0.7772902512929968 0.2871690831871828 -0.7937777074250588
P 0.21516320514117562 3.7322351037748347 3.4193639412974584 -0.47783849408371903 -0.30184879668654463 -1.3952322704002422
P 7.185723838669085 7.7277891513152435 9.402983932934227 0.575014880726416 -1.7069317346286217 -0.815508414233931
P 0.764966452147558 7.622424309497141 12.521503768410998 1.352860490302251 0.12076445837528234 -0.8833809097061883
P 1.6663854982924402 3.9482842679307675 12.747422385566233 1.2934152996617403 -1.398708658984617 0.9638777788106756
Ni 2.4342166444151587 5.895884895765313 12.069025587936332 2.0442291019307635 0.9976798149617851 0.1364880397581262
Ni 8.88584285528366 1.7705671982086058 12.514264244222066 -2.4606087173780526 0.7351141321455792 0.3428337237393386
Ni 7.762528806057923 8.428283685885244 11.873172749207232 1.9354105030634474 0.35061516745697036 -0.7243759197924685
Ni 5.549401323979386 2.271613819561653 8.030782476323148 0.6292906113508452 0.6546488876099757 -0.5129466506407617
Ni 7.240064521456439 3.7558513614237197 3.5539141921737163 1.2335145095410496 1.8523433021286226 -3.0574738612103407
Ni 7.753166147700081 5.376420388269526 8.570347353642696 3.0393483552542238 1.0801888294002946 -0.8623156043954567
Ni 8.922920845596307 9.2179982991548 5.531728724074086 0.4979800020286005 -0.9901719366205141 -1.321691520898614
Ni 0.9808805331729545 0.2377332672342539 11.489782602943267 -0.2240374448340206 -1.2010072809419639 0.18053155113158584
Ni 1.296434726105116 1.0863105875368324 0.2349682552933509 0.34514925924639267 -0.2555596838120179 0.7209141864961133
Ni 2.366591234445433 6.025201374039148 4.561610124169768 2.392510479048234 -0.6423659564775647 1.9330692565247805
Ni 6.683633816583621 2.8052108173348995 5.257364638269649 -1.973783446414691 -0.09627598631561485 3.261615852672015
Ni 5.674050447191252 5.278173030018978 8.558062241626292 -1.995657620779963 -0.7101332938305254 1.0975430044080259
Ni 8.219640803713872 1.7934474856980183 7.957793800267243 -0.19768569431336924 0.15196993744380924 0.520061150198356
Ni 5.021626874936141 1.1007784566211394 0.04628879659961116 -0.92698861909381 -0.8424165514786848 -0.9441273356566255
Ni 6.053177556177058 7.882482625973916 7.103968733245289 0.9436293129742845 -3.4578596723325354 -1.5167120096749944
Ni 3.568719303280465 7.602581063425298 0.14464422135458826 -1.663859843139812 -0.062269290352866956 -0.056315129651961074
Ni 5.004075384044425 6.704827893960825 3.8131703943374453 -0.7904237033511613 -1.1377267757157632 0.596440911810676
Ni 5.628681147487082 4.352043087063971 11.595917884409323 1.419625354532626 0.3937613638271412 0.4773893223614423
Ni 4.096875711520398 8.810867059797179 5.241479793726409 0.1998348794458881 -3.226021757617489 0.48884410116560323
Ni 8.231686492526501 7.3456343169898375 6.826114844634039 0.967598165085056 -1.1652926011491738 0.9507026748812981
Ni 0.6948014793237547 3.5530589762162537 7.441777173227413 0.9267914154813394 -0.4197814420399867 1.165225495356664
Ni 4.698815457266906 7.04796699375624 10.550370727629279 1.2300486624796365 -1.4300578627198597 1.7894050107331891
Ni 5.740017595282674 1.7841593559639204 11.518620522293217 0.7032118841203437 0.7121485244883413 -0.22220527672128826
Ni 5.729676748738191 7.297656515454627 0.5652558255319071 2.120683425534761 0.815676307270363 0.7013912859718372
P 3.6896699435390343 0.6754771387947284 11.783822245416124 0.03705782408424586 0.29219044766117425 -0.24016288964097346
P 6.867495931360106 5.946480515209531 2.9190532901038826 0.37574641530695935 0.132944545381242 -0.682629946203934
P 3.98911663766452 6.712476393972554 6.1362229383994205 0.6875860046576286 -0.1638021541920469 -0.610619003083271
P 0.27287630815294756 6.858953087863449 5.154434087624587 -0.09915613607688731 0.2533102256562089 -0.3292616414818587
P 2.159904728647342 8.100273896709865 8.688290763933194 -1.0545760139281968 -0.12114421031220425 -0.2860907625213396
P 4.763953474419176 3.4977121570083543 9.775710896356017 0.5264619115183772 1.8793401424324407 -0.42344166450039333
P 5.284899238311875 0.15755816863383254 7.873761845388069 -1.6907805787900558 3.0983166062583156 1.1629187016003584
P 2.988746869382505 3.354207291989253 6.451001102036847 1.1292318508708745 -1.4752833102165626 1.268397437461164
