# total energy = -340884.93223800586 ev
CRYSTAL
PRIMVEC
9.16528230460020 0.00000000000000 0.00000000000000

0.00000000000000 9.16528230460020 0.00000000000000

0.00000000000000 0.00000000000000 13.41431709371167

PRIMCOORD
 96 1
Ni 0.23331508580395327 3.0194746732788214 2.791854893736499 -0.07890252803417379 0.420409819652605 1.070708657824001
Ni 2.9458682931900597 5.613689425036233 6.219910508274555 0.9257555180176573 -0.49773986099333634 0.5003834692637704
Ni 2.368345541085336 8.312021780804145 2.3099452804344103 1.0710994655045165 -0.6432319040222857 -1.5310286834079825
Ni 5.526362617728834 2.4259493387267086 8.952057255612567 0.8906633023002144 -0.9104967920863737 0.22026923604083998
Ni 7.536941374258721 8.273600918479143 7.337121728209765 -0.32262536711226375 -0.5615312444176844 -0.008583885014269089
Ni 3.008146384673453 8.084951918184412 6.600836127496705 -0.7232937424718834 1.0927936626484986 -0.3920919465445183
Ni 1.2213563197918402 4.229585192003682 9.917888261625222 0.3023938705567373 1.0072265781099559 -0.9241560347410214
Ni 2.6149924461492953 3.1564773092602443 2.60197499606337 1.688187621251899 0.24299701665565895 0.04708872595768665
Ni 7.05356439930152 4.1894045955263906 8.54149936301662 -0.28225107706027514 0.46138086274832796 0.37292797202155775
Ni 8.438181888128488 5.967698443953978 13.098972520114991 -0.42947552939929906 1.3533358872767725 0.24467260458586895
Ni 5.292308810192201 7.834043156970375 2.9878645320401054 -2.847026239245613 -0.07434370501889777 0.5181626476240624
Ni 5.847624083906305 9.122800960907746 0.8543536805214818 -0.04816473263068479 -0.5665477237956694 0.18487414437099772
Ni 4.038461565557294 1.3025148922841805 1.7120288592554112 -1.166444712475746 0.4774618274705906 1.1005553088717885
Ni 1.0194268258165455 8.775262631112485 12.91877849250509 -1.4793469387629747 -0.29386629270170034 0.46090340889127723
Ni 6.201248160978237 6.709068943144593 1.0932788354640641 0.4486351330468854 -0.4142965076660155 -1.4658759008597337
Ni 5.096492559339706 7.412156059240854 7.482559173255526 0.8164903185312261 0.15812490130161153 0.23183405806030394
Ni 5.65016724756808 9.049139589126725 5.496341736396405 0.29821762769186055 -0.3206646438414671 -0.564397510221886
Ni 6.540244447909257 4.3616385756817895 0.01934882692135281 1.6902589019586312 -0.6372366056707993 -0.4366931301936608
Ni 3.005534279291148 5.877182118495553 10.933701216732143 -0.09134923843795881 -0.8842982793141351 -0.42124285707686165
Ni 0.27413083632683727 3.0042144786769303 8.03632918041715 -0.7474335729428805 -0.702182414414565 -1.2716120877437198
Ni 8.321058748898718 4.865160840569896 6.338640321446495 -0.8688251233792005 0.20959478704612935 1.8618607547007546
Ni 4.941342664912789 2.7381371756814334 3.8880730351518102 0.3315044147694485 -1.3342932688230245 0.3818427580126843
Ni 0.7931790889960867 6.982377653672157 6.650442300027202 -0.9708395548404892 -0.7233616195953413 -1.365359908320842
Ni 1.670895073445629 1.9760164779450635 5.206512604986012 -0.14060437591934496 0.10804855347051069 -0.5159021337246599
P 8.195567707163526 8.194871145728245 0.979852971010512 -0.19804847696942665 -0.9512762879965811 -0.8869619421892273
P 1.4837675099700662 4.938822212350916 2.875412020539539 -2.2902361090573393 0.4098215026137974 0.4372914258992921
P 8.007688590560424 8.280309904934748 9.63771750443193 -1.1027970537181138 -1.0485305790650652 -0.7025734792053965
P 4.098320022581289 7.400094548072032 9.64132587597233 0.4448129310873178 -0.5882542622348257 -1.2435965763674002
P 1.2281569590678785 4.8975601125925285 7.599733638064737 -0.24142350152095196 1.433459689312557 0.0091451568343778
P 5.8347651931997255 0.6194530009240587 12.020180329448372 -0.1666609637970807 -0.5868452977024409 0.07708167277535112
P 3.8389792018875277 3.4364858409613714 9.527598473739557 -2.5638423659584233 0.4273903647354962 0.5352214028785621
P 8.35530024261203 7.948535860253753 5.21776665480683 -0.46076019844519356 -1.0250967735221572 0.28641420729902933
Ni 6.940144034017194 4.094039835867124 4.57882918078718 0.1469017788922825 -0.7485813133940785 -1.006997492818285
Ni 2.215267000400179 6.617168660097649 8.686078937663137 0.1884819163269141 -0.48734617646383804 -0.0836510984627527
Ni 2.013300845296711 1.8912101231995386 9.667161889523845 0.9682681945688874 0.5946511669001049 -0.9145095127901927
Ni 6.827905990116438 2.5751051386973853 11.509725445222807 0.5706841145615462 0.19735505044682786 -0.47945314686900653
Ni 7.474177522827039 8.288347857286617 3.1958403625792844 0.939747461421375 -0.7000939073166524 -0.16703505930704782
Ni 8.713873571987278 5.955930221810537 8.79906761816323 0.6171094959036211 1.137474293385325 -1.6104197210428008
Ni 5.089508614422804 3.833415875687319 1.7398097456564876 -0.20403477645984863 1.0425419655817982 1.4991117800947278
Ni 5.436157911859877 2.2794423052665103 -0.005312197472225897 -0.7141277597018991 -0.375515787353392 -0.1314471349001091
Ni 4.06798293901837 1.4545027644061992 6.550855094930643 0.09011665158243834 0.2722060341194473 -1.7396148266839395
Ni 7.900097344655558 1.1971508099158077 8.705636733015075 -1.150063700014561 -0.7231142794712255 -0.9336374918688953
Ni 0.6347700202746176 6.6960817384894105 1.8129047030072398 -0.2743945571303339 0.2739173603835992 -0.24144689855971965
Ni 0.034539365379715824 0.6052605616801977 6.0726345076509345 0.048286088699897485 -0.260612415744577 2.922710517452805
Ni 0.3976568415919714 2.834271819032326 11.666391277299663 -1.6112252476632314 -0.7382817312402834 1.4581458792053277
Ni 4.2332513048209535 1.6980976305497808 11.074270063956567 -0.9235443692989513 0.48382762178761834 -0.36512493103737115
Ni 1.090558579753649 4.300176194300239 0.5386005488519607 0.5081795682694217 1.023220639545367 0.014714937612671432
Ni 4.256246997467287 4.978416230777445 3.9066648097763967 0.2705926668857404 0.8528236057446216 1.423064462121162
Ni 4.428627622135377 5.385510563289276 12.853356709280888 -1.2815409168216574 -0.05872168221092468 1.4296130618729572
Ni 7.111699783301398 2.4105241690480406 2.0242872688818685 -1.4831097482395166 0.4306996316143873 0.3795724739212689
Ni 6.05739905931056 6.509650736449129 4.980158550893853 2.045620068741019 -0.3484176455850193 0.019696449987662852
Ni 0.25738678256215564 7.134759632922033 10.867743264508412 0.2781015736682759 0.36619142462867255 0.028680398653828026
Ni 0.7208338517164665 8.906032875304545 3.9837970738671684 0.5455672648892603 -0.7093043701713267 -0.2648187405164407
Ni 6.416348165249578 6.461853790593956 9.857980312078194 -0.6583823865104791 1.291609356801253 -0.38484760627727915
Ni 2.621417308861563 3.138824976045084 7.303881083295568 0.00687384430169784 0.7426281811344371 1.2682645114277256
Ni 1.7628411829027895 6.572854521418884 4.230271671628716 1.4219491175697965 1.2425951316860793 0.023775248042726797
P 4.0587168388727175 7.603838767891877 0.7736671200543653 -0.028290619414577084 -1.1627893751113458 0.9451853446074948
P 6.356984633455915 5.544528206738412 2.8883039062614726 -0.9636978015893856 -0.1803664863086313 1.4636639808100793
P 1.8121595655771294 1.174961662089274 2.781284573956102 -0.18992764763450515 0.23525311104418198 0.08333099611917262
P 0.8575578631237767 5.357363982134677 11.790742157948683 1.360265010296438 -1.4658944128024947 0.5857235253931719
P 5.817076198856393 0.6768505797194602 7.636864028678059 0.7037592719833815 -0.6452599901959081 -0.6895634400989736
P 3.338554802330016 3.252960233328778 5.239578193013186 0.40791271562685877 1.0810030977714737 -0.4264166879683173
P 1.9174778215352866 1.1113179435814469 11.670080303322043 1.1646626808746587 0.29860997803427286 1.2664176880269737
P 5.732948074982064 0.8975890655037647 3.0785724118932323 0.6717840046283656 -1.0116025956904642 0.5006434077933765
Ni 3.505307943823594 0.17539508593209066 13.094694166457234 -0.33168104955662875 0.5002145477860741 -0.9360139625208718
Ni 1.0393246531322846 4.565987704116483 5.296119734465753 1.7229193683061295 -2.163301003094971 -1.0517699119379693
Ni 4.627120135344479 7.5759488146344856 11.73858712048198 1.162292123759953 0.2815820760177086 0.7062329303348547
Ni 5.6661331688872965 9.031267289142528 9.88928891553769 1.622649173229457 -0.3964597365949108 0.2019115594692587
Ni 2.350225778485973 8.183029601328458 10.728005708365306 0.23101001949711183 1.5567194033058676 -0.12602364989169265
Ni 7.5705687940751405 8.373218369006443 11.909874327002319 -0.8897081374757967 -2.101635921985006 -0.9051067314190541
Ni 3.3852794101861368 0.3645958362058202 4.146606394497567 0.9861080509637855 -0.22302520151942234 0.5319491598851935
Ni 1.2122918558511375 1.7956528926173663 0.6988536723205173 2.032135661101339 0.37391321875296246 -1.6180636107413038
Ni 7.981760007660273 4.946750181318264 10.732070510951456 0.1453200362274594 -1.0139626112822084 1.7971710278318531
Ni 0.18797168595173935 0.5569118658460259 10.477936486986424 -0.126750243645072 0.24782554839255386 1.3641394056501797
Ni 4.487083791006765 5.259643744990314 8.46187139262549 -0.03666470241088524 -0.10678305649452578 0.28299361165325454
Ni 7.9093267836730385 1.214427366567198 4.205387930881488 -1.4108769189160346 1.1332430289127966 -0.14394989535281016
Ni 5.171272095529993 4.075470974447646 6.142912057301614 -0.9049750909371964 0.4471354085729074 0.41161973216480074
Ni 6.778532615749838 2.604149917492216 6.853615522775756 0.8227496691773766 -1.2553043517226317 -0.8445744783619519
Ni 0.7450164483873913 8.455861717189778 8.447719280622618 -0.08756457458454596 0.7387838676876824 0.20913790201436885
Ni 8.056750345337555 4.8941964540826834 1.9072878609596813 0.6947946065909261 -0.7456083468086836 -0.7248831984461903
Ni 3.8266335669753673 0.32772665613072854 8.566422514476633 -0.895281003577884 -0.874572310275623 1.0560759955124908
Ni 2.2096303519436242 6.771585331961109 13.163696825375709 0.05717387810783056 -0.5419247830406666 0.08182947187298165
Ni 7.7122915503088 0.9555448099755958 13.229225842399815 1.3222178257157293 2.088708415290061 0.4397162332907008
Ni 8.80045799144918 0.8232577116053879 1.972628989701905 0.37577701143457864 -1.3245955819192865 0.7284287497056036
Ni 8.632944131546019 5.819083395623849 4.062646911812832 -0.6557040683473675 1.184513654162315 -0.0095660464218803
Ni 3.269081964442728 5.635786920042334 2.0210143466642494 0.06711864802536827 1.1479620802905262 -2.2444499039611605
Ni 2.4815826007287987 3.640312548319604 11.966992364695402 1.9806079255356919 0.11401994056259718 -0.021804497469601156
Ni 5.316404336683715 4.36573545675509 10.827204305503232 0.27021240072818625 -0.3521508873752064 -0.29987778900310286
P 6.475940829094321 5.682355718103721 7.024956804460149 -0.9646719925771968 0.568686367405227 1.120919217240121
P 8.5414104597808 2.961495099073678 0.5283592626969138 -0.7994498181091716 0.2640173276610679 -0.39384363912830234
P 6.355399039662445 5.991289879933118 12.065412829387864 0.6628635622102842 0.5747613699547134 -0.5725975295341751
P 8.319555642643637 2.8797407832485318 9.928056225523923 0.04010612399226641 0.2228555087107775 -0.11004655773714596
P 8.641779463435642 2.7237110217454714 5.579135395205248 0.2887436267631543 0.7749176372957622 -0.2857248945414885
P 4.090804491305883 7.097631075365119 4.977570275244859 -1.8165828566995619 1.3108468648746263 -0.23873464183487914
P 3.494841191730285 3.3591858522092095 0.439405617826851 -0.43409245934602014 -0.04019225594816949 -0.006305887613369786
P 1.9495196475582364 0.9196902266226838 7.590289731447446 -0.2909897424848537 0.6201518822743707 -1.0832800667311087
