# total energy = -340894.21149732225 ev
CRYSTAL
PRIMVEC
9.06583255081158 0.00000000000000 0.00000000000000

0.00000000000000 9.06583255081158 0.00000000000000

0.00000000000000 0.00000000000000 13.26876232651395

PRIMCOORD
 96 1
Ni 6.40594459183802 2.00938742563129 11.438376544718656 0.056262422037154716 -0.7545226185791779 -0.1372267176963637
Ni 4.627599912873518 0.4415296242422554 6.058437625235785 -1.0717406986329412 -0.06726751489840672 -0.2707135087343208
Ni 2.662181775895708 1.6759642301472362 4.855531265753528 0.028017568258848522 -0.5863099940242612 -0.09158475148753259
Ni 3.4485974345031423 4.195830564129064 4.8242967523106755 -0.6508768221620532 0.42414666098721787 -0.44835668257451816
Ni 5.212491176124625 4.626910909587402 2.6933065927627435 0.14138856238353711 -0.5159496991331437 -0.4057393621246238
Ni 7.313769882125331 6.058777593962488 2.4534999056132105 -0.8319616746939478 -0.780599775282204 -0.7658385578126294
Ni 4.9350857609683745 4.707125397423687 11.238455895169091 0.5408924851214104 -0.952419400462089 0.6360968356394012
Ni 5.711057580291519 7.74199449027937 12.393515509346924 -0.5203475710905232 0.21091222030597223 0.1069308949262997
Ni 1.9232348173686065 6.443740048414588 0.5571144584046335 0.33803784501259204 0.3415078058390635 -1.0986403512372627
Ni 2.7327774152245 1.7296339598026171 0.41491777889928155 0.29700303855846916 -1.547035343248884 -0.051571187209072465
Ni 0.28092023849871456 9.011464913283367 5.21023197061278 0.5082770130792343 0.24054341290884382 -1.0531824760147797
Ni 8.54019573141248 2.305686036159468 1.2125025434079713 0.7716862748426581 0.36314415316191656 1.080152062625088
Ni 6.8184853094002005 0.6723502580075973 5.051152897431035 0.9291447462048643 1.9754343517545527 -1.6951686805554225
Ni 0.8940116809839476 7.43405535054891 2.5104895432077465 -0.5005138241940477 -0.35599134416721917 0.28227987341568156
Ni 7.766227461118699 3.838845269426373 3.8794946501406966 -1.0662120555052284 -0.24587356687250558 -0.1069424648905255
Ni 7.542437380621559 3.6764762055534215 12.687909388422298 1.6110632681640704 0.3322117252491182 -0.9282551445110594
Ni 7.79531065245898 -0.25209270364091385 7.1081159999686605 0.25032646043753665 -0.0644020204251536 0.16971080636699806
Ni 7.04328169732838 0.5892301707870974 0.17061625189111002 -1.1918356417450247 -0.3976265032095023 1.0670006128447946
Ni 1.653118331712851 6.549266341182939 9.31384851072788 1.0622080765521578 0.846478123142568 0.1368593070546159
Ni 0.10710646741006184 4.8989674834435375 1.409673525895969 -0.0917161348590743 -0.8008479840082788 -0.4221725679799826
Ni 6.227266094916078 2.114179385949963 7.150323797326186 1.0370184646604075 -0.7197990990550636 0.045961297221462784
Ni 3.4111555454023446 4.239382824477788 0.3993499309661363 0.3485022348790256 0.20290194840698605 -0.05925518611689149
Ni 6.0833641322775875 5.707023284734653 4.716581060942364 -0.12581539053562849 0.267030660566095 0.7083276080803543
Ni 5.457576897662389 2.897621451427843 9.308621151586106 -1.1914044677448772 -0.7102916737852606 0.4650644822475023
P 0.3817404575062357 5.665338585924613 12.452375428229958 -0.2593343203631018 -1.2480127031572248 0.9551180303401744
P 4.030850540435041 6.117469794940349 12.648275380971725 -0.04488811876194205 0.8214808297672821 0.16223378126366256
P 2.440975457721503 8.559569415918146 1.395887114090743 0.029000243887091992 0.11308431612220525 -0.20129166649707267
P 6.246748569414289 7.903701748364341 5.625331972749574 0.4966638543203382 -2.9476322203951493 1.4030983034118805
P 4.836784936871535 1.0088005350342069 12.771674962931895 -0.04796958590074319 -1.3522760785536903 -1.5272432482236213
P 4.276063183630773 6.20458338147051 7.957847434237104 -0.9217055163179998 0.7068726208013826 0.0851410527447179
P 4.547321964208248 1.030087110242118 3.782964383172521 0.7255149184929183 0.9791221065642556 -0.1172297057491465
P 0.2175836114224667 5.512153210588976 3.794680158786313 0.25721521713756995 -0.261010422513944 -1.0459093393921342
Ni 1.4302801636504756 1.159012317240289 2.6189486328584475 -0.3140959894850139 0.4193854921531487 0.03772065447922536
Ni 1.764256374929965 6.692053206397846 4.797945096366537 0.07239815125675274 -0.26773719971481635 0.4095186266613979
Ni 5.780393068873336 5.141297191836837 9.08869130265776 1.063138044565595 2.0309274997258506 -0.2220615520545724
Ni 8.807773783908859 2.4947811748675646 10.279522879550829 -0.19045472378256878 -1.0136903314574284 0.19735967843251817
Ni 2.3433999002416273 5.291980397343946 7.038321780251613 -0.4177417859021386 0.35770961240990656 -0.18296844270785262
Ni 0.5557518637480112 0.055318804625704134 9.145945662567488 0.150009985503961 -0.4571429134075804 0.6516952042982905
Ni 1.6352677071028099 1.0418182977715207 11.58268737641246 -0.7489325260859102 0.39142911614953874 -1.0586717812641253
Ni 4.151190403854892 6.863297720495901 1.5409277453178674 0.554813980298509 0.2743500770456436 0.32499643844760157
Ni 5.658883713033627 7.973291080262095 7.807194145977945 -0.691417462588577 -0.4055982085610692 0.8546951117357215
Ni 5.358387621959768 2.771969010038725 5.005070363172375 0.13681379852866116 0.08364441359453337 -1.045015109712639
Ni 0.798252009796297 7.520353012134986 7.143331320555377 0.15681646690283313 -0.23650755227657333 -0.13785895196372389
Ni 4.930453120452513 4.553033438816844 6.7213712028053685 0.9250836887616134 0.8435799756591665 0.25489093987976746
Ni 8.221323197431278 7.056454352258999 9.020635909654885 -0.8771511267463926 1.8327540671427855 2.2164709022497315
Ni 4.665168723632285 0.34369750369662844 10.542920676583677 -1.0211575863687512 -0.641646818923353 0.2884222388679936
Ni 8.109233241779398 7.212069370761468 4.22335443224287 -0.20008761888664248 0.8594395683992424 2.15188479083823
Ni 7.221987391748459 6.194946401297592 7.13164183585645 -0.4333180430738408 -0.905050424259822 -1.6744026516526647
Ni 2.241654059714205 5.244511697263612 2.6441860979622733 0.796895427118434 -0.025314053284756406 0.2941041197441193
Ni 2.4512107828534155 5.315315850744782 11.408548141929444 -0.44535132008929107 0.06820776732448898 0.5754224005774801
Ni 1.0672026293652819 3.4275737684438807 3.7547542315224116 0.3300075185089478 -0.5982854212185826 0.3548315195311631
Ni 3.6753429764644143 2.822474764077598 2.4770257415009995 -0.13821633530314262 -0.6384331970820618 1.0787469547474453
Ni 1.0692061783946467 3.26652831614689 8.351544818507273 -0.2634681400258172 1.2769802940341686 -0.7000095751329621
Ni 3.7311975718034014 2.665091908196278 7.047955134091446 -0.6619680469792083 -0.5954366389158777 0.5548294069174767
Ni 3.9858386810196746 7.046427541279464 5.8669554527746035 0.5787632920252549 0.03414245020966378 0.06661933979144656
Ni 0.7568592307995844 7.549862297612734 11.641972482849688 1.0288773236105118 0.13664102039622275 -0.6889096085650588
P 0.1844443665268114 5.57892306851328 8.056328668404914 0.6970144970603802 -1.5928377462949794 -0.8222663017830548
P 8.423409674415753 1.5395143819980575 8.163752439959898 -0.4212120038389262 1.2693603155950655 -0.006499491681414614
P 2.0336203964706194 3.395235943159971 10.335994858097505 -0.4887821375794163 -0.7704529166561892 1.4450733622920857
P 3.9741890859846802 6.101387007709158 3.816786285271394 -0.18174922558877085 0.40542131666357273 -0.47598112916000607
P 7.081167812232069 3.9026687317192583 10.537653427777972 -0.7063494013080609 0.6389710718634027 -1.0360180484203512
P 6.442915057637792 7.5688461513117815 10.213139226100058 -1.019305877871993 0.3841613788435319 -0.05363938259201085
P 2.3247242848547884 8.589305347213696 5.9846363074600095 0.38682915548368213 0.37626397837332615 -0.6702274587745232
P 6.98507905131697 3.938687285084263 1.4206993916403734 0.288267201347368 0.6021983831197435 2.597502734325346
Ni 5.442364430371557 2.7336386693321457 0.5561008983074255 -0.6900645481051083 0.6684963350160293 0.2490159691562292
Ni 1.333457070285701 1.2429619281539421 7.041228286219099 1.366603550919956 -0.9615344753894796 0.5830094688961185
Ni 6.672307822750984 0.651128956795213 9.316396009719966 0.7382639906284705 -0.041737488948102315 -0.5646780175767824
Ni 2.6584738503164758 1.667596466554007 9.169471498455277 0.43382223640376893 -0.618892813056289 0.9356110706554983
Ni 6.50384651929553 1.82710979312266 2.7194859978853523 -0.05633338448440621 0.3540547892661386 0.2109225047186174
Ni 4.1322881426502525 6.7733918574904255 10.271972854068226 0.43086315377544504 1.470093795595823 -0.3524869305583865
Ni 8.173781970689248 7.108700746178588 0.34821863447013157 -0.08911572112174976 0.36248286542883373 -0.1079595933011302
Ni 7.672994437507899 3.8515555668886776 8.257721609186918 0.9828777169519461 -0.26301871119322445 0.16194453215801788
Ni 3.019484374743321 8.363792758501264 12.422719276262274 1.3722543214478302 -0.4383782312055676 0.607419779419683
Ni 0.2666324861445118 4.903591058126687 10.4143735148096 -0.01580945622843084 -1.031514504123043 -1.180609176901586
Ni 8.722301113099581 2.305223678691153 5.92800567684087 -1.2433674910757297 0.8901958757454927 -0.033749071425987036
Ni 3.839488943548929 2.568178156504383 11.687895458452616 -0.6328986404170778 0.6764065910020416 -1.0814998349022342
Ni 1.1367375662667636 3.3061278734331574 12.477639184248648 -0.2190865285866485 0.7186246191309882 0.1276431877729866
Ni 3.1832858401847774 8.51605341890027 8.167799427682562 -0.3483950198772 -1.4514337572924745 -0.624507331029589
Ni 5.733830952064208 7.939103825104925 3.4270561093960223 -0.9617357927670082 0.16655863389126152 0.5801048936548139
Ni 2.97749143762107 8.475637936669917 3.5568779272494155 0.9851001785245617 -0.380596544310409 0.62394940164359
Ni 3.343397511712426 4.614173414626961 9.164521553794495 0.5263474974276999 -0.7946138301731088 -0.27159334023611287
Ni 7.480318294878541 5.902926863809506 11.374660059251774 -1.2569382877816289 0.9747242346068762 0.4344876379019098
Ni 0.5147398497252051 0.12139059343117976 0.49361011342321254 0.35234911942894154 -0.48958046511099557 -0.49169622590241774
Ni 4.597084319964733 0.42862169162682784 1.580879963496634 -0.09757053675732229 -0.814902662329132 0.33149593012901624
Ni 6.009187489027532 5.4581117817924 0.14312320760852418 -0.2541715452152397 0.5282030625792 0.8365896603842625
Ni 7.960689572792336 8.785580625429741 11.276537832059361 -0.32135241393711106 0.5302781999406739 -0.0626662686809695
Ni 0.01720604390421408 4.762245660312997 5.953521463008957 0.36781481916470843 0.3641656524478954 0.07005330517366
Ni 8.089814228110171 8.893781338848148 2.538500246538191 -0.4451458889467043 0.8768191973282706 -0.34694363214265406
P 8.641814650281933 1.6013161635961541 3.8492945482102905 -0.5952299222217103 -0.10757058539282766 -1.0023391681106673
P 1.7200423087932601 3.233936647547043 1.5018775774939503 -0.6688938275647642 0.5693186016725873 0.6862364326082698
P 4.608063043379034 1.0233965257006197 8.333141178101796 1.2479304278560637 0.7508125167174424 -0.12796277589593444
P 8.609458693332599 1.6128660344713155 12.362387066146802 0.5782177039344301 -0.13960061724517892 -0.31909087159644406
P 6.340208238842891 7.854664659224822 1.3907649186084303 0.5901576499051255 -0.5364897280680244 -0.8672477515897515
P 1.8284787338621808 3.31182121637633 6.1817039394550894 -0.1897857227400022 -0.23097710937664734 -0.9567725352244618
P 6.9952599814526115 3.9518418083494584 6.156480073100332 -0.6455327842413205 0.6615584702456155 -1.3070825127361878
P 2.399317956409598 8.482591430360065 10.224324650500195 -0.09804593373184403 0.083609703701856 0.8024934900315018
