# total energy = -340897.8737445491 ev
CRYSTAL
PRIMVEC
9.02435168641778 0.00000000000000 0.00000000000000
0.00000000000000 9.02435168641778 0.00000000000000
0.00000000000000 0.00000000000000 13.20805088852434
PRIMCOORD
 96 1
Ni 6.390359930481368 1.9664693773567954 11.408968788533633 -0.05247030198457415 0.5572336454835952 0.1639690187872144
Ni 4.712606632873162 0.4074151808066072 6.0034950030678 -0.8169595448581607 -1.333230117665833 -1.0637497100076647
Ni 2.6786892518892933 1.5988172944337327 4.694022785687019 0.4194389710989035 -0.6202472702016544 0.6154691320867207
Ni 3.402821270492936 4.29436403505401 4.81212898684695 -0.1962602747207523 0.4723013663155737 -0.08617874998061288
Ni 5.1752580647636055 4.568235056471514 2.712801300820299 0.04528175465593492 -0.21508717761926827 -0.13400846786938211
Ni 7.303254310854812 6.23953594270785 2.5754642064667244 -0.24193437971909948 -1.3935587393525612 -0.32765495911637116
Ni 4.977597692346722 4.719600505339176 11.234529877574227 0.5642021063816284 -0.32241607931493504 0.3846719999313633
Ni 5.5764446381172545 7.941781330474455 12.496097227085867 -0.6008367268855265 0.011783108677857125 -0.07705261930962859
Ni 1.8965035796419574 6.453106246940966 0.35369321591605757 0.2525692337251263 0.6869599410378556 -0.0048858673373915855
Ni 2.690754809937112 1.5641367113538769 0.25017487906749464 -0.02389531856035885 0.09765332627911569 1.1534256745082587
Ni 0.7003329986457464 -0.10763163629373552 4.739206811558092 0.3750712436168057 1.069654248417558 0.26742378223945557
Ni 8.6011546022186 2.314222765070105 1.5564633052147143 0.0792398567689345 0.9178419195975355 -0.6082939544945201
Ni 7.027632565232913 0.6109170159941366 4.821942066743134 -0.8930060915007781 0.1375974707722211 0.3825449262860315
Ni 0.5619824696109674 7.471450175398751 2.4781338674890585 0.6907183796390234 -0.6583237653584018 0.033888682327644866
Ni 7.634366794274795 4.037052698765711 3.8614135490476214 0.00558135074251942 -1.082425174929981 -0.3995646007724796
Ni 7.567036107218119 3.958324255677326 12.68487944242912 0.5667045610885079 -0.8789308443546348 -0.7932244060247501
Ni 7.899944436600343 8.797831320314458 7.044764394251596 0.0036005728670647666 0.18585887688177022 -0.02153067498292421
Ni 6.8464687074842505 0.7801579004497706 0.43383126271952793 -0.6839512361185188 -0.4601426194658527 -0.18925041906182247
Ni 1.8783917060428756 6.3744860960714105 9.267560551140507 1.1863237107878601 -0.09312844182556865 -1.108548354379594
Ni 0.3327052814719199 4.9557407128464845 1.2588501172541988 -1.1257251232691967 -0.7895104475082726 1.0682110882131282
Ni 6.168387954937466 1.970773993055232 7.010450199845443 1.1860748280018476 0.5095756772859998 0.3403965750527557
Ni 3.47302170134857 4.228838218311144 0.3759490717556466 0.020590679667158086 0.10660256505260352 -0.20512595264149835
Ni 6.161177498033796 5.693977792952551 4.815060998671734 -0.906742210139948 -0.2356320916501555 0.07451211227596201
Ni 5.407599020260345 3.1023735337045824 9.224120029992575 -0.3612039987164102 -0.5930133741863658 0.010371315931995043
P 0.11944090275699326 5.517984888652954 12.33387548328064 1.0745036060900592 0.3417921698487017 -0.32016173606311954
P 3.9785388031919964 6.207806322591073 12.599450418300716 -0.15325060392844575 -0.5095849332573804 0.4058622608557333
P 2.200561057057931 8.456647660543416 1.4558571266174836 1.0609981154044565 0.05810487456253218 -1.0428687527935974
P 6.337143329278685 7.719944720204088 5.849990782878273 -0.057544374073371866 -0.2144433733876823 0.33849035916897835
P 4.701226925544591 1.140109504178964 12.604812688003046 -0.0920830312801898 -0.528554789491664 -0.04122866763248383
P 4.071850598415965 6.048309932959698 8.323422963199857 -0.4586953454963649 0.012334096085320694 -0.41006061520779696
P 4.640050846258007 1.077173676336415 3.768415801258256 0.29999091754219953 -0.5794518334518471 -0.22990290247586212
P 0.14671068832834602 5.602931109972414 3.588111964214124 0.9750821321669271 -0.25448342002870367 0.40928285650150803
Ni 1.4513503654439004 1.083599014653578 2.670852504986731 -0.25915125781801823 0.37491954853028975 -0.6618947705391116
Ni 1.8289653324991932 6.526374957330076 4.8073208123309605 -0.08597023351423258 -0.8635931855562999 -1.0724593219665208
Ni 6.158993604954086 5.678410786495942 9.170639917724076 -1.313195824722777 -0.7186220480278269 0.18363821508136763
Ni 8.637901761807768 2.222264622581494 10.31842012073673 0.4946414245736707 1.271200711237914 -0.6159787247332876
Ni 2.292735783984199 5.266106212009223 6.853591628177702 0.21935906552174478 -0.5146813739436814 1.1690163298576641
Ni 0.6238371801355442 8.872246123352838 9.046616449240318 0.2350775046982661 0.6205097798344217 -0.08772064054643602
Ni 1.4357201885263073 1.0537554840147323 11.525358558025133 0.09230697436553781 -0.2109764978850044 -1.2607939140822932
Ni 4.167346286719643 6.936991978073382 1.5993235605567564 -0.27102512643746873 -0.22186794798652756 -0.41063782786750563
Ni 5.615863005770862 7.916603389596807 8.04919728476569 0.28933318071803715 -0.2899713285226683 -0.01647254373372647
Ni 5.226191505019319 2.8850220261640334 4.899922391086445 0.48108913981053286 -0.2989941008465689 -0.20379232143173934
Ni 0.755999711299426 7.304021380738181 6.94373677843609 -0.33219938395394405 0.17001959585666848 0.08648908213218008
Ni 5.039955961688851 4.609674878876588 6.970706955535351 -0.5272484119754145 -0.599909844195883 0.27046308328641167
Ni 8.015347844465342 7.178059481537392 9.116936001536665 0.023157411953069792 0.5059141692740126 0.1839590887558961
Ni 4.6535783492600125 0.3664689904323605 10.387048509549036 -0.6038577731000375 -0.17057675391171911 0.4072074620297181
Ni 8.172191074735418 7.317954979560793 4.58782963103339 -0.5104606509941144 -0.6930886796434128 0.86648079151674
Ni 7.122018258293598 5.9829826519513505 7.0477370156584405 1.047750763476247 0.34811785495641334 -0.16511907323125755
Ni 2.5420334960791817 5.090438184366112 2.518973570514791 -0.8738714275538564 0.5806188571767549 0.1376864309416016
Ni 2.3853707528404886 5.181710476135476 11.391956983390818 -0.42489459489683595 -0.42907006643076423 -0.12535850550386798
Ni 1.0821821914572372 3.3907557124451175 3.708833422458765 -0.42197793547067325 0.2454030549939903 0.24526601519549374
Ni 3.592783871021421 2.726716850939773 2.6685151979303474 0.004508172282998687 -0.12036825137812819 -0.6371044509683093
Ni 1.079195131087882 3.283826170703454 8.116043364143108 -0.06480954027621741 0.19424581539388483 0.12226443995957655
Ni 3.5295863369833698 2.624633385990689 7.010370785551635 0.7147047152512916 -0.07855028690107763 0.18045261826453438
Ni 4.089023939451866 6.733664312871136 5.974107202183191 0.6903455696806369 0.6779626226352518 -0.23702614378420472
Ni 0.7526227989422879 7.292659722112748 11.099068043476702 -0.9529971273424297 0.023442033073024143 1.4984574343401806
P 0.1920102258995021 5.5726273374035475 8.137216297794412 -0.24287951724118817 -0.5826081196926417 -1.635411357991132
P 8.571085462790528 1.5989255866525613 8.115660731636579 -0.1653386454412314 -0.39311036050670367 0.028708423678286042
P 1.873103436023413 3.1642625367651216 10.489120242841082 -0.9887197775550197 -0.1639476786309757 -0.6930251733953291
P 4.004438692195167 6.130404459183338 3.7176438968956282 0.439126936446134 0.6436314534535497 0.8889830863843141
P 7.032253033236265 3.954633295885585 10.451979621523503 -1.0698738206275316 0.10019486175404681 -0.1806310528239276
P 6.22918501145815 7.847729538421824 10.356036325381998 1.008365319700089 0.03154306491360374 -0.8897927267698031
P 2.466246991602307 8.280997681603443 5.947954631336087 -0.2655373638500201 1.2137188149713614 -0.7764273890720693
P 6.978287410853352 3.9993038361523787 1.5829985085683462 0.6765204908720864 0.1417588012387623 1.4873836930245223
Ni 5.523598035328903 2.904586820365732 0.49764606240490217 -1.321191441333744 -0.20555481264880082 -0.28292522030916434
Ni 1.4601310595205852 1.0754229521320193 6.917214209174655 0.4355279062409661 -0.6442654874931227 0.3190019114270635
Ni 6.761657851438327 0.821677137148652 9.193503112424262 0.016852552780964522 0.005095926465668642 -0.5051862899690525
Ni 2.7836966067467492 1.4995313784710538 9.274745739859782 -0.6925744590111557 -0.24297644783036865 -0.43775216758579444
Ni 6.382301184530208 1.9995346015057915 2.7552518506011063 -0.05463054286068656 0.33920898250255777 -0.15726846683858722
Ni 4.189898141290697 6.88330611058911 10.46866113539889 -0.2657847039741358 0.4646849874208964 -0.669555115297847
Ni 8.07583807303268 6.962079675435339 0.3177907356337524 0.01759740136678905 0.7542482818718688 0.061940960479170734
Ni 7.673153457318568 3.6876117573089897 8.302012689102288 0.1304775718979882 0.16838077470166485 -0.6531098252576301
Ni 2.990742304795444 8.316165579668029 12.3401501149266 0.47663856023834683 0.060891179058417705 0.38186281261734234
Ni 0.08192306354382828 4.841934615209206 10.135593977429052 0.06721275040107133 -0.6721233902456554 1.1363972582710622
Ni 8.6141586928296 2.295867233978659 5.987156414552036 -0.2938264406027004 0.6708486372982898 -0.6088148599949966
Ni 3.754915371310958 2.74041581662159 11.371854337835606 0.2623332550904256 -0.5973536534329326 0.3151462851263992
Ni 0.9307986938864375 3.267871117129375 12.555203120122512 0.2581955787729682 0.5305772192383313 0.009285024846351752
Ni 3.2285610416945967 8.203144600617255 7.987396720350527 -0.6808810818336275 -0.03542028848082286 0.6688907422409707
Ni 5.741139054252403 7.811550912981507 3.6774386057852007 -1.462527810323107 0.8315564688357292 -0.4752838459826654
Ni 3.075769745279026 8.279219884344341 3.5425705740209175 0.5123362707502724 0.22012808247728544 0.2738818791599735
Ni 3.2117847721277344 4.07929568846043 8.977313941365807 0.31961383397944954 0.7210113741956098 0.5534181283922469
Ni 7.096289831970238 6.104098474359559 11.362067428558971 0.822428795502848 -0.08943145258995565 0.28888375188544446
Ni 0.31358358293226163 8.966974741773146 0.29549336777694574 0.9892910766774574 -0.38648797009417957 0.4943817431543809
Ni 4.524683535799283 0.38149814553545497 1.539979424638689 0.04721162468879611 0.06263721521524696 0.2968215186752824
Ni 6.019287618313635 5.530718248716883 0.3701121211607856 -1.4332347177859446 0.973188257578324 -0.0017501499218873086
Ni 8.012198345767745 9.033736894680972 11.11095582179861 -0.08224881879858738 -1.35816159080019 0.3674597498181349
Ni 0.049673640776674195 4.854207733343112 5.895334539772118 -0.1275657975678319 -0.33958462067442163 -0.25905818388357965
Ni 7.76253965961 8.917701782206137 2.448164898363403 0.2509373545486582 0.030290166343109125 0.5852784674359532
P 8.46524786758872 1.6924990880720319 3.6871461007680266 0.7127367928916435 0.008583370793636831 0.20968169033298084
P 1.7357889025487607 3.2527282551965104 1.4816920402893574 0.7398354488806483 -0.9280561411263758 0.15997043915078257
P 4.580219395355211 0.977689224639217 8.132632829632492 0.8039037401154671 0.7436342538014483 0.836172884561818
P 8.453046944267365 1.6035189816012074 12.502331249149767 0.12550325861184838 0.8950884279511037 -0.1332394509138415
P 6.232433778023008 7.713212553933578 1.3730036524268863 0.29561978505769737 0.5534561807190339 0.2084645300964281
P 1.808516151843728 3.2052060198338976 5.911236349671939 -1.1466970975351736 0.48123903512483573 0.03692464094049124
P 6.866394475748712 3.8594354111836857 6.05505924549819 0.6431925661439182 0.7042408396054903 -0.23309107039585664
P 2.4035638456036916 8.3607549007707 10.166699112417248 0.4500253285261927 1.0840318572954686 0.5411310834947777
