# total energy = -340859.87437734543 ev
CRYSTAL
PRIMVEC
9.33555672479471 0.00000000000000 0.00000000000000
0.00000000000000 9.33555672479471 0.00000000000000
0.00000000000000 0.00000000000000 13.66353091927443
PRIMCOORD
 96 1
Ni 8.823697227164947 5.052160427281162 1.596324139930069 0.5306736356068795 -0.45010143317976675 -1.5741126590816503
Ni 0.5856652004520561 1.2476411064529407 8.573564995371923 -0.5180680310277271 -1.0552738113261697 2.514243729094689
Ni 5.802608468220718 1.2796714006392866 12.651622655129284 -2.979911649254145 -0.14531412269018845 3.4560439592800347
Ni -0.0021611813186065646 1.6978296452311883 11.183258186817982 0.1661822243884493 -1.9433672960166792 -0.9710740394487984
Ni 8.450639055792001 8.278948837085768 7.91652666517843 0.9477518197830903 0.6678067651481725 -1.2356099586174978
Ni 2.869152577690139 3.078689142252231 12.345259566159747 2.1716509177215633 3.974068024443704 0.8675920223030479
Ni 5.557559446915735 4.654269675746258 11.609219089492353 -1.6238334233455454 -1.4374484987569762 0.9059973615541236
Ni 4.147563678208424 4.300834844035131 9.465288012097542 -0.23661142484428926 -0.594123576531409 0.6829047971318755
Ni 8.235277104003947 8.878664983553524 0.9325035279742959 -0.9484907548316438 1.099808403403435 0.6733395220409435
Ni 3.7293494202778112 2.5100417276562785 7.977711902163948 -1.089783157956949 -1.3333507024040971 1.4302062153722659
Ni 6.961001654993837 2.377532839378518 11.163746873833587 0.3869237720800175 2.6216950153008334 -1.9041515450491657
Ni 7.259347368082514 6.757346490996419 1.4704005531734532 -1.20364677544734 0.27087883066759155 0.5718179710556732
Ni 2.7461846281061835 1.3044199607931786 11.128549025343123 0.5797097150989242 -1.666717110082949 0.23685927918903724
Ni 6.242425203780946 7.797476848637323 8.54081306267185 -0.3831969580477336 -0.45712748678861265 1.0124749709930885
Ni 3.02309590358138 0.22640964929319157 9.2544323334088 0.36464464896684295 0.5135614014066252 -1.3469317835226415
Ni 1.4051506149087936 3.7844198677873577 5.2641074325191255 -0.6055027649026282 0.9238158777927832 -0.9806094897430595
Ni 4.089067081481043 6.174686406166218 13.528138983950459 0.31596569570390104 -0.08968136381723264 0.1304621452790205
Ni 1.5606529787274956 2.09470282111284 6.80409615704042 0.7701901499131059 -0.045386655664915385 -1.745395952142091
Ni 2.1071564534196265 5.595583168344178 9.845543897494874 -0.03574913257515134 0.23137485903569827 0.05978534758874865
Ni 4.643683154729843 7.420413723546527 10.581734676621144 -0.9024374121170071 -1.2875866087951051 -1.839492928528516
Ni 5.1179107513716415 8.03563622928083 12.73185522794354 1.2053095078617435 0.8948526577912136 0.47431608275275733
Ni 7.974983119013069 5.9089871339897115 6.028008010305818 -0.6834259597426682 1.3384242602722627 3.012401137241419
Ni 3.228160736603029 0.9922856308250988 2.4314522127775495 -0.05576542779607815 -0.44741745858970045 -1.6689701677831836
Ni 0.34632300480609696 8.87914109693257 12.775797692162465 0.16796477021016878 -0.44366056265042947 -1.5811109447763543
P 0.32735875542978005 1.98578488398894 1.751432543266502 -1.4259160726373443 -0.9069263011262961 -0.4321641319750557
P 2.1783214002521873 3.9788048242280745 7.4260197251958715 -0.4309174040521482 1.2726472138764535 1.4593237015635128
P 6.582939625362692 8.720240590565387 2.595524617419063 1.1951765331927997 -1.7407026604314793 0.021370752366292226
P 1.018257148874185 6.040973231106168 4.947618999021897 -1.2408159282984697 -0.42131459085506145 -0.8573384628958396
P 7.844275993130517 1.5898826059782827 8.157155300503456 -0.6112584364394827 0.8587435707734824 -1.011447815280155
P 7.7792725135561875 1.0374977307214772 12.62742489280605 3.0232252244401163 -1.2337237973383783 1.3619449691020222
P 2.874427167085442 4.789653915411193 0.7362010482383664 -1.0283489619108679 -1.1886698424225335 0.772045972174922
P 5.421689758315303 1.8630409877598293 5.641616797208321 -0.6283894396928146 -1.1048058566180263 0.09064604172334711
Ni 5.084713512628812 0.3239512773248496 10.864624442448113 -0.4899026243371047 -1.3790476902205797 -0.907771936956043
Ni 4.581573697655591 8.940326333918087 3.6400464208149232 1.1751895485479116 -0.6212962802914591 -1.5894927410821464
Ni 3.486372892505141 2.8674908486417072 3.725648805700292 0.5195369022637697 0.9607014379652227 -1.3885882827211633
Ni 1.7182838494172228 8.29423114299747 3.8069054890573186 1.3769481273790738 0.2734627893446838 -1.119823413072781
Ni 3.5016832050861986 0.752439315130739 5.130805955498602 -0.8561238737624483 1.1927704948544682 1.5653755363189685
Ni 8.395148508242121 5.047931420208468 4.148944407007654 2.3444560467431685 0.34667289497977066 -1.3922981274725827
Ni 0.8227285867681151 6.392662313760796 11.815743069987427 0.05490899333305382 -0.5414666124573255 0.9525546404883724
Ni 8.571235774037184 0.3032963586751 3.388842467141225 1.366143580564402 -0.4546039490358106 -0.5408924851214104
Ni 0.5501312719293253 5.876919497577558 7.482873263987725 0.4340798609405298 -1.065697577762655 0.13712798733497028
Ni 6.775298766053354 3.5402390532323977 5.001726950661256 -0.29732596911552667 -0.6936257830938055 -0.5797662793684725
Ni 5.679239089709333 3.438826903495797 7.261619642522898 1.8519684352877073 0.11346972448608202 0.4763639664207216
Ni 3.7956785488683065 3.3664483343244935 5.8417197819758035 -0.0027271691231759484 1.1140831681548942 0.14384653700572647
Ni 5.728344116646139 1.27793498713924 8.858558995623143 -0.11307068927545043 1.0787916919424518 -1.142460947966639
Ni 9.026390828847823 3.572325360757455 8.977144835008595 0.5034268840757846 -0.8073045382669 1.21233684702217
Ni 2.1664279013325123 2.950745341079432 1.4876302561610137 0.8054654281756322 0.28704078513943465 -0.00260838415712454
Ni 4.9334681625521615 7.956069281641592 5.5443188272000565 -0.29996314962805765 -1.9465678052318476 0.6479239101813165
Ni 5.406883565782646 0.7371784809988766 1.502728651610614 -0.7488391950411554 0.3509640661559569 -1.8787421038371257
Ni 5.828029188439145 5.1698071096875555 2.7428303626730286 -0.00744977140982588 -1.370366360396498 -0.36960430696496344
Ni 1.3943213694246308 1.65522216558488 12.996395024008725 -0.9675549705519466 -0.6877654676582865 3.076125414873257
Ni 6.572745197717256 1.3786936479242105 3.4491258893734935 -0.6089256745412481 1.2061674849866648 1.8701438206451533
Ni 8.735392198686764 0.8349002852700557 5.961508041032254 -1.171707503536582 0.7413631983790845 1.9496649560999328
Ni 8.48648759256716 3.3289287329444517 6.638016607761756 0.11877622430065995 -0.3104807613299298 0.6294101676478451
Ni 2.554861734181679 7.997500481174964 11.314387279852157 -0.5253110857433856 0.0012822091465332756 -0.25155184820420545
Ni 5.0103277988203585 3.1710644733434274 0.49797725225534073 -1.3316825706730548 0.947201089485943 -0.43534947168157284
P 5.580272855763121 3.0138163604682267 2.575220715691904 -0.6366095136097617 -0.21085771291895297 -0.37527230388401817
P 3.5725400785558477 1.2445510372673734 13.529860460560183 0.03613839759377002 -0.07467383466480688 0.41385479214290655
P 7.792725050403324 4.988071832239115 8.178838997474202 -1.3874320576295331 1.6344315105763658 -1.1874125729766647
P 6.139173949423327 5.5633474919158905 13.710805949932796 0.5010555556301306 0.6007122854925203 0.3710263841234707
P 5.221824830237342 4.9764397289000915 4.873576833690871 -0.8914176639677358 1.0958226792828096 0.9779581681631414
P 0.9016616501242722 8.989552723088767 10.213966965089469 -0.5292934674299012 0.11692631557611476 0.9502074804124345
P 1.287886690316927 9.368697677268328 6.9224504746258635 0.47858128578701453 -2.838081885568131 -0.8777293678473658
P 8.797940426914254 2.399994188201703 4.616428931224271 0.6390698022247961 0.9766654174936469 -0.8072307476061711
Ni 4.810024099589159 7.255911883308228 1.9082073434295936 2.2681783579263515 -0.697935723323069 -0.7135122376050873
Ni 2.2205927998662283 7.3870577803440165 5.954826583279655 0.5306427823689441 1.7986352710822056 1.202041378633433
Ni 1.2689821885019021 9.075635889131407 1.3880095997075257 -1.243634371583871 0.7696782432736938 1.1806716547084053
Ni 1.7354986155144605 3.137549825681235 10.052382486242378 0.5456971055989053 0.5120562776160085 -0.16019361090518217
Ni 7.816484041573318 7.200496020209962 12.880910456476585 -0.7497071994684056 0.26381626739385533 -0.9682437690888552
Ni 7.452546708853844 4.068015401682089 12.989686493142417 0.8685145341173172 -1.1992823278310571 1.2950453790659955
Ni 5.5795913601421345 5.834340024600605 7.024489040200385 1.3798462748624751 0.152615284337292 -0.37316117107828634
Ni 9.233957590998573 6.96151511059869 2.699735566979933 0.9998025177317427 1.2213488207127934 1.035323850566804
Ni 5.766134449163285 -0.10366855373101651 6.952222497706504 -1.3950471509726297 5.0372238096211115 1.5016769697187429
Ni 9.412668148156609 8.229433045665079 5.205763938917555 -1.8462657284759751 -2.3047289033568754 1.2017207620692207
Ni 6.809485573780082 6.743352491875076 4.1097714785799875 -0.48554717558188637 2.1197429159983625 0.11103746089550555
Ni 1.4522951749907078 1.5583377607274331 3.66740053477453 -1.4866301026879492 0.5334403997187394 0.9207194982556466
Ni 3.8656578800314803 6.523276084078828 4.3029736200182525 -0.2754386821241321 -0.4694677535215205 -1.1716997902270982
Ni 8.82911184990703 7.0377212579152575 10.05016902580764 0.22263387961827463 1.234882079312538 -1.3484731598678326
Ni 6.059849726251837 5.669492768773587 9.532799022134844 1.1531117428122657 -1.053997258606591 -1.39746321661329
Ni 0.9239045469264838 4.399913104658765 13.370201907009111 -0.14688172428762444 -0.1612192239562191 -0.0785914245516582
Ni 1.6553902056010137 7.698305232449169 8.632973675964653 0.27104312415959775 -0.10977504924331417 -0.8852143633705013
Ni 3.3483186836949734 5.680294007588394 6.941004893073944 -0.3424783972824489 0.11341598843001112 0.9291915402823997
Ni 7.17684905571739 2.3741813746122986 0.7575729376236192 1.3948849143631525 -1.671183630494735 0.9805776080638596
Ni 7.691182202876397 5.465557538082613 11.380094660382957 1.2701799832828833 0.2519295432585984 -1.9162295592596224
Ni 2.8344803210279155 8.287668246811808 -0.05702437947492215 0.7985833563438182 0.46899158521605033 -0.0062598648667827675
Ni 7.622360480713254 0.4699155031166821 9.942308807229738 0.7501867102079856 -2.322601926982555 0.31584871051006247
Ni 8.104728682581078 3.37454226176826 2.783329873672506 -0.8484586439077065 -2.6884336542789637 -0.565369130106536
Ni 2.307273441521788 5.161330424429263 3.3856721121701723 -0.9509908955456783 -0.8028531873637657 -1.2048801336338089
P 3.595757607451634 5.689405510685414 11.560972933749117 -1.5022045600874387 0.06705539888760063 -2.478348043639345
P 3.0400586096544173 8.08971710780648 2.2036954426883546 -1.0697475794623124 0.5357417941584064 -0.14059537705828043
P 0.3294387174072554 6.811576738425299 0.30885754965347556 -0.2617573279822976 0.47260552781955384 0.5092447763091423
P 4.794741793677458 2.3705311720396196 10.50765143484173 -1.1921315757188886 1.7403990131481315 -0.3773844651310146
P 4.027592442245517 7.926176829882722 8.441943918512736 0.24551181265771266 -1.1265535327077632 -1.0417387529542124
P 9.275995601701316 3.737013912124792 11.358001132483976 0.07333686102093821 1.9814221939068715 0.20799376110759665
P 6.72840626599564 7.3971121746426745 10.651460080648826 1.6950288125434485 1.089755390042807 1.4111931646048728
P 7.160203758563716 8.261911446561115 5.974200663584209 2.79603020781372 -2.4683945319710583 -1.0876211173086239
