# total energy = -381171.6178172697 ev
CRYSTAL
PRIMVEC
9.25015878725079 0.00000000000000 0.00000000000000

0.00000000000000 9.25015878725079 0.00000000000000

0.00000000000000 0.00000000000000 13.53854240551603

PRIMCOORD
 96 1
Ni 5.185056315032522 0.006240157188768877 7.361244070963699 0.41200822585247104 -0.051632122353994954 1.4649094231814062
Ni 4.563408636832073 5.2718320556015135 7.755188912854553 -0.6169436597497181 -0.28796021162991053 0.7579385862392625
Ni 2.878760449201215 1.4211759119004932 10.415620636767663 -0.746442926894837 -0.49559658939808837 1.0553699705844017
Ni 0.12075804929175965 3.7130045292241896 4.102002386139423 -0.4334715379325696 0.782161463342369 -0.5103652630668307
Ni 8.00356122920907 5.811763830147079 13.536186714525728 0.7324399277475256 -0.8900696345802735 -1.67352102037866
Ni 0.011179742037275517 4.283443327796676 7.600754735099359 0.8869897101033691 -0.1369472387827319 0.38532146058990413
Ni 3.422586540640455 1.1068555127389657 6.427463656179759 -0.6820535048751737 -0.3818407011301553 0.1616632534721732
Ni 5.584422675050174 7.093031088801013 6.501533378494239 -0.3348805303305329 -1.7796103932402707 0.874148849584959
Ni 9.155779521156045 4.194521550364664 1.4725059686099466 -1.2960056860967357 -1.7441553948667705 1.068714767322424
Ni 6.2530889109003605 6.3946255921119715 4.200495302977333 -1.1395530302912247 0.42611818289129194 -0.7284264357127584
Ni 1.0972260973320453 6.017681617249339 3.8240563867902226 0.543453046759735 -0.2613035282743306 1.918093609051555
Ni 5.853176791508062 7.97538524522302 1.8579351142245173 -1.4613024225564382 -3.106607385512198 1.1997507828270435
Ni 8.239403280328032 5.882166789476638 2.876046452582204 -0.6187953682464762 0.061076812706662556 -0.4744500372274604
Ni 7.304767225846551 8.421261404151329 6.145076655546348 -0.03845213332861119 0.8760185558038462 0.21262997432802735
Ni 0.8854881102547295 2.771597358433519 10.803621326554303 0.20848149937729257 -0.45864263788155857 -0.4662237926629261
Ni 8.191792712509187 5.8114215742680635 5.232226575288093 0.5076568629967322 -0.9581426760991111 1.0608785591074568
Ni 0.0898153427810114 8.136680265828657 5.208439791696455 1.271827289078319 0.5699870884945215 -0.7084962724477346
Ni 2.4295542330716655 7.956820176326104 4.388464081764907 0.607921658756766 0.922669937113798 0.1788464501196791
Ni 6.707493716327402 3.1953933880858263 0.3691137153602711 -0.062140478084486535 -0.7318891974503782 0.3202730648300033
Ni 2.752893537153219 6.3394206438425185 12.800461451785562 0.8272478141580463 0.9038024107853339 0.03039352469019282
Ni 1.2036029245938926 2.8472729083317083 6.057631203473553 -0.5221547995025911 -0.7278772480775078 -0.3140849337414204
Ni 8.122888278920186 1.7135734344871878 11.118460659629692 -1.0897800726331552 -0.6551659364557103 -0.3899008524304704
Ni 6.888352822990327 3.99124005854672 3.692731880995749 -0.13852435346186467 -0.49242436231769393 -0.3867538221610565
Ni 3.3154327000316512 3.3422859112960985 6.903235403632204 0.4163940136249925 1.3844683470155188 0.5005685886913831
P 8.007622048962807 2.448683561661013 2.313926321901594 0.20672286481497304 1.0099190373404543 -0.4243790887129982
Ni 1.099288882765036 0.6843757806970382 11.999454117678635 -0.41966574239772886 0.3436798737897178 0.5244983600341032
P 6.955749480679876 1.122294027930272 13.060685996728827 -0.35770755552737754 0.6622662949459175 -0.9215219395522839
Ni 4.419226410177254 2.8812302416254685 4.8478537978190275 2.076799579667617 1.980259541057338 1.487797383523173
P 6.400147936970694 1.069919628281874 5.2378858224984235 0.6860705964543669 1.0023134570790544 0.7957289176141586
P 6.554209333322527 7.548989920921967 8.445099063616874 0.9705204809381738 0.46154232802685674 0.13360583311432475
P 3.0166710681270303 -0.07765323386936994 8.614087441373266 -0.06918530074640987 1.4565461388183754 1.5952412135301492
Ni 1.8607157119875533 2.6551933589323817 0.09067375752622003 -1.6072564928234707 -0.06871118932346876 -0.04203136603943729
Ni 0.7450429477924142 8.778733794545596 2.7498002840196225 -1.262439420105516 -0.09796854352668934 0.6317524426277765
Ni 5.08345256975912 2.3993617144470853 2.658563191816859 2.8009680114349695 -0.05135495743320832 -0.05030646156403595
Ni 2.091645928734685 6.1640191309260715 8.268110223434503 -1.9137589862319426 -0.9372966858880374 -0.48425648179492087
Ni 8.002182955534114 4.5286002889202175 10.904050301648379 0.16550756691892785 -0.33212250796942155 0.26939324726100056
Ni 3.4441856616540556 1.2443776249913032 3.9642887955980144 -2.2141119150992514 -1.948402544447741 -1.1782717870176609
Ni 1.2654217364713642 2.1919546517631607 2.7263104305284283 0.5591396042570563 -0.6287013145062785 0.10110066139776783
Ni 2.48239114066468 4.147623244780528 4.583500906962112 -0.1146208073713897 0.0400089362927698 -0.5047579441823823
Ni 8.240763053685205 8.681838380148392 12.56949423440286 2.2345578416584293 1.4748786185789762 -0.9394610405292078
Ni 7.251227306177719 0.7426591818458597 8.306058075274416 0.2862997932083521 -1.230009581711585 -0.03839119818368872
Ni 5.786029888108605 5.7404173546105035 9.914965036878948 -0.17923185848355583 -0.4774222324819068 0.5195744403699245
Ni 3.247564284238593 6.686791860726357 1.7998274660946505 1.4432517357023145 -0.9994757305199431 -0.07483221461954209
Ni 6.942438502033807 2.8571335777109366 9.172904340313424 -0.41230647381918023 1.02437069398941 0.7558395376183886
Ni 9.094256714363128 8.901455652570199 10.24652403215223 0.6770858764572533 -0.4848619765894037 -0.3826169171745475
Ni 2.37718908358216 4.035622320912141 9.188432582045985 0.555553686678011 -1.0031274683399176 -0.09901703939586173
Ni 2.270358998534588 4.287106390718041 1.878188337119284 -1.4497949361374711 0.15620660123297614 3.2140257615978776
Ni 1.9137098722817378 1.8200705138146351 8.25894424098809 -0.9489700084609077 0.43446038420840016 -0.17118481980936323
Ni 3.0172168275016786 4.07674852734746 11.68749898414588 0.029397993546142916 -0.7873867162970504 -0.7094889753783072
Ni 4.83481754889206 0.5018599705764963 0.9906596418129054 -1.322664940555477 1.0953434256535457 -1.0342010498162706
Ni 6.7398507721327885 8.996621287254536 10.412371055948787 -0.04057252210572367 -0.8650330033266199 -0.3870209597795141
Ni 7.715529781619558 3.2545759046789824 5.85123610817245 0.33231251249304056 0.5024444655578573 0.05145883000092427
Ni 5.774115683455278 2.525700384598591 11.602192168808989 0.8870825269274917 0.6706419206041224 0.17401071929393258
Ni 7.215715946190046 5.248937912342985 8.232530412271027 -0.11975555749479377 0.5203604266063296 -1.3070547448220458
Ni 3.1395039280583408 7.717805320707072 7.178595983570997 1.0514618937792473 0.4359030301921976 -2.2142540971040705
Ni 7.2421436501454455 6.82639525872947 11.399601663860304 0.6749608596944504 -0.320694468638138 -0.14861799025244085
P 0.9854656775948596 4.837805350214285 10.789392732146114 0.016144728080662515 2.0885340944957256 0.20776133338181638
Ni 2.94193903443586 8.90859677523508 12.877631827360752 1.405734969703779 0.20058101358329328 0.959534414240315
P 1.5338983481624817 6.450922059130719 6.088594260333865 0.44119204650527893 -0.08544907090343994 -0.9389283079541895
Ni 9.138065466877224 6.522157532760588 9.592625674973656 0.1266743961018141 -0.7655534224720428 0.25324749073907354
P 8.048711254762555 7.958346452543339 3.405525547579433 -0.6555901684773225 0.02388709103024273 -0.15752223472060614
P 4.899855416064065 3.7620211211946706 10.071606302545854 -0.9070018915592378 0.3181030537618779 -0.3036706803866319
P 3.3660403193316135 2.281107683167481 1.675651483092173 -1.7689156325305857 -0.617667168179304 -0.2811439600390255
Ni 5.7791570200516 2.457304709748669 6.884159725964431 -0.6285131097548724 0.016321619978158987 -0.04447545670455566
Ni 1.0376180734298417 4.955143615763548 13.244309050868784 0.19207426166386277 -0.7626113091245834 -1.6448365079597735
Ni 8.375352865568672 1.3342151681536563 4.110328454158413 -0.09735379276082588 -0.5622786641066704 0.018613501336129237
Ni 8.798769638706393 1.0557576350177098 6.4930981586003185 -0.46510741967029573 1.1808045807418437 -1.1208073742526052
Ni 2.3865039935867407 7.999074902146289 10.861457945028626 -0.15950455525795754 1.407118223204551 -1.302092515720764
Ni 3.8597953006866463 2.078492202789785 13.043303098138354 1.3888543918983565 -0.723908750348063 -1.2358734966915297
Ni 4.74134469328502 7.197594884919963 11.644284091832668 -0.8875476394893682 -0.014018939986911342 -1.1013047854433033
Ni 2.8133525756735174 8.875323953699354 1.912779306297169 0.5358376963063224 1.4048656797249481 -0.19409926251369156
Ni 4.577098871992728 1.876006224636582 8.908956606415993 0.1351037578160899 0.35685883437383703 -0.30606026366473094
Ni 8.972681876041175 6.827838283516675 7.203479836007266 -0.21909244212391946 -0.12925398390353224 1.0782530458301625
Ni 6.160161814667967 8.238848270794492 12.934709932805903 -1.2887803719928903 0.9613071898700218 1.8259139042925006
Ni 4.564453904786906 7.640538743479402 9.332983890040609 -0.49405958392827176 1.4384013495885486 -0.9523530660005275
Ni 0.5670874660057932 6.9691899615504385 11.973879278373108 -0.6929040744364324 -0.8753683238143569 -1.575397439331345
Ni 0.9698976601790605 6.274540029371684 1.6450954332231245 -0.6123429277529131 0.11431021810950634 -0.43009490815085283
Ni 6.446731737152492 5.205841422063598 1.5004904743069265 -1.8517969427068492 0.4420497665198838 0.46948857945712696
Ni 8.891604233349863 2.8933479497744266 12.964291940943589 -0.27308175185618133 0.18116198562673316 -0.40412753755281366
Ni 7.006921359672272 0.5982780767748561 1.6239208945026813 1.7717402464635745 1.9160871201444871 0.7635993840694656
Ni 0.9652725807328933 8.00446774478052 0.35563438382236123 1.0284708322007128 1.760826170654232 -0.25254635090699085
Ni 8.024845844820332 7.731245801577634 1.104431046093285 0.7449820260785944 0.15535119521121635 1.517173265582129
Ni 4.840608148358662 0.5085006596453032 11.302381568885979 -1.2043191189240163 -1.1965741848712748 0.832623733757979
Ni 9.44302470523971 1.0583014287131016 0.9234738877461013 -0.6456212301900688 -0.2406254310996888 -0.38452107617579584
Ni 3.804729104800579 6.100461289176841 5.288100310045462 -0.2986464876991631 -0.6584338085737047 -0.12738402057432902
Ni 3.196688410330753 5.988377113878423 10.232728345180204 0.4946113426666836 -1.2319278817802202 0.6965231592462585
Ni 4.882418866552014 8.831450450073012 5.055183159168256 -0.4227718921268784 0.35918156896974274 0.1173772870706043
Ni 3.6956049803477082 4.3390830335340675 0.3564280474553235 2.8661009964888766 0.7348475087477537 -1.0181995321816915
P 1.5846447198458289 0.7155377159735348 5.350282653167402 -0.7058670623550037 -0.20649223686140566 -0.7582921129239392
Ni 5.591471296126133 4.927494890834359 12.20549678192594 0.20957961753747778 -0.1742364621514935 0.18605222383949893
P 8.865010026534401 2.229121790192561 8.364680032238697 1.0404398316371308 0.4671216218868471 0.16661365549891305
Ni 0.7470613324627217 8.967973545164977 7.711309859132874 1.403187520691577 -1.4153298124810656 1.229244421410786
P 4.843198192848516 6.477081508478241 0.12239532741570286 0.2556460728782371 -0.6271349984604232 1.4484512776253828
P 6.039521242394141 4.886451935829071 6.185638602289235 0.7183608239466402 -0.4887420283701002 -0.6395382572207824
P 4.44250906010926 7.5119430345581675 3.543279838819968 -0.7803465216208174 -1.2151352357029137 -1.3416689924618055
Ni 4.500637058588691 4.667787429773176 3.0621337490510765 -0.15514190741388764 0.6580080338901959 0.06482882354992706
