# total energy = -340868.0863646892 ev
CRYSTAL
PRIMVEC
9.26945955256054 0.00000000000000 0.00000000000000

0.00000000000000 9.26945955256054 0.00000000000000

0.00000000000000 0.00000000000000 13.56679102649807

PRIMCOORD
 96 1
Ni 4.422811401577371 2.7325532568824844 9.41059080243231 0.9198034141992804 -0.4513103658862034 0.8763240028594069
Ni 8.242913272281154 9.315806870518083 10.863688897014866 -0.5549736458048249 -0.8161239363307429 1.1094132734830509
Ni 2.613329467858998 5.6878516272958635 0.17356506882221773 0.14474668022249265 0.1869827060735683 -0.13779750259816914
Ni 9.276226278142847 7.048293130936119 6.026029320885028 0.665692547018647 -0.6254609531921099 -0.983479612202003
Ni 0.5602544790848721 7.6317314553581586 8.145745235364842 -0.9400788766188648 0.16456808582379398 1.577385416295651
Ni 7.309265495744643 9.094229708893343 3.620773265945328 -0.15920167930555806 -0.5009172302800534 -0.4605010312465359
Ni 7.36986922243066 8.439249695489554 8.815592534977212 -0.0052856738789715425 -0.9466184775095955 0.6645296370587974
Ni 4.151040116366705 0.8596163107135455 7.399707612795036 -0.8999167025776824 -1.4015684970309152 1.4526514317496595
Ni 0.48809637104154074 0.04835598975266835 5.023972932702326 -0.45671970982723276 0.28634710150651976 -0.21707078370820035
Ni 5.850243289549203 2.8641795828141827 1.395113917171771 -0.4688031233543281 -0.13622938678010085 0.5473611235648895
Ni 7.870290266920003 3.0965185870027754 0.1818686507074019 1.3404235500904786 1.6572922172246232 0.46614126025144875
Ni 8.71164203449159 1.3656880177583783 2.396261898316354 -1.7997462447581971 1.3614325482419778 -0.9734448536738203
Ni 2.2531831550826404 8.294692473454003 -0.1288121180054403 0.31507789378230894 -3.5719053239267446 0.0706675417188912
Ni 8.82585104588627 3.8079866870423227 2.9634351020262555 -0.4524290528716789 -0.23178932086529758 0.3231205615811274
Ni 4.545705896591628 2.103731658392727 11.76619314327917 1.424763704200456 0.46014673323091076 -0.6551453676304201
Ni 8.001277000141188 8.035889162185482 1.3335081619059501 2.392729537037576 0.640654887323729 2.0245233959717197
Ni 4.655298717119126 1.0119747099254437 0.19625577891011944 0.2682701894001509 -0.9650540585069637 1.0515284853511244
Ni 7.321705110491145 2.5724974984414533 11.26549679584052 -0.6813431090717105 0.10801230091593655 -0.402394614022107
Ni 5.589919786910765 5.090518382974414 8.435627190688562 -0.18119720974004278 -0.1390570860368831 0.9371730158259796
Ni 1.0439358065319573 6.448253204419455 1.8877782778907162 0.9393286287164017 -0.22807227702502655 -0.9531405948988295
Ni -0.10463365965612749 3.5482378908973895 8.623133526708052 0.5113132288023968 -0.7685418156764054 1.1354778317805863
Ni 5.374933211042182 8.017526362772053 6.69000163702025 -1.054786587277106 -0.14269236879662522 0.80940384399809
Ni 6.162512843632799 6.784030107979303 2.4711368849604307 0.5744353540738624 1.0254986369462662 -0.6600602884335343
Ni 2.673312140753647 6.655434895327863 6.922740154916424 -0.5563149903240677 0.6017697802227572 -0.19239230712491381
P 3.3261138311578624 1.6960886347660866 1.9911568527207064 -0.42477478148952 -0.6766906979013636 -0.9388504035284024
P 2.623850304473961 7.326988702447559 11.420470109597863 0.5136758154973025 -0.7594259694180662 0.49830164703407737
P 0.06752430520296122 7.22182668359579 10.435846794033452 -0.6647368679735971 0.9555905991012188 -0.4470037680910495
P 5.32338574635865 1.4701826355209162 5.720342936989933 0.8051484111558457 0.6378881232118692 -2.0253188952898213
P 8.652261876469163 0.40326783870834754 7.795844456254139 1.3781187506484072 1.0766152531164233 -1.5098502495581545
P 0.36479401980608644 -0.08320544996202137 0.2660214394377486 -0.7131409703085976 1.3513322265831824 0.3077044841363733
P 2.6509078569665405 4.573708933960618 2.862606555524703 -0.652611802575289 1.1295164719908288 -0.28540890596296653
P 3.5575166199296167 4.831056940076234 7.416136802941609 -0.6051659503884996 -0.5231017367968926 0.6344240759226687
Ni 2.8132160940837263 7.811160384306038 9.308677729160756 -0.2407159339309661 2.279479384761468 -0.7655840185996622
Ni 8.474853689708121 6.282765542668849 3.2530992250500175 -3.1147919782055196 0.2890495880393474 0.011220808416483902
Ni 1.466159690066384 5.668904851929357 9.308731492026277 -0.23582415305630355 -0.31287240149055795 -0.2036604238395654
Ni 2.9783237079918536 2.12919486383881 5.89833880748788 -0.9720667423793712 0.8422905674237817 -1.2626484507925286
Ni 7.323225301861061 5.924806822351639 13.31268475084005 0.1706654569707835 -0.7458775413096703 0.8181499656218361
Ni 4.883364500444725 5.479251709072839 3.771649478571559 0.8117798004294341 0.2679721985437578 1.7755187396694003
Ni 7.761568775592335 5.655306554736272 9.573745341208477 -0.24085657327388843 -0.406049694276191 -2.9181776625794584
Ni 3.109412405268338 8.50822374416968 2.0369183207389887 1.473568898628617 -0.3226842453746571 -0.30043417572720515
Ni -0.1750834063002186 7.27824988401454 12.880827117971764 1.0162280102776176 0.7334354588915755 -1.0914158084643655
Ni 3.4177795168718457 4.646900586746301 5.155895881340349 -2.2683848175102033 0.014628805656768355 1.6709275486198707
Ni 4.744294798476186 6.599502976266463 12.354381138786236 -0.6602351234485017 0.14676833863821173 -0.17869758324664062
Ni 5.209807058214909 9.649600109729384 9.739952313021922 -0.7541202409344367 -0.4001243299306915 -2.172270296473117
Ni 2.6969399932043445 0.3800914089388387 4.100888632294812 0.41518199559476243 -1.1116221082089113 0.8114509563351057
Ni 7.117943850165048 3.984393772169516 4.930890873565641 1.3382303990939017 0.6373988422802764 0.9104978205276385
Ni 3.9961103690693522 3.0915223482931142 3.550564525250126 0.4663801157351323 -1.208955075034131 -0.15233863363713765
Ni 4.863787401827278 0.708858747169845 3.313037404538718 -0.17402383192005513 -1.3735709833767247 -0.31951664627995296
Ni 9.713837464567883 2.090791492829301 12.52160589726076 -2.773663410082746 -2.1062451386222434 0.289008964609399
Ni 1.269888153074991 4.165148233836285 6.799716814414107 1.2797851104728153 2.0030899086882923 -1.8183332637317653
Ni 0.9442520382876275 3.1783122982718814 1.184033491567105 0.9805709231956402 0.5425806714571108 -0.794820032646644
Ni 6.376424162190953 8.095176625612181 13.600436584353975 -3.281477367482632 0.34191789679328854 -2.027268819927341
Ni 2.9965011182138297 7.158414310659258 4.203995611959324 0.010900706072903808 -1.580524476145265 -1.3295922638029294
Ni 4.830723239531618 3.155694816914604 7.115619069704226 0.5109658727653071 -0.5955435968073872 -0.7012259640385665
Ni 3.8249683369794263 -0.18614279851635304 11.786204052604615 0.835592843688632 -0.1106016589096676 -0.5441202480300886
Ni 6.4621481243188645 1.057663876159059 7.5605012202180495 0.6307628250209975 1.4673830815328792 0.45950524299216994
P 3.445365428560067 8.375596316604133 5.759794683877109 0.655641076319916 0.9801317787756926 0.8960420501136245
P 6.507188428382395 2.988084448921859 9.182926386706205 0.3287219669283048 -0.1997001536402367 1.1733362973892567
P 5.662805547530549 7.27674823156377 9.020138918529113 -1.363306368225923 -1.156286026775189 0.5224450770495002
P 9.549489946344712 5.166212789844714 0.16267252687839107 -0.2462057534009437 -0.07457279031056835 0.0840323930615714
P 0.30909847196379003 3.2702838761517623 4.9820916604611565 -0.32136038435691106 -0.9326807843825807 0.2158088862766412
P 2.7438434586419778 0.8908386313921187 9.189547561678953 0.609539396865847 -0.3466165878205385 -0.2178022625575862
P 0.8616787654684612 7.434968637009414 3.8805906560910985 -0.2109052783274368 0.5912871355238785 1.7042917259026131
P 3.425241431827833 4.121998899525577 10.873470957701889 -0.0373756124349808 0.8040847457780215 0.8762319573662328
Ni 6.348031807519912 2.321508341592679 3.586380790092907 1.6246543765849437 -0.4827742408224396 1.1554645593151587
Ni 7.4014131933564045 0.9845093012116674 13.067601166685016 0.15471896094385612 -0.935108419987467 0.9321920176716203
Ni 2.3787843322921134 3.0977421556663653 8.566017897659224 -0.7140596254681251 0.28642449171167444 -0.8264129769615768
Ni 5.550543122646127 5.199286221599946 6.129666513637096 -0.5418183393697894 1.0831072885986701 -0.9206174254601436
Ni 0.7560319538810425 1.9556891195578572 6.938952439708998 -0.6832819779656362 -1.067695324918974 0.18861818479446224
Ni 2.416881811135725 2.320229156171653 10.86626673372202 -1.1174749674452626 -1.33136478232232 -0.1296800156973573
Ni 3.7583672699499013 3.369643213311049 0.06413353689128411 -0.5289777359616954 -0.13994745906163641 -0.2074648851873201
Ni 0.8444338628794942 8.947049229798731 2.5021775242313797 0.5257324895515204 0.27470180395810756 -0.8885393139786762
Ni 2.360032215576633 1.172707138915278 13.297463371275795 1.137692837154034 3.5256190392656963 2.2168357417883175
Ni 3.93775912105949 5.997776008107578 9.948025725941218 0.2261400929993202 -0.15688382980565885 0.38541864828940076
Ni 1.4256428822743097 3.986173508407466 12.273170476524252 2.3354723551873198 1.6698214600398855 0.3965972906140396
Ni 8.008136400224952 1.7880602126459675 5.602623581255089 -0.3620925719689506 0.19019632791485952 -0.36154338433369987
Ni 1.5157976460779505 2.076878034010746 3.2956859031646655 -0.43186511267739813 1.717507967482571 0.34136999470961854
Ni 6.860614382968577 6.949462152972474 11.181396843029736 -0.19056939498356212 1.508477280470028 -0.015747492642243847
Ni 7.4773764145543105 8.747588998714344 6.059837820784373 1.081719150001892 0.16256956733652647 -0.0594359346691299
Ni 4.648040730273737 5.005814061399495 1.6256268378245509 -0.330515825603934 -0.8291296045617914 -1.201069501638467
Ni 0.5269799000569131 1.132347911935939 9.560599393642539 0.53143802457673 1.15683521441044 -1.5198155883009825
Ni 7.22109439628955 3.6374935171224827 7.347163681207442 -0.07074596036531042 0.01618792261377212 -1.4277425843231217
Ni 8.995500694984997 5.3207532198400145 11.343533595144828 0.18940005726580927 -0.40627543713375186 1.9101928661472394
Ni 1.9949452808480501 9.144099401394227 7.030908259507605 -0.8607292337449435 0.408828799683225 0.5453924298742929
Ni 1.4106170883070364 9.545411384132745 11.519806273108218 -0.7081856831858513 -2.911395606660618 -1.2098367063081357
Ni 0.9630226939222535 5.366099416069442 4.364545432595577 2.068349649128051 -1.429164404371313 0.49747658002962064
Ni 5.559960893571945 4.589865601995756 11.212708150520207 0.6894238291973158 -0.6771411551752209 -0.16553199239896008
Ni 7.216607977856385 6.541726434750107 7.128629683160404 -0.505135125016143 0.2417045230964805 0.2990630064112914
P 4.492981210542368 6.993788708648909 0.898175408643875 -0.888737031811779 1.311534120749638 0.4389125064424828
P 0.012235686635904349 3.229396289976782 10.691648654292349 0.6822059712926379 -0.25970224522548174 0.29990529980692865
P 6.741056893400476 4.4912663605214265 2.944156480007048 -0.6854026238530648 0.6076712333088568 -1.3453287007015797
P 6.049360550629401 0.18527146931652347 11.545786714398455 0.8502753854014712 -0.4381049229395229 2.159127588443572
P 6.107619104043536 4.2283288702835 13.326835507823667 -1.520182227611782 -0.4292891244201058 -1.0770055465763064
P 8.759908110486403 5.2113272495848255 7.4353477579059355 0.7887946523881706 1.3900502119786704 -0.1466377265976184
P 6.307570616485273 7.430806649661293 4.7495301892428206 0.040487675701401236 -1.1800687310170839 -0.5670976827618684
P 6.329455810536311 0.6712729424946443 1.538718238763254 1.6517658880897552 -0.5932509441184687 1.2381064997871063
