# total energy = -381166.7012381739 ev
CRYSTAL
PRIMVEC
9.30114902538753 0.00000000000000 0.00000000000000
0.00000000000000 9.30114902538753 0.00000000000000
0.00000000000000 0.00000000000000 13.61317177321397
PRIMCOORD
 96 1
Ni 0.4759500164137972 3.037783108254374 2.162888216627408 0.5088976773823687 -0.9257850857040121 0.2146025246733659
Ni 8.926359028873783 5.8417725397541505 2.6200043367943726 0.27991908649298886 -0.1015799150270315 -0.07469646037262619
Ni 1.6377834889265046 5.89774685335652 8.461117425097143 -0.49558681920607556 2.59919066355073 -1.6204369960694867
Ni 7.644846744371535 3.7744061913994207 11.499835298807987 1.0453781494790124 0.7300297756441363 -0.11911612413858194
Ni 2.43097615919844 6.168726523095876 11.926785003005099 -2.495070498600348 0.3292333593470846 0.5381537460340087
Ni 2.679168014327326 1.5310993119542244 3.911880891427415 1.3408328697137553 0.6828667448050885 -0.7614684537693919
Ni 1.7830860358019156 4.5789648655301285 1.009838749060875 0.6610967001178486 1.797860340589394 0.6514704898819942
Ni 4.060118880870608 0.43780600510051715 1.2215710309278922 0.18255166688540816 0.8030614467198299 1.296398807770096
Ni 5.497639334540777 7.69655183066525 0.4775823680318125 -1.9374897541899794 0.6359664807091241 -0.9721901553311127
Ni 5.759541083031228 4.151558474925924 7.5825774132473835 -0.35845446099573103 0.5975480288319257 -0.04073835825962661
Ni 4.801001890175488 7.176078144962124 2.754217123930982 0.0221582812645941 0.22513119211883165 -0.9470663636802915
Ni 8.28979770474075 4.617304200968642 0.1245972594858736 0.8471874905047668 1.0037517321874778 -0.4735792045867328
Ni 0.4506285688645961 0.24593911688453723 10.227085626609627 -0.5167894214256196 0.1495883245855101 -1.723200646991974
Ni 0.6910483840389895 2.46570664889456 11.451331667938323 -0.6073135928591218 -0.26034682078801613 -1.6454499731740566
Ni 4.009753160007059 6.6037877591794345 4.827870118773555 0.5557845717418944 -0.6427359382224737 0.6117700859685786
Ni 1.524783831905037 3.5933686307552652 5.148024962327423 -1.4829379985483426 -0.8208959037980894 -0.22946170117338544
Ni 5.738473980952568 4.7853201532639575 1.2017530731358401 -0.8045377741550402 1.2111824217027527 1.0175169042923702
Ni 0.5504922134067306 6.68466124817455 0.5557315505373746 -0.3431260581687768 0.5531975277410085 -1.3248688901853312
Ni 4.058751611993979 3.0384806944159193 0.767050861396757 -0.11947993523590392 -0.29353693438673967 0.4750053955102981
Ni 8.108304387804385 7.181686737700945 12.13717698932707 -0.8655821909618706 -1.7349624155135928 1.0183178029271107
Ni 5.933286543000032 3.040089793161883 3.4594748730232023 -0.40496057497707033 0.4834141883992836 1.111287350577312
Ni 8.748474557679812 5.067554213076239 9.686860951385956 0.7426394939883468 1.098571188562224 -0.16104747426504523
Ni 5.061173624985307 1.766436979413042 5.296245279587856 0.11869214922728591 -0.05516918897297596 0.6087009601249517
Ni 8.721045469807862 9.133263084388027 0.9521279109736992 0.6986378915964162 -1.3713125263598511 0.08070127180580941
P 7.120820019818939 0.12334253450997466 9.645667093374401 -0.0949590672764042 3.0050835205340825 -0.06507410679151372
Ni 8.831747743070641 2.162526401938287 13.515578410978623 0.638331638507191 0.1413091152958534 -0.3239780244854162
P 4.148823937172668 7.397594305273529 10.981119530231954 -0.18601545706429254 -1.1848337565058948 1.6359929415262149
Ni 7.117676231517577 6.477478158195688 6.968922958429723 -0.685221361080194 -1.0834204489637147 0.5252444941715084
P 5.585339866770213 1.8936952975764891 1.7810249012232706 -0.34508601010862505 -0.6439410142741684 -0.9634450621486311
P 1.6930323129208678 4.5728912153502765 3.2754107185528234 -1.5349879251660468 -0.6221596567330188 -0.9478806320514708
P 3.527730423528292 2.394803991435127 12.003168827464513 2.1918857567111996 -1.0452099993322645 -1.4579995834354504
Ni 3.9355671970139543 3.074336623119332 9.265818406804806 -0.33805404296250813 0.2971503627696108 0.11694405618792764
Ni 2.01945613077982 8.384455496287995 11.485241796308467 0.6812873161331106 -0.20741552000662344 0.6193491838674172
Ni 8.67092157881365 4.262883925159684 7.3454492746406 0.3308220439904431 0.36442430542592075 -0.722807032643452
Ni 7.652920141547816 8.480871204962332 3.130158397881044 -1.3728009379799195 0.11651596751157353 -1.0151843995044516
Ni 1.954366691333262 0.6932899609047539 13.09682394900734 -0.5135482887805027 1.3221188382440199 0.6549080548086335
Ni 1.8022371012235308 5.971932816349624 4.913265826325246 -0.6398668442047948 -0.5305489371035572 -0.09799476877893445
Ni 4.442005449146796 0.3433202848064536 12.496524083666298 -1.354782389915312 0.80312983806392 -0.20933459140620722
Ni 8.36437431598432 1.8307823269539518 8.868150579324706 1.0717946917993284 -1.1652548059327028 -0.10294362814377754
Ni 7.589039851447936 7.522899382184651 9.7970051557195 -0.27118530616441683 -2.849606084157647 -0.6111645911740958
Ni 5.535727538961132 2.5464778252526488 11.096790477194698 -1.32264282906829 0.5389682715155041 0.6158383425006814
Ni 5.291200336467563 6.668402840036142 8.910324778421952 -0.580693162058116 0.5939924502701834 -1.8643323561696987
Ni 2.641275134032202 8.300717253456135 3.7004415957482464 0.41917414747329096 0.4097811362941652 1.569990923603793
Ni 6.4375018205647505 3.101244846657327 13.34454237566126 -0.38842195389209877 -1.1278815074905673 0.7479827605781312
Ni 0.28581407199333086 0.8105560548902307 3.328842098067641 -0.38806457055268007 0.04771916045283394 0.23979162234448384
Ni 3.9071986931111247 -0.3624108927607348 5.622430057922118 -0.7483869379950854 1.6780037387403617 -1.152422172944409
Ni 2.7391046173272717 1.0489370582431485 10.344281031864067 0.21315062271818777 1.0109557061350847 -0.13982353188926244
Ni 8.418004740083898 7.8414358258437336 5.668347969419656 0.30167524722315786 0.9001211052790047 0.9111845621820179
Ni 0.3941603642598524 2.0998180565898026 6.631874438273 -0.1383577459770133 -1.2332193468981343 0.3542211396406738
Ni 2.1067195090146877 3.771839074324935 7.642706550027915 -0.39575396877713775 -1.2592324831324444 -0.21675042425430413
Ni 5.330107041984132 0.31504479239183003 3.465096487370373 -0.053535252913978766 0.1667329546855967 -0.8063336897131984
Ni 3.6823899261172266 3.652096084408533 5.700038843681203 0.964958927689996 1.347188636728454 -0.9771318156071042
Ni 6.055578047693279 1.9582917761355552 8.869130920410395 -1.5153544672058354 -0.42017353527208284 0.8116864693846795
Ni 5.380668086972912 0.23748158226196578 7.292889412770273 0.07586219854595322 0.5614116881206848 0.561292131823685
Ni 8.402397412362932 2.9943932490062757 4.324577515171841 -0.10713246941414453 -0.7888352758181189 0.6266701430088627
Ni 2.07450032950013 3.1151779675905855 13.095408314156847 -2.02988286051142 0.2158852480405314 0.34790008251865245
P 2.0439553567732798 1.4460217036921974 1.637787209386033 -0.08727558258921744 0.8283796137696443 -0.008559202423920744
Ni 2.8922759361049097 7.98899855188255 9.34495258097047 -2.3205910672001133 -2.368616703149772 -0.24876811481148126
P 6.859932096549934 4.386672914813047 5.617965506488231 -0.9622980930283813 -1.375173037756522 0.9891470949004254
Ni 7.663049092613449 1.584385593547441 1.7555406835697094 -0.6005076256808819 0.5776859998006761 2.111118407554145
P 3.9049850196918223 2.3025086916883146 7.218220720153379 1.0446304726797104 -1.121563021471707 1.0099681454108347
P 0.1402631844444099 5.181316564300995 11.74871171849007 0.4987451623293992 0.1946412510600906 0.8148080457327969
P 3.843132380034833 6.1721493458618575 0.8070978877587318 0.3526167712680314 -1.1886045364022368 0.5023866157367284
Ni 4.936594037682193 -0.4928762470375248 9.75010690313627 -0.43654143510714494 3.438199732009763 -3.8212395956543412
Ni 2.934493850601613 0.29613834718419674 7.8993419880561415 0.5258188786177396 2.316350032535572 -1.1733362973892567
Ni 1.5704617737630029 8.668205643358034 1.8063454186575898 -1.5161507378548855 1.053914726195114 -0.832230097863986
Ni 6.138823329637648 5.6069836400757485 12.672256269023183 1.4797053505436581 0.6599746706982633 -0.6144669160744514
Ni 0.7267396824082774 8.789846067633839 7.934464056117609 -0.623027918270585 -0.16806967121914926 -0.2246272558992196
Ni 1.7667439173241217 4.431569560170083 9.958728880837679 -0.1376450361807049 -2.2635565428836246 2.3955407812341263
Ni 6.7345247070017855 0.44920921355457266 -0.26198452871495403 -0.05082402463040279 0.005066615889629983 2.0505499019424684
Ni 3.6718424233546663 5.6210655793901365 7.088637114784782 0.35513285282166585 0.6637583061104118 0.4833208573545289
Ni 7.71004779760394 4.007344162462523 2.2808323643619066 -0.9566118412768816 -0.14621298035537397 -0.05686920238321819
Ni 7.599373427787622 8.839077048341274 7.616637290113538 -0.09238565012227316 0.6455224998286754 -0.3135077210817117
Ni 2.1854537337810656 7.618059435768208 6.413178386284 -0.17305632580046326 0.7277116690339209 0.8123400438082783
Ni 6.1378932147555885 8.669442696151174 11.43717438931849 2.408408381225413 -1.9570404226283973 2.6439314581015303
Ni 6.0878251306542985 7.924411374472305 5.022579438069111 0.8272982077800075 -0.012530014146210678 -0.7693411716492492
Ni 6.302839787940107 5.163969921750578 10.160789828161036 -0.15107956441905593 -0.5588896930297794 0.5792469165298927
Ni 8.65697915673157 5.234174993048465 5.0754127537147635 1.2017850396482528 1.6716420581883922 -0.465805731288901
Ni 0.21588803516006116 7.644986261603845 3.8763505029327234 2.7241421634241663 0.066884163417059 -1.152624261652886
Ni 0.4029685521929604 6.985209270014594 10.388320111299844 1.9954701873595055 0.8045413736994661 0.328674401519821
Ni 7.527782485315465 1.4916624409548809 11.572707009472742 0.8709149160286935 -0.8371704725883968 -1.793785656299388
Ni 6.9428518382855815 2.204483884268013 6.8077833454574765 1.0988115867078043 0.3557180359011745 -1.5833290354735958
Ni 4.055152067400407 4.839192407232872 12.534245822823122 0.4475470421890293 -2.441982360526117 2.5275571583741434
Ni 2.973633084838697 8.020482940640282 0.2255035628107973 0.09292146802108513 -1.9793660827087913 -1.5556703932160627
Ni 2.022330185765385 6.513241075410896 2.3723947335816553 1.5494112996802285 -0.6727440545487898 0.28736654390996963
Ni 9.123162036768855 9.09471912367546 12.284035618400166 0.2098452124940386 0.8950341776744005 1.0746097926506204
Ni 6.158783595006655 5.494942001382802 3.953265422989792 0.07967925829919825 0.22804348066962019 -0.48677462023108425
Ni 7.408011591952601 6.948553442512609 0.9543499554269405 1.9509710765058659 -0.7299580418659364 0.5176733666924698
P 0.3688863525696364 6.4188716194770885 6.786519989138704 -0.5379547426493252 -0.2705445872566244 -0.30672129428749756
Ni 3.7695323894174266 4.542457856409274 3.339310541065226 1.1715928323355886 0.347051361365112 -0.387858625189461
P 4.944937168174271 7.472766190041617 6.7204139341260545 -0.10944749070056634 -1.7351393074110892 1.6222812483670772
Ni 3.896716298390309 5.280169173966332 10.392145673809756 0.7821866601533497 0.2822443921920559 -2.1451544140929313
P 1.3850805766196272 0.6399897275883065 5.2653022176914845 -0.3692093855193899 -0.9189325815585528 0.6671012544407157
P 1.177330116562709 2.076221042031941 8.911617638108014 1.430026495261292 -0.10007427701578249 0.3464353250476679
P 7.436380095855431 3.693021139219172 9.039309389806501 -2.271372439383617 -0.48753360988429584 -0.07427119990974951
Ni 7.429050790584798 0.8218541603626134 4.901694267077539 -0.158337788643366 -0.48169026372964147 0.05588215587960053
