# total energy = -381166.81903952 ev
CRYSTAL
PRIMVEC
9.26374261520457 0.00000000000000 0.00000000000000
0.00000000000000 9.26374261520457 0.00000000000000
0.00000000000000 0.00000000000000 13.55842371080373
PRIMCOORD
 96 1
Ni 5.393415637764545 7.907641628121045 3.3437922643427065 1.050027732435882 0.24069073711998548 -0.07851814811156156
Ni 0.3237233288930047 4.139364309430358 12.371152619469441 1.374025297305324 0.7437962333006094 0.9270490400181002
Ni 1.072963693030899 2.3183441585328843 10.917716838332094 0.05082582440261568 1.357001509053818 -0.04272813499614577
Ni 0.5797073946579026 6.352768794711982 13.567778935399213 0.6232824574835524 -0.1740012062122358 0.5320103521404321
Ni 3.091968545263643 6.516209000853578 0.5052630348225868 0.017619769964292237 1.1850548713777656 -0.6193568971769011
Ni 6.135163487096153 3.414735855946944 0.8463355003738685 -0.8156230854349243 0.34602600542439116 0.6279158424905057
Ni 0.9664769748085085 1.8494691036300497 13.500054494258851 0.6902910622936176 1.2829992465347386 0.1712817503985437
Ni 0.5720583226060341 1.3240389017287204 7.1788194784793635 1.9548891806133495 1.3023969343350603 0.10117805160292251
Ni 4.809697969046749 6.259751557854999 12.315386743318493 0.3372935106473997 -0.19893653600133482 0.23478311338629887
Ni 1.339768736225599 5.843031372338163 3.6076116033805485 -2.6090642139107003 0.8094064151012511 0.8647357838011753
Ni 4.148896700300375 0.7032588526486679 3.9874648734985456 -0.18295224475793653 0.3935186516887158 -0.5211384424229347
Ni 5.944367449818348 8.441436989357287 12.525325377772004 0.7668032357187439 0.7890862154866605 0.5782549849302687
Ni 5.328059935541059 2.287032709416601 6.890851415904145 -1.2228125497425133 -0.4839914010589923 2.281480988572529
Ni 1.4793455420939559 4.568433063489207 5.889562223748276 -0.7586482107117773 -1.206691732921251 -0.5091277911153038
Ni 6.969511704879349 6.736908398411667 6.986303164248632 1.9529443981821526 -0.3882221791764669 0.24069896465010163
Ni 8.488450481743422 5.304817206004741 5.269210159564428 -0.45455715495827526 -0.251654949440973 0.08166157883654968
Ni 1.028923861936576 7.601771383469727 2.0009794623834942 -0.4605599095089294 -0.694958642972616 0.022248012764922973
Ni 7.31919945080878 4.7326884789569075 7.942158332087693 -1.90559110570917 -0.44401923154142886 -0.9442533197115286
Ni 6.909649401864726 8.323546604311776 5.410692517232555 -2.163448584416429 0.7849896768197836 0.09427232562202473
Ni 6.85520638812023 2.8189567946997394 3.4103911607885014 -1.2077327725912557 0.1047390294813035 -0.3430458397501447
Ni 8.875396999372763 9.229383121748926 5.555604312315724 1.1031760343240873 1.2916258118614854 0.687118578102907
Ni 8.89863972890908 2.854446191612308 1.6706686863110254 -0.3264575963741604 0.4125052200935476 1.316585052909984
Ni 8.901789401305393 3.72161584851355 8.977641849976708 0.39434680401696603 -0.434646017856645 1.3063479485630083
Ni 2.1407489540925666 8.614530015019346 6.6687921009702364 -0.27345970402089037 -1.01642907054483 -1.5252737832020764
P 2.474345579573777 1.191280210224146 12.123983004543048 1.0497461966397212 0.13538760760509586 1.1799365763145937
Ni 1.8615397599018004 3.5193790894432575 3.4178614426131673 -0.8342460998527503 -1.2470829922541038 0.41479658723088564
P 8.650325115429204 8.184275501940707 12.200140230337416 -0.8593745194892618 -0.8994647026419282 -0.3234524909992494
Ni 7.91902676745948 3.2125083606189935 11.110504580213448 -0.43904337559339224 0.012362378220094838 -0.3123262991791008
P 8.81761903838511 3.655129969724329 6.743363374075639 0.20751270770612004 -0.7179468763376733 -0.5391670177898714
P 6.312508570493234 1.1925030242133028 5.2066511811540215 0.1682427064619038 0.6436880177230979 -0.8373921016808998
P 1.4372325694067887 1.1773660692263184 2.9441840636801895 0.36146933656265495 0.6119798879865396 0.31535454448246336
Ni 5.729494946193437 5.9576053376252025 1.588803142485457 -0.4733454913093719 -0.10287060881399702 0.27266857557816265
Ni 6.156303347120815 6.023433490708136 4.489858000943551 -0.1411111403524344 -1.050301554922559 0.45506957581831947
Ni 8.292902144644122 1.329328498606057 9.587906625124246 0.6276947276186352 0.34559277454171455 1.3374441557471806
Ni 9.130715002063264 0.3642095884249 1.622455539291588 0.1444630875438028 0.025777366074420126 -0.974397961615709
Ni 2.5672979702343657 7.540010013274974 9.980599442128389 -1.645533534026798 -1.5959066150282901 0.7100762153403449
Ni 7.727035707419545 5.170826436768668 2.9663392298655458 0.6925886000785426 -0.4083006950938968 -0.1710099847943958
Ni 5.710615439300246 3.719503715259552 11.752387434348796 0.07684281729166766 2.025932617614421 1.4720861434355035
Ni 8.439148844998789 1.0628754776203568 12.206052350700142 -0.9415611175913461 -0.46508273707994735 -0.6153408340389726
Ni 1.6622210796692682 2.937856927660538 8.661948332945832 2.471330474670931 0.16055459378902673 -0.36362932032845113
Ni 5.0820983126160755 6.405322005018692 8.736234282787096 0.7441425608964346 -2.1028566817659846 0.06276268504951772
Ni 3.2089325560749447 0.5798398661733947 10.170010549926051 -0.9961389528372264 -0.8688847729725424 -0.6393721639565634
Ni 0.06668968112074736 7.285136670216893 10.369306070802727 1.3349949228757394 -0.9764959817953182 -0.1294848689674157
Ni 0.7175954202972953 7.035182374342466 5.8632856185949205 -0.5478511758274307 -1.589562160867501 1.0320228112180292
Ni 3.0557380489637067 1.3589446828737373 7.1392966481510465 0.13681559830087406 0.7839509511426241 3.30537011493983
Ni 7.697864182784286 7.602753340157989 0.5130075234205789 0.3080400130989211 -1.0159739852852825 -0.5207856870692062
Ni 3.1812802851837887 7.740820156024585 2.721365121874229 -0.012680680791462031 -0.11591612914404553 -0.20734327200779126
Ni 0.20178468844399824 6.2376575323690995 8.279831004199425 1.1004552929588145 -0.9057893593083756 -1.1684990239016135
Ni 2.994523239567138 5.21742306074941 2.264853457501155 1.7344006294728518 0.8206107684575029 0.2236126985917762
Ni 2.8831174741610948 5.646223166280338 7.301197220315386 0.35926178738837483 1.15258081000946 0.9143128233983543
Ni 3.826963126427863 2.745625010319709 10.785726111067678 -0.9622178746097492 -0.6439284158686781 0.16960384847548854
Ni 6.920691782736505 1.1124550266352533 0.6560619381641585 0.27666766943522675 -0.6650294595133515 -0.46762375833424624
Ni 3.37895928302177 4.244165026546487 12.733244516394938 0.3854114492005491 -0.6761445955899065 0.59354970630581
Ni 4.828670113363362 1.8847454344687504 12.966353623194498 -2.585640178559805 0.03541103250944225 1.1257017262304292
Ni 6.142657854650908 1.3946749370872005 11.366907367132209 0.4126247763905475 0.02920670347094325 -1.276891333864788
Ni 4.818813491511372 8.26106266221434 0.8863131804511827 -0.1296008257199897 -0.30463330141021727 0.7426124974051533
P 0.5414083046929761 4.841166901782849 1.704415573289046 0.41558514457045204 1.000905006767302 0.6348871316020162
Ni 8.23012176279174 0.894720953000869 3.449100634539182 -1.8906313990755441 -1.0407558202156528 1.542444381444092
P 7.921509450407162 2.7763806348954674 13.284909636609083 0.08877582128382776 2.0839343909401853 -0.033185485613033174
Ni 4.9369262063730925 7.147431140301641 6.324448607997961 -1.464631486929671 -0.49704412047789237 0.1691770453507151
P 6.948992515591607 8.722128382322788 2.0360408743998586 -0.8197142247851624 0.5270648352096987 1.9103473894472327
P 1.3547204163657418 4.487412372965238 10.362662114794976 0.4210130004542426 0.3455526653323984 0.0113943578798707
P 3.615110602806475 7.949208040010028 4.868192943691679 -1.0320037850546355 0.08649936654482522 -0.5541588632130133
Ni 3.3589959182745535 5.679535583742515 4.7665724693215905 1.0084725347019148 0.2216586601891989 -0.040377118265465944
Ni 3.7663504602835305 8.141829034529225 8.301090366500302 0.8380238217276278 1.735002781833225 -1.53559804794622
Ni 1.389876318553995 8.46793129245568 4.274224944072354 1.5115134961931904 1.3132691011628739 -1.2079628863241907
Ni 9.065090651311857 2.590058985168895 4.607667791430686 0.43300025472310594 1.3723751632964105 1.33018464597129
Ni 6.206021852270843 8.544699925244627 8.462747302241043 -0.6378377295899079 1.4146883222423248 -1.2306821822985772
Ni 7.5190832193241794 6.619953651342708 9.325511123284384 -1.4604894397368398 1.1058206710357859 -0.6114222157108566
Ni 4.640319704063871 0.10921489034213794 6.238000290835758 1.179447038272685 -0.3020010059936928 -0.06548445485605496
Ni 3.877774753174258 5.05953183627073 10.404612045616922 -0.7472530815009583 1.6363786070004074 1.1364355677081655
Ni 2.9123075262810385 8.281720807637214 12.123480909708105 1.2418469406661452 0.4641239727111039 1.3914735746887585
Ni 5.026108253900448 7.871364813109397 10.589250473359936 -1.3179215123332204 -0.19163974522960545 -1.0080243914209026
Ni 2.1950066929902214 6.059904844308966 11.910966028509257 -0.7812237820194481 -0.7185572562281625 -1.1084930756616265
Ni 7.886020053494593 5.104247920556027 0.5739555370376953 -0.11929250181544615 -0.9325861677862455 0.02367214680595923
Ni 4.903817591242443 1.2849737002721027 1.6364206308722973 -0.5912184870694721 0.14919751690499466 1.6134631358548146
Ni 3.105373180432656 3.198269988639192 1.5053646152102003 1.013061439624178 -2.445961656888839 -1.3453875789639733
Ni 2.107223470556522 1.9811254097959146 5.309885399440103 -0.6530663736142044 0.16911251066136682 -1.9130519328625888
Ni 6.7698410024378175 3.4106320180893954 5.737111595147108 2.3581299446858357 1.0314080604521658 -1.0172258554145126
Ni 8.739182931974586 8.68607389712735 7.9136723243857485 0.14723576519293355 -2.098973544661495 0.8969229100566811
Ni 0.9620859609383551 8.762240386664063 13.5344655915628 0.15372111580696107 -1.5720413783749183 -2.6051849334609525
Ni 7.705831001198488 1.502097293286143 7.532693509573187 -2.7390905572038826 1.359579297083323 -2.1402361508557077
Ni 8.493147199110865 7.49596091843831 4.067675912941816 -0.21257880937511772 -1.0936992051819037 -1.9926980239310066
Ni 5.128685672854474 4.882362763978148 6.744271220825165 0.4542910457810821 -0.2515114818845733 -1.0973820533501295
Ni 4.32374057326509 3.1047061909840252 4.717246746846867 0.014705167420658544 0.6009339145850231 -0.1746231560669509
Ni 4.2941336527397524 3.874476860900472 8.65016577906092 -1.1457509315718204 -0.17049884948593216 -0.5099407739349024
Ni 0.7281949942851212 0.0774411804829837 10.838033832202322 1.9696138884180336 -0.27365073698577386 -0.9635005979769148
Ni 7.090014465265331 8.831310849566728 10.514855211359032 2.516435851650001 -1.1396787572358116 0.39745243952548326
P 5.110964133754046 4.230352786714422 2.9225995440231065 -0.016951026032041773 0.43623933048569385 -0.35923787612897484
Ni 6.060219811548597 3.076757480337922 9.541144180155582 2.3609998100344627 -0.7066877584840863 -0.6667253591585356
P 6.511438173547399 5.514548332629789 10.689379485212946 -2.496614703159016 -1.3069570429019168 0.5739972380951792
Ni 2.7180375856249483 0.4291715815988465 1.0246829206923644 0.7996794176214744 0.6785460059425474 0.9762221593086414
P 1.6459539481165482 9.181156079115976 8.625543678289864 -0.5557051246542107 0.2470465041346842 1.0380582187788314
P 5.03791952538662 1.173753209712901 9.389493012518537 1.4171732934477077 -0.17062997574715777 -0.8896479736618227
P 3.314761548591046 3.4799803932623243 6.891407240444671 -1.2068411140149216 0.3204476427346546 -1.9700764298767492
Ni 8.089664901400884 5.9964018905539005 11.967423906213162 -0.41288831446457924 0.4319401888897077 0.1297311806502669
