# total energy = -340896.64015251666 ev
CRYSTAL
PRIMVEC
9.02704744433358 0.00000000000000 0.00000000000000
0.00000000000000 9.02704744433358 0.00000000000000
0.00000000000000 0.00000000000000 13.21199640272779
PRIMCOORD
 96 1
Ni 6.463438009965516 2.2272072469116995 11.402045261381751 -0.2648866176398986 -1.501273563632737 -0.15844886029993357
Ni 4.706846841661238 0.3818982587479486 6.1288333541912925 0.07199525939137924 -0.9346109115257581 -0.1732591858398887
Ni 2.8924013278665894 1.4194399825155692 4.907728431066896 -0.7853408895116152 0.28772084192559483 -0.6042406103607528
Ni 3.498757115186555 4.296739060420325 4.991637542884127 0.6687138503434742 0.8439394158811144 -1.0334292046472524
Ni 4.877954521294562 4.5567180197154835 2.4477596748659702 0.22210808902179166 0.5265179615672932 0.150905757845353
Ni 7.163774385661242 5.974253295272327 2.6198991459939958 0.3313902577890873 0.44825923776470544 -0.2993759096660199
Ni 5.196338475959151 4.462701323150932 11.323724794484646 0.20375992553190714 0.8449565442917192 -0.34265528917994537
Ni 5.563685134624329 7.8039364647367755 12.478690348200578 -0.4296339093540342 0.44247245587959927 -0.05100374474137668
Ni 1.8987761887160153 6.543038512155263 0.33184960096947147 -0.8858247432609906 -0.06615988365652477 -0.2653378462447043
Ni 2.7585211908767815 1.6553438069343314 0.4665873074430658 -0.00024862567569634603 -0.7068898471925632 0.15091784203021105
Ni 0.5439427829947321 -0.11480418085152602 4.854377679423481 0.11568370141826528 1.501967247265652 -0.46497937873286377
Ni 8.574223429167853 2.2738319456880705 1.5116377290697738 0.2638453208595779 0.7957132338848748 -0.2896656243567915
Ni 6.824980277282543 0.5464667453912226 4.787485454278725 -0.08121060734206015 0.42168560104123504 -0.41872060487564017
Ni 0.6189638641410606 7.564187118211772 2.54358629439367 0.14373160869441695 -0.3919142833160734 -0.15025295475270253
Ni 7.648562928369128 3.8213837820340864 3.791816591642581 0.4834684386759867 -0.43516538069522476 0.1449271716644149
Ni 7.545293508426885 4.043557467665073 12.48192744732569 1.4316815143662118 -0.1728372678111217 0.3112466929616769
Ni 7.921748457714592 8.910119855396076 6.878099033812974 -0.5433183209540836 -0.18395883164557997 0.20856197490624084
Ni 6.774807948957456 0.9219233032588577 0.29760640012953227 -0.14955361469283276 -0.6581355606069955 -0.1972882017646344
Ni 1.6748873641174569 6.647327988430852 9.261635781390561 0.6862924826571858 -0.33661268253029125 -0.48085156987843
Ni 0.1774374451283843 4.81352848544423 1.358510122044926 -0.8975659429573186 -0.18220791039274425 -0.10615365044064298
Ni 6.414376008445753 1.945382833397991 7.139551207210804 -0.2857128103566305 0.25791172898396225 0.18247556223183414
Ni 3.2046107822479195 4.336187256674487 0.3528356802947972 0.7503471470452496 0.012676052805771719 0.4147744757436985
Ni 5.892071057584024 5.442758810363291 4.684960765730297 -0.24149703507136472 0.9019635578043822 0.31565510644201766
Ni 5.264637115057317 2.832904059786229 9.370158942801893 -0.08605970790424533 0.1519144016155255 -0.5764971216988974
P 0.20197927834490317 5.594503473757443 12.2850294938484 1.4126520085385865 -0.930389674355559 0.30795233848112125
P 4.165684389203413 6.000088704352284 12.436478070094466 -0.550337175474078 0.41829894395718925 1.6759252589447782
P 2.245351611779174 8.458415440667938 1.2852420934644004 0.7288213571583319 0.5381036095223636 0.5086539368026789
P 6.294081577488557 7.605530994377461 5.857934375901019 -0.12069041060423731 0.29397247926226144 -1.0700998205954086
P 4.711360365260113 0.9509452599996192 12.634631685836965 0.7964051177455768 1.5262099218631007 0.721285710902919
P 4.057838256331911 6.2818950637715965 8.204319408031553 -0.5493730117885959 -0.8935311107663128 -0.006167305152976475
P 4.748660124281209 1.0278647291716343 3.791737153627241 0.44463758185171814 -0.5352597123156653 0.05043141717767443
P 0.17209794671091608 5.672343701743628 3.4630759057280143 0.13974896989758515 -0.9669798147747669 0.9049601785388609
Ni 1.375153288963415 0.8827820266094203 2.6939389871099295 0.13866524991510312 1.3181050890989363 -0.22807716212103302
Ni 1.696227303692934 6.511552171529517 4.9087322387152845 0.9550126151105618 -0.28183147302435335 -0.6084322798445974
Ni 6.0633683052085 5.684331620422238 9.139913271566682 -0.5654200379491295 -0.3707399632313034 0.5492616830217121
Ni 8.5993005662832 2.3906960987101225 10.048184971348384 0.4266812544836136 -0.23830501049662833 0.7469000690369136
Ni 2.396292867972727 5.09494668183404 7.099584858447492 -0.4361282588291263 0.5102536771896309 0.1769266073891469
Ni 0.4951849929655331 -0.07617293236876127 9.325225009965662 0.1567169652104914 0.4046839242769159 -0.9832839512514292
Ni 1.4349303955069057 1.19852105644507 11.280851736523656 -0.05001541268617838 0.039632526789957545 0.9734376545849686
Ni 3.9594795500652435 6.935444253841391 1.464707916098119 1.0323688817035384 -0.29651144363403126 0.03835134608468879
Ni 5.697502082283753 7.841931306392099 7.9757256864335275 -0.281984710772766 0.3529242752061212 0.11052221182198385
Ni 5.298298974057721 2.764063797856199 5.123598529639693 0.17187490389785237 -0.24541025408284184 -0.7090104930799919
Ni 0.5953897303841404 7.4413741410864045 7.011962922117826 1.2876915098040855 0.14567587690498138 -0.43391711011042045
Ni 5.117902462857915 4.489204733723522 7.145959508016484 -0.4468019364928886 -0.21525584198664863 0.10955727680555327
Ni 8.027716964768961 7.079461764834271 9.056493425707568 0.4067459490122673 0.5505045542898778 -0.08640783527228345
Ni 4.6399203137371305 0.558052057764813 10.494592314780883 0.02194025171651705 -1.3525465586062577 -0.15545866732335806
Ni 8.218593877765352 7.139329141849738 4.821691644225154 -1.330776771029334 -0.706795487706544 -0.4731328610779335
Ni 7.333997414669186 5.924288589032789 6.825687095078126 -0.45386424265630865 1.4675669154089113 0.9032298261113155
Ni 2.274301352142353 5.415081883654993 2.5181399510479365 0.13469315264123255 -0.3236178129325201 0.8105852659007008
Ni 2.29732934954381 5.3052678544943825 11.448102158889384 -0.454486706731656 -1.1809704168957467 -0.43090789097045146
Ni 1.301501610876985 3.369246069040457 3.8450472835582645 -1.0422293194373857 0.057956264799809865 -0.836302982381779
Ni 3.5722553334706233 2.635085347494768 2.8219768191533543 -0.3177094178678851 0.12663737221629157 -0.41404042579115147
Ni 1.0971473164143541 3.1570743517045763 8.10525568937874 0.2800589545049629 0.4141527829992997 -0.07797924488895604
Ni 3.5390267727357108 2.5296404091778677 7.073041728867232 0.7365457223857831 0.5511617282579023 0.62614898039807
Ni 4.095345637438556 6.719914474947947 6.07359414427411 0.21468402864357866 0.8047388344222527 -0.6633248181174188
Ni 0.9409793998933049 7.548615461795657 11.428469233939001 0.35349685988013957 -0.5331444657448754 0.3336428012686899
P 0.271005497447207 5.600479379002353 7.930223049623838 0.18050558298965688 -1.4071601321860798 0.7159157048402572
P 8.50584354664491 1.5474615658740387 8.088912220427218 0.32005015018591976 0.0018802477418483749 -0.6454921608113722
P 1.9033258205036807 3.124558927698286 10.35548280934942 -0.015960894204630576 1.2019480475886783 -0.018706318160251655
P 3.926539854840659 6.207602465334126 3.858985947136308 -0.004374989139244078 -0.46748183343974326 -1.3032569683425101
P 7.039056701577148 3.984078253679108 10.239098895238287 -0.12310981867900735 0.7311867720667149 -0.43017255546632366
P 6.1036469898048535 7.6598196562247205 10.306044379961511 0.6654030408026863 0.7832207578448188 -0.8880240649051545
P 2.4533167251209043 8.413578097236721 5.681461922118074 0.1795311348915295 0.020538229162667853 1.1525412150207766
P 6.902982992118288 3.9797452710241887 1.5535322551145245 0.29834978239435067 -0.32890014437738196 0.33973374465777617
Ni 5.368836320860928 3.1562709445039765 0.19232575407163094 -0.3408694009241162 -0.7673783914959236 1.020999720634648
Ni 1.5337946164166476 0.9314468380524825 6.980175078115675 -1.0321048294088742 0.5712800962743323 0.05868285855318926
Ni 6.852485690094082 0.6583272061515628 9.280700905072207 -0.5272864643022016 -0.2261408643302686 -0.19326133999342845
Ni 2.699060030985212 1.4645932725987074 9.167672344404478 0.6435005843026401 0.19170736524274726 -0.27124418442681025
Ni 6.185955606153925 2.0217426256437454 2.498811237588117 0.4709700490986598 0.9044860671159197 0.38856619277944693
Ni 3.910724468150204 6.737896352965862 10.422045547271459 0.7701081317222609 1.3605601729393535 -0.4437248402294616
Ni 8.266337930394245 7.006766953750803 0.3560565307349539 -0.06661136937164658 0.48188566756989915 0.6065144939965942
Ni 7.732189493609071 3.8517417417601147 8.047625214658876 0.3490624782578698 -0.11782491613098417 0.9269554518630294
Ni 3.0770495782965352 8.547088125291422 12.338934506189757 0.2081773378733124 -0.7242172827274173 0.32120200440217583
Ni 0.23842507870109303 4.729685271071542 10.16114763457157 -0.46909160112902437 0.333692937780335 -0.20036889757248716
Ni 8.464012209930543 2.193987713223985 5.896170239716522 0.7882133259634038 0.9635864728225018 -0.3914093186551969
Ni 3.765849387673538 2.658997995521604 11.620347246469622 -1.1738530891246752 0.04280192565687467 -0.7794584625889092
Ni 1.0685676849862824 3.2877859951279746 12.713005412312537 -0.6726118998462997 0.04760037548678254 -1.1539967165203804
Ni 3.0665240412639605 8.333643594300657 7.905238891094629 0.6022258939235693 -0.70878680710496 0.29665413985948264
Ni 5.640956658637056 7.882643289253945 3.4332694985857684 0.0017727756297066242 -0.5723764146623046 0.3053976903800676
Ni 3.183532627041177 8.358314514292106 3.517007096506243 -0.3224065662332383 -0.5228379416125447 0.07248248344044292
Ni 3.497746085900407 4.478588926218969 9.283845025611184 -0.3883947001985892 -0.5342752369152088 0.22011908361622087
Ni 7.392384355944222 6.2788078136299665 11.35240733425077 -0.4455603507763036 -1.2470955906595942 -0.20204577105427782
Ni 0.4081723823217154 0.04290916614977777 0.1863787353777542 0.25556225491517925 0.311750886291605 0.4631742072033249
Ni 4.633141001291622 0.2994804151277849 1.6082569233414354 -0.2688119208362338 -0.08554960103704622 -0.5449064913768099
Ni 6.077170660373858 5.636596594840544 0.38768730411586466 -0.6724352650591194 0.7195108783906834 -0.2867091128316288
Ni 7.9878715784380985 8.615928387221452 11.15326345143068 -1.0293748320722207 1.1619889906972374 0.9026243313168326
Ni 0.15106853755904112 4.728313159897484 5.83182815540513 0.28006718203507897 -0.5249945829442313 -0.48247650707636264
Ni 7.7894841621731805 9.075522441200423 2.37262304751551 0.7043866211547352 0.10424743455686562 0.9346420218740098
P 8.54011924485476 1.73220911382316 3.7395364477968207 -0.09110138409321085 -0.9501912824625184 -0.44933524443770356
P 1.7579091171951498 3.240520376000563 1.6027206352950563 0.03952248357465451 -0.27793008108741807 0.6259240088714575
P 4.785896693971922 0.9850313902183176 8.274950636125617 -0.203903650198623 0.011975170084005183 -0.32683940519361127
P 8.456898896738716 1.583994025883327 12.209152648627725 -0.10275130962731335 0.5136403342736767 0.5343058330428282
P 6.481835132154528 7.822450938539358 1.2889467936343564 -1.1294653070379195 -0.8234652071871624 0.4470677885597656
P 1.9235102980378462 3.2332626300535736 5.862361239846795 -1.2976514492302749 -0.6403008464184198 1.6302264713560828
P 6.9286288332070916 4.016981840714902 6.0278143771154475 -0.014457827296542844 -1.4626681925557132 -1.3004997173123474
P 2.5030557551804984 8.573663752241593 10.19835260959709 -0.3270093551125723 -0.3871364023114558 -0.29033642517157093
