# total energy = -381171.0639634293 ev
CRYSTAL
PRIMVEC
9.22398641980518 0.00000000000000 0.00000000000000

0.00000000000000 9.22398641980518 0.00000000000000

0.00000000000000 0.00000000000000 13.50023650021665

PRIMCOORD
 96 1
Ni 0.9321760571744512 3.08269312301534 9.38609326431094 -0.7009292587337541 -0.054492474620925505 -0.16808509783811698
Ni 7.488880698708485 2.268436506914689 2.135048440787638 1.5563653624005582 -0.2471290365461615 1.6089637053225645
Ni 6.001678936880352 5.843708947219065 12.71785707784531 0.10946008910605665 -0.2531940117933188 0.18470727977583026
Ni 3.6566095516458006 4.680794872330198 13.420395538872938 0.5182132983563398 0.16441304830316847 -0.1839871137803541
Ni 3.9088302334920124 7.3366388045499225 12.551966451133799 -0.3389431304356808 -0.7152798710284715 -0.018708117932464557
Ni 6.902982311852519 6.288554135318731 1.9002527914924674 -1.521303999921051 -0.2310827817165762 1.6789763870662762
Ni 1.4432310190560111 0.3779205553782211 4.94008758448549 1.835612876747819 0.9688526063174475 0.07538037381352823
Ni 6.108640282209809 3.774593560623818 1.018634325718955 -1.3306240475015536 1.599902880671877 0.2195927787991057
Ni 2.3495430185981925 3.196849177671891 6.988006250524762 -2.5990153143151304 0.10530338662520575 0.8034741087772163
Ni 2.2126037177391793 5.3064855361567815 8.879631847615139 -0.3445975005079807 -0.2951934961535561 -0.2483104584487723
Ni 3.1796372192047673 3.1005784324835894 2.876373764277353 -0.8808488873129541 0.9767716040542083 0.4830727458994648
Ni 0.5462573832609444 1.331178033279688 7.244888735055478 0.350052610085281 0.6596751371799736 -2.044521179249885
Ni 7.043768015005632 1.2352946955166917 4.480309684937578 -1.681339230871498 -1.402223871226727 -0.8223550048421192
Ni 1.306494645895967 5.586562656679689 13.50860636481763 0.14543367898718823 0.5926194811820568 0.6001584698715793
Ni 3.7844263300375123 6.603110516693787 10.019578196575209 1.6002196405813471 1.6599720780496316 -0.08605610835981953
Ni 5.060057517717511 5.4966103421183865 8.219321718344391 -1.944982977243231 0.8886637553716824 1.9480140507600707
Ni 5.940892867052729 4.2525344116281145 6.369263093191982 0.03463301669283713 -0.7650260892136631 -0.7578776510943399
Ni 8.67057480973833 4.405892408131008 12.445381444446065 -1.2219607432651793 -0.11861115947770541 0.37855688817256095
Ni 6.15743516982561 3.4541891719239195 12.00364105014063 0.1756035177023492 1.24626769544166 1.7294371148199894
Ni 3.7214357274801766 9.080525657601592 1.0275234813324423 0.17433313563035785 0.8031005274878813 0.6197266218114941
Ni 1.6741904124420304 3.7985113571432456 11.825477909634635 -0.20295774134558595 0.1062842624812363 0.21403405376440557
Ni 0.6695747011273275 3.21525103037388 3.3200862468573176 0.5191550934443188 0.055819678072781286 -1.7410351040702339
Ni 9.195880830479325 6.814893242527207 8.75074508681068 -1.2695557194353233 -2.3172519755245515 0.44979187235914786
Ni 1.7258170638570847 4.801684436998003 4.662414234796738 0.19541335333942475 -0.08547015394936248 0.7017833792039334
P 1.7652403813750306 0.8728123260368762 8.798184970836544 1.9469496140512983 0.10964289454082407 0.35817241097893804
Ni 8.18667526357339 7.116259323469258 6.7428419182108925 -1.1719597287567043 -1.2641435472808165 -0.20231445133463222
P 5.676026099966202 5.647090454890443 10.448642988884115 1.1196341798801106 0.3275559716446617 0.43732279335785973
Ni 2.6606404051044534 8.268012374914814 3.1060667043420773 -0.5836697281879367 -0.4918142395375208 0.004333594378347375
P 6.179978592383836 2.81576940698017 8.275537302952047 1.6743728268559939 0.450461901842979 -1.5091624794625105
P 0.4007240943505809 5.161327663489511 10.262231759813648 -0.4149565098475176 -1.340194464798808 -0.5048541034406143
P 7.997924831572986 4.906745641146202 5.888884342604159 -0.3864910554179731 -0.13045803151396243 0.5368303992368948
Ni 8.237213484603062 6.542859438072537 0.2664422239494336 1.2871394939553573 0.11106394325806679 -1.602202732449647
Ni 5.523977909520292 6.772739625059493 6.445013236021328 0.8645411512918658 1.7740133587684672 -0.35890131872516257
Ni 4.9781669671970805 1.0376984606384896 8.583517904481866 -0.7602062992275166 -1.5974137957014358 -1.2193233056423323
Ni 3.649470186236608 4.530794406846614 10.72106420076409 1.7287159203832487 -1.0624212210042283 0.7981637523078964
Ni 3.6033871505979422 7.973545835737719 5.596036613025661 -0.6092005254691896 -0.655922869226393 -0.9821776055611278
Ni 6.82539013895571 4.251796492722772 3.5545313846724507 -1.1522578794524028 0.0488905550531158 -0.04351026457780893
Ni 2.9877229598977055 2.4658205901076045 10.052586231609828 1.1477967583572555 -2.16860210359291 -0.20950916931085856
Ni 3.6811822511937202 8.860616599823084 10.33259509463399 -0.4214223200775194 0.9405100506190125 -1.1780761260670871
Ni 5.789315099908975 7.884229976232274 11.3744083755684 1.1549683364050303 0.31974958822636546 -1.3143137403773042
Ni 6.327285653862918 7.455047116898513 8.706828765557828 0.3952826855676741 0.5905556566744926 0.8269364535652145
Ni 7.702987869093735 1.4022211758915781 9.666709065634748 -0.1864764558611111 1.3163731940094943 -0.29862283355007924
Ni 3.5344194049073288 7.506433944669331 7.943970968410206 0.2870081321292864 0.8683286433587563 -0.5566407490946027
Ni 4.255052559892597 0.5377925310180294 12.283325228846442 1.1260580811285832 0.7290499282293702 1.0843732997952875
Ni 7.970741743897416 6.3769383722061805 10.939754769950152 -1.1754607999314273 0.40826829919406454 0.12969467098537663
Ni 1.9775027544969233 1.5293553792958476 12.236857552978368 0.31743996625658233 -1.4128533259161151 0.6085091558291198
Ni 1.8660032078996072 1.0651490439172464 2.159983642997807 0.8936748354330286 0.41770810445072576 0.4652624571909213
Ni 1.1277245670903264 7.133065426538443 4.961796236282048 0.36706585681382586 -0.36469915635386224 -0.6190820462489596
Ni 1.1405735800296102 8.288766344127584 7.0283980866059705 0.7952442646682562 -0.857293468590517 0.2064212744141542
Ni 4.128545587557869 3.5545830389958244 8.117394824746636 0.8111473090517578 -1.1668085235730679 0.8998843066778501
Ni 1.64390806536402 7.92127350528049 9.37935698710379 2.6895065756281684 -0.7749235508330331 -0.2811758417182254
Ni 8.498556688916578 2.7873226331792007 5.071822712264574 0.7670320639000984 1.3712299939483739 0.7439147611563447
Ni 9.072934316862877 1.0288342097880576 3.3624630847938985 -0.2005517030072546 -1.5634924603636429 -0.7170215363099264
Ni 8.616402338099842 8.742531126995582 5.283195893105527 -0.044455659210213765 1.159962704295828 -1.0299240197074713
Ni 5.000286086384735 7.569913418501455 3.387532957204293 -0.1499498216899869 0.09785027278127019 -0.4261572636593435
Ni 0.2505843466736141 0.9706216321428176 0.594123415454645 -0.5150996924280226 1.786291147694556 -0.8536972665988264
P 2.0452621579800376 8.133794150019252 11.92864727418926 -0.8607773133740595 3.0707186420353887 0.8266042670367764
Ni 5.119893516954506 1.8176326236543785 6.138476188350087 0.9136978155221749 -0.0027428528524597925 0.21713917505229058
P 1.849418480502025 2.61139354215913 5.091681954804614 -0.18929824158062236 -1.2646765369661508 -1.4956395052754112
Ni 5.8766385783699935 1.3023069561081462 0.8302805251301733 -2.465784348041721 -0.4815812489556029 0.49736807947621436
P 1.3312794971291728 3.6080913836195037 0.8401077601520776 0.9132956949877497 -0.7183471970998855 0.26054453862111904
P 4.984614533632515 5.1898943491126 2.2497607018190906 -0.3617182193486674 -0.13832380741528433 0.6384900184619262
P 3.9745695839717503 2.683912522581706 12.135065329580836 0.21098318275322375 0.9796769506264611 -0.7419738353798898
Ni 0.741231238829284 0.23818823146248466 10.594715880994011 -0.15706560679916173 1.6055083997841124 0.423527025125348
Ni 5.705505960234651 2.3389538823065217 10.235068964907976 -1.7751986373258204 -0.2549351628541416 0.6996624762061886
Ni 3.4553329462272013 2.3741895100366466 0.6953022437621086 -0.44675642796693377 -0.5065489746445341 -0.05651927524296718
Ni 4.666267093881259 5.6169649155798185 4.684041715513707 0.8521610324599582 -0.09100548194529488 -0.7430927794756815
Ni 8.97002230152649 2.0045198104187913 11.695416935372048 -0.9326234487820841 1.0738947688614666 0.7038425757258072
Ni 1.2393532494960777 8.037375821049881 0.540508994988323 1.3842770569403193 -0.34669603490822226 1.219280882440171
Ni 7.083292796373062 7.002389212388527 4.333940702866914 -0.7074686025141687 0.9511513323829426 0.6175049315698269
Ni 8.639941951180282 5.48178739610731 3.9725799701232196 1.921365080713975 -0.293545676137488 -0.29013742178688745
Ni 3.7449292206290323 0.9464271160338864 4.371889104972806 -0.7552620678483638 -0.021224970817047318 -0.38739171285537155
Ni 3.121295505751092 5.623947473221625 6.544792785604535 0.07497953883068377 -0.014073961594562858 -0.08574577620825233
Ni 7.881149164802468 3.6381708029985447 9.987582955238171 -0.3396170165742538 1.4943850640430199 0.5760818885383497
Ni 7.205584406961019 5.158578915567109 8.14172216625853 2.0314918568697533 0.3840659909162482 0.199310888621618
Ni 8.9414556159034 8.399629435669041 12.407108358021823 -0.38514688268525277 -0.5532137256909246 -0.1599516700977052
Ni 3.000166117439051 5.878630959414419 3.089069664756135 1.236718361190328 -0.974867702163276 1.176584114902593
Ni 3.870440002441547 3.5884073968194805 5.220433123010216 -0.18787539309116674 -0.7858988188976143 -0.281564849626528
Ni 0.6416057298175672 5.270733365192918 7.003760819153833 0.529304780283811 0.3273824221812749 -0.6203159186560607
Ni 3.2511692330914466 0.6908203088107819 6.840273040877845 -1.5135343832779613 0.020919523761486553 1.0719985802800183
Ni 7.680204622891272 8.871537799622159 1.2947534337133295 2.4996228938577207 0.24630216976949193 2.137918044245492
Ni 8.498077041628104 9.0054700809419 8.44816420687071 0.03686730533999457 -1.3232023011161855 -1.0097256903827256
Ni 8.66732796655482 3.3110144563147585 7.5015138703679565 -0.805944681804896 0.7101163245496609 0.4180240930292478
Ni 7.425890096151149 1.4809663470779852 6.746040796665554 -0.8249682740952503 -0.8347096697527302 1.5949655912712595
Ni 5.961785196060251 8.122153479287467 0.3814690229142889 -2.4901203536839245 -1.555289098617244 -1.3202653299750486
Ni 5.331537882993174 2.442779072288271 3.4738805379129953 0.0019676652493320953 0.17198983220916186 -0.636186310029414
Ni 0.9873908392667357 6.211386265792495 2.355616091189165 -1.1252186159464233 0.6708825758600188 -0.723475005244754
Ni 3.8688534767950595 6.803418603549124 1.280795697618768 0.14865244303480205 -0.41122815315333694 -0.6676252452649857
P 6.618440781952286 8.737863789919288 6.07560549761487 -0.6552325280275876 -0.4135827694284426 0.3100935531938402
Ni 7.0683222665809184 0.5948244384147207 12.501934626952915 -0.19858789441266445 -0.10646243993031342 -1.2463890515108726
P 7.803649231768827 8.753166383218836 10.542833725157982 -0.869834024259689 -1.7331904112148346 0.4603218253561943
Ni 1.9567118893388862 6.238237289960661 11.30080465435497 -0.5727520528341684 -1.93085707936481 -0.14013412115114574
P 5.283176522734261 0.33362974028090703 2.7937120885008384 -0.08029529461664235 0.8170585323298702 -0.5675121445914678
P 7.524033310561758 2.499257540505956 0.005851696919369403 1.7365449295093642 0.27644989699746586 -1.389591012954065
P 9.097912871808735 7.969505729730967 2.8965706047165893 -0.46317600697553785 0.37864790522447045 0.6826849678115856
Ni 8.63342981684063 4.397166517075328 1.6833581324422844 -0.10653005994345523 0.2578968165856268 -0.9865965605644297
