# total energy = -381162.7505898706 ev
CRYSTAL
PRIMVEC
9.26417286513743 0.00000000000000 0.00000000000000
0.00000000000000 9.26417286513743 0.00000000000000
0.00000000000000 0.00000000000000 13.55905342507767
PRIMCOORD
 96 1
Ni 5.356442670124473 0.1820048605932185 2.4286704658937173 -1.4840574568647666 0.4526429686546979 0.38329517418849474
Ni 8.318596997988907 0.4953645711250572 13.107698961093318 -2.150320531674903 2.2446404227054115 -0.8747661714539839
Ni 0.17604614480059003 3.817394946378244 10.878198014717853 1.1528476905176017 1.2836577060543441 -1.0999436434297185
Ni 6.066541497091158 4.0254034129390135 0.23489309533907773 -0.11819001277988678 0.10260861340186199 0.3118419033435145
Ni 1.6539790485648687 4.468416144909619 12.852598852559462 0.0851456807304082 -1.4702462620132875 0.6683482394739393
Ni 4.519600698321112 7.529678590854805 7.007793472933171 3.1619807200761803 0.49612135155330683 0.18500192819811365
Ni 2.553715487899565 9.274085227808737 11.60709199498069 0.9567730494450941 1.3108360662413487 1.0327997985933697
Ni 1.5411136342278156 7.50043159807289 10.964677212760495 0.8064406476047079 -1.199880109316056 -2.2280403522548853
Ni 3.4603352074486944 6.35592645544678 9.278974858087578 -1.4463625134171543 -0.8353994967309032 -2.5307556107067835
Ni 5.526866388596479 9.190225937766957 10.285409552084026 -2.026514972480452 0.9449968827457724 0.7426716327778629
Ni 6.447169291021403 8.582598123521453 12.416946505690293 -0.32168125803143954 -0.1884693179214238 1.1331106170999905
Ni 2.9585968856001785 1.56930451133753 7.458699279927595 1.156981253070001 0.06927734623958393 0.4806211990351787
Ni 1.339747579394836 0.9838273336905556 4.3533375197472255 -0.05787784615339064 0.7864832306461745 0.35573140563761313
Ni 7.147021943133226 3.8431030252410303 6.453783910231504 0.2113382520997973 3.1181506102651073 0.5936625777345905
Ni 8.52717057907603 8.781481380107504 7.574344872450854 -0.49906372201108246 0.06134523587670081 0.397831934352089
Ni 5.760833066679239 5.274426950422763 4.81685371843463 3.4248875882818886 -0.9787834922779142 -0.05548209222770445
Ni 0.5916072806320215 3.9025141638886147 6.877260355100904 -1.363158529794149 -0.15976089424313777 -0.2410866870068235
Ni 7.530614272283684 3.732581446562458 3.615277567150392 1.493123423721777 -1.2796730103749832 -0.05921404846631092
Ni 5.506049792847044 2.7811694526704205 2.9997909553195536 -1.0395458590679516 -1.0556959864652526 -2.64291201569808
Ni 5.891476428165008 2.366032615942382 9.754613226573884 0.6897868689636893 0.4644065369485292 -1.1063377198815205
Ni 0.31262969373386124 6.175867997509083 12.120708838889698 -2.601908319592209 -0.7307764240021737 1.1979049878675563
Ni 8.864794083968057 7.079856692050273 1.415077345757709 -0.7535543411286376 0.896018910185173 -0.7385910349505861
Ni 2.7654481518307277 3.994312849817028 7.340329094253508 0.5559900028844812 0.7249513326799644 -0.24429028154578575
Ni 3.9977683861830893 6.17823036151269 5.158785989985786 -4.763397980510055 0.948019214511864 0.4074697145521692
P 2.1741438096415218 2.403663684893963 11.18312732821721 -0.009611812058151188 -0.27890221519270036 1.0910679382066437
Ni 2.651628527719668 4.370188123222368 3.160343697925504 0.3204640977948868 1.538267624358583 1.2988025321155825
P 8.484268195936009 1.6183490408869317 3.273915042211871 0.5009313713474406 -0.7009770812525541 0.929644054438786
Ni 2.8022917661144393 8.997910979528193 2.8786822802357945 0.5253709924470435 0.8152392197329444 -0.3933774981251612
P 2.9198911726312704 4.021456875427105 1.1122222804952444 0.9429834518601696 -1.9091991347754023 -1.4078437885166657
P 1.2543597008801335 4.843448378611711 9.077135404036621 -0.1535128564508969 0.8889388634099401 -0.6960351638662464
P 6.731292199361145 4.253542926479543 8.616913545112677 -1.865704296816561 0.4048731574695866 -0.05936471511156227
Ni 6.401904543877773 2.3787801173892986 11.950352748877403 -0.12907297824097771 -0.5409518776044361 1.6991760019426025
Ni 2.080936969483507 6.96423981846196 3.3202192295170874 1.147277652628992 -1.7790208392853877 0.5150099609276936
Ni 2.595811888026592 4.865765770316378 11.00062220230558 -0.2771566932565033 0.11448839555858346 -2.3680376907178506
Ni 8.876837508300174 6.052747144144604 7.562128208091806 -1.4118685934053428 -1.3715691224553475 -3.0893550261896534
Ni 2.7205076507268084 6.370304451264814 7.124984329439966 -2.4546051914964497 -1.6169834903032476 -1.75179285680737
Ni 0.5243002877088504 3.371556641775873 3.788901130825714 0.360701862269011 -0.9411335431356244 0.16396259102931116
Ni 8.024848614356035 5.724498981886501 9.552420807548271 2.0787250788251037 -1.3890505670695625 2.2684128425346612
Ni 4.122871772476085 3.4546006846320942 12.476267781864014 -0.73362443497393 0.803777498950248 -0.0681306342296504
Ni 8.576187316107744 3.4051300031447873 12.831812828579485 -0.6184379849070575 -1.1514353835511073 1.3493643042235342
Ni 6.105404700993641 4.92350009373003 2.5734815264803363 -0.5830223244119249 0.8942929286330018 -1.292864826474909
Ni 6.3843304085254475 6.742436998954635 8.520874647402103 -1.1564544340322533 0.5228921918892478 -2.8411962628273972
Ni 0.7209045578443624 8.515405079920809 13.110193802764577 1.9278792276834087 -1.942297717101584 -0.6754395991030819
Ni 7.431432040822428 8.9710726716127 1.720942340685946 1.0045888833767924 0.06781798808523805 0.23496103372505986
Ni 5.2883139450949495 0.5063935685615065 6.306179701617091 1.1123595005955682 -0.978497071385747 1.2501166368741052
Ni 3.054249467314869 2.106570934965788 2.7708056228240063 -0.8915264216314582 0.26067592199266076 -1.5183793700750883
Ni 5.000494631902503 5.1308415398662515 7.087235605496834 0.3045659385073916 -0.3431985632779251 1.2217807660438893
Ni 1.161551220142335 5.515879079936563 5.2887224951049845 1.209125282063408 0.43539163777341794 -0.13538657916383137
Ni 6.2447007996534065 6.831159979592077 1.3527229794868065 1.0949374484643788 0.6622138444414273 -0.7404103475475119
Ni 7.160102954792418 1.9417149842042463 7.298607893115289 0.7695273195181263 -4.530044143371114 0.4047029504403095
Ni 4.436139767699548 1.1398823205170894 12.469569785100843 0.46045526561026506 -0.6914071781759318 0.22492910341035455
Ni 0.515969017322795 0.7014961163245292 1.5083907239002 -0.8074855439294545 -1.3026573870852984 3.947856656155659
Ni 8.569090959924358 8.344064208365051 10.913301817394201 -0.7488543645498071 -0.33429868968513393 0.6902311555899596
Ni 8.00938671034811 5.415853808772058 5.129118403769502 1.4900980066318916 -0.3506668466305122 0.3239569414394937
Ni 7.991821839168348 0.06852801086699634 5.2875700320381265 -0.04392035553203404 1.1388552328932515 -0.7730451028633977
Ni 3.263990334144951 8.658684772782737 5.408543450202463 -0.7044766097653803 -0.5551109427136376 -0.6766873554672539
P 9.080204624406797 7.24399930152445 5.3465513130787805 -0.18182018803602237 0.7019877819052556 0.9225385537422564
Ni 6.782541601980582 7.42075971402966 6.236025828465258 0.16581481374670154 -0.446382846677599 -0.5764156177286847
P 5.744018593477093 8.623341954454258 4.497768749258754 0.05031006110846175 -0.0975985617817803 0.12775451653987033
Ni 7.030858483363686 4.592204018698645 11.54484231385975 0.19147519462728313 1.3240443374015067 -0.01725955841139608
P 9.440840333945728 1.831526915737948 6.845423099670327 -1.05616238457871 -0.18828368427317896 0.30123713124447477
P 4.191046818368425 7.256589312037793 10.843310067262225 0.9107158500757154 1.8394093676757741 3.3685765723949856
P 6.140478858317787 1.065917166772771 0.33939296185159196 -1.6936946671130573 -1.0923028390550091 -0.8135700595606375
Ni 2.7618443887036563 0.46209044252993337 0.5445684444425453 0.09787624092319917 0.33460979316764955 0.4218984883829895
Ni 3.937365981071246 3.5589523243835974 9.156645165059993 -0.1280530216168956 1.012639778705727 1.0855449515058853
Ni 2.8708651714269955 6.839488470726363 12.957736094144321 -0.9676866110338044 -0.9588828966992453 -1.9019023440036726
Ni 4.9509683653798175 2.6116073022467905 7.373101104695709 0.4825788369821818 0.9638929483193269 -0.9227172454119658
Ni 1.4976276082163136 5.765326190372375 1.2616385612630132 0.6447115738916058 -0.8438568834696369 -0.3899314485580897
Ni 6.343808917734159 2.3267432601019946 5.0391002918077294 0.4767977115240304 -1.7666618034994024 0.7178959684950798
Ni 8.244668900934842 1.7995006711870825 10.74488471869938 0.31564610758095313 -0.9767422934781694 0.1069010701296288
Ni 0.27874227691505576 8.347806934080571 3.582152591733535 -0.24461501187505616 0.18885575472656504 -0.8693285453781803
Ni 4.349000960570407 8.117388434089502 0.5321924363154116 1.3256811016739816 0.4554634688226285 0.9358159875774528
Ni 3.6681769189033266 1.4328895703449085 9.894976557912928 -0.5019536419643678 -0.6676370723395275 0.05673936167357325
Ni 1.0035137003872838 7.326552343234824 8.424009385498895 2.0034791737069106 1.885786926499049 2.532374634367445
Ni 4.878309459966905 5.124486317487919 10.608901488148202 1.2711135508407463 -0.8771871221906505 0.0020800224574802884
Ni 4.1179895535352955 5.703710178654757 1.4130836958221156 -0.27138173844593905 0.23239404432883204 -0.6527640118824372
Ni 4.2396281392896675 1.2758618453992423 4.502310973066475 -0.671562889756495 0.29534570546070427 -0.7495742734349672
Ni 1.0566807867272943 1.7027641812825016 13.355002341998013 0.9987478512149833 2.4843019472299344 -4.541466526275443
Ni 1.422217243552141 2.626754224387567 9.140754329862395 1.1508738546206825 -0.34470471550980636 -0.7169145784184169
Ni 5.133370658975996 6.255697372485885 12.685551924986731 0.7498087580432763 -0.30484361764881046 0.05218542375430367
Ni 8.138816465228105 4.681084490269661 1.1998446774321825 -0.7357057429829911 1.4780269343999706 0.08311476634330847
Ni 1.4597093499152747 0.19337477957999233 6.795906097320205 -1.2044533305090352 -2.2579237700778787 -0.8371208502973843
Ni 2.34566070047598 3.08079132170834 5.175544878152553 1.3800553055494877 -0.11194274631859431 0.5426788875978719
Ni 4.972776227593511 6.887208223599232 3.240261082541657 -0.7345310059485994 1.930248242136218 0.6184534115260252
Ni 8.448286149700671 3.0331364180434135 8.752125070089344 0.208236473246022 0.520818854299987 0.2885428236062579
Ni 0.8206389339903839 3.5798986185489166 1.1745377372413814 -0.6520253339441997 -2.4132194294608116 2.444126146341997
Ni 0.17166882326449404 5.498833002420336 3.0707183868804098 -1.0871251515088116 0.13078636138765862 1.0134010823517836
Ni 7.434998747259247 7.21485421464073 3.772195974859813 -1.045429057321606 0.5168174464500777 -1.4389585076435993
P 7.2256099189865655 8.846914230921147 9.270378632366214 1.2816769281788896 -0.3695104616995765 -0.7219886505072147
Ni 6.441555202448125 7.0355646830257745 10.640968495058344 0.3016605919351385 -0.41205836236411614 2.4032070395301326
P 3.0257528725105702 8.328806116153517 8.106890273740921 -1.5807635887392646 1.9387534513937512 0.8358797788014314
Ni 7.562881385321193 2.146944198996066 1.3122969096729185 1.2501410623541374 1.5136493115892706 0.750249959345753
P 4.601449662916685 3.5609348573121156 4.713018093094894 -2.3638863875536384 -0.3908619307921591 0.7495873860610897
P 1.994455918606351 7.69861077754414 1.0940691343577202 0.6806949339647502 2.908550681012655 1.741264960692853
P 7.371668863617443 6.589022301308604 13.140322744774508 1.0551519410363248 -0.4239371160795732 -1.2082120262205192
Ni 0.9287240352848435 0.3751415509383375 9.973849870281212 0.397284032268419 0.4423603557817672 -0.9394258164158982
