# total energy = -340870.26858991774 ev
CRYSTAL
PRIMVEC
9.30561384672258 0.00000000000000 0.00000000000000
0.00000000000000 9.30561384672258 0.00000000000000
0.00000000000000 0.00000000000000 13.61970649054134
PRIMCOORD
 96 1
Ni 3.287906072868844 7.462022991116847 12.751300498671615 -0.6019456436789891 0.9895101346667989 3.659227443483182
Ni 6.940620132080792 6.6401232442152835 10.471429717097058 0.5043427110218347 -1.344777199073484 0.3139494366048206
Ni 4.5503149761489965 3.266037879926816 8.221209413467685 0.7260340242211818 -0.20050670870193213 0.6021384764160855
Ni 6.0038053576723796 5.598024752808532 1.004903952177269 2.3911837898170107 -1.581637763814102 0.42460945955624935
Ni 8.499087145339923 0.6726739899493747 3.824699486929077 0.08500915515254392 0.006628046839478908 -0.4504942977428112
Ni 0.9673837164571609 5.537026452921303 1.3894956739223945 1.114460606098971 1.2766522212707885 0.6786514211721602
Ni 2.0036103654186275 1.4257410405220523 1.4142839685432336 0.10973545425463037 0.4037650120070724 0.8299675270820545
Ni 5.723818043102288 0.14279092485882194 5.304263268369168 -2.2219635499331862 2.2833964604276873 -0.8629828056658105
Ni 6.0606626593216495 3.3409294615427463 5.727345801376467 -0.6099615720049301 0.77881620101922 0.8728555846948323
Ni 2.510580217112944 3.8711540426677553 2.06361668685155 0.4315604369527858 -0.988046405637079 1.2444386126527214
Ni 1.3035118003971469 0.8817320533523517 10.104406064056295 -1.3926645096730659 -0.9187960559806886 0.08193925797796855
Ni 5.8107697004853955 8.283010787844658 8.895997638921923 0.6158727952830425 0.016677203545364828 0.6280832213063053
Ni 8.960347820978393 4.541791033708615 4.190035101586995 1.5440523493611602 1.1040561229361952 -0.19785615845296248
Ni 7.305623536318271 8.914564200010405 6.784125760019234 -0.4381092938148971 0.2654748860432009 1.83855756119844
Ni 5.238409299087408 3.5110546970177006 13.141655187178015 -0.0023672146805959232 -0.13241901189507518 -0.2499042852984535
Ni 5.839282101836191 0.6968927809923194 12.59479682099604 0.3426717442401776 1.1734378559641274 0.7070446276028726
Ni 2.41600726184919 7.431584327664348 1.6517167102095425 -0.49411100599149743 -0.7144283216614535 0.21291356700671718
Ni 1.9524387939342835 3.2547222532810696 8.317867756832847 0.5506336236685743 -1.99139678862108 -1.0870498181861858
Ni 0.28785428066081115 6.701959049364122 10.706506277294038 -0.5992863516792711 0.8920925785475733 0.1319675261799534
Ni 4.722087305305117 1.8688743800536858 3.4354893889468756 -1.1565580494896532 1.5211309646782962 1.3617487939308162
Ni 3.868957917759535 7.890630267166563 4.510574420924222 -0.27449945813931437 0.6369517274405289 -0.588180985794729
Ni 5.9702865359799615 5.8431718484956665 7.7229458942485 0.2847687012758064 -0.5452857290930996 1.7490775147587363
Ni 7.563640296192139 8.586243526231424 0.7662596195658317 0.0902565195944123 1.201679367308324 0.5162114374349627
Ni 4.748571082800015 6.572880877322055 2.6949858478597433 -1.0462937193147464 1.8789526771860352 -0.6917748459279957
P 5.699409417533378 6.171138908941968 5.674501080491708 0.8793221662557823 0.3030333039129491 -1.9137474162677166
P 1.6905415930149579 3.8071593350667676 -0.00762036731924516 1.2468713904639301 -0.660929835522681 0.5641946501824606
P 6.066059915452023 8.33401485827668 2.577434539901628 0.4186501566490209 -0.4375475077741562 -0.4699390367309842
P 2.476856671912133 5.936172154990398 3.506910907095537 -0.21329074784047783 0.1689191637036381 -0.8474589989985986
P 8.912926411943257 8.51414362882086 5.450102712380248 1.9835196998658484 0.30996165560166616 -0.6068078568672968
P 4.958477818201422 3.737143895196209 1.855521754499424 0.12212971415392516 -0.38481315349491796 -0.3169231745211638
P 1.2739664758903653 2.4256571835857357 3.3450406818158473 -0.498600923442051 0.21820078354758551 0.7273645701071473
P 5.227661314896752 0.7233691139960029 7.6237806184669195 0.5292158201144305 -0.45284865690760073 -0.5573544873321756
Ni 0.45647014554206455 4.589286887655895 6.798589475887231 0.7593658056040922 -0.2862661117569393 0.06654374935850475
Ni 3.962544477937394 9.027543659801534 2.3416358640568595 0.8006852331781694 1.0545503028965837 0.44757558143411946
Ni 9.346372607282273 7.280749630048468 13.443059372410268 0.004417412341405295 -1.2468240821657623 -0.5332434532165848
Ni 3.6355917294190414 6.735710511406987 8.55449649344801 -0.11576700516069094 0.13390793773577583 -0.4175263274572229
Ni 0.8989818700573032 0.18150227917321912 -0.26715859508503725 -0.0715651138324961 1.4662217142349265 1.2422678302536476
Ni 4.361829764216758 1.7911352805482834 0.7721370453795272 0.9345029251929841 -1.030963002494947 2.4913827653361156
Ni 5.356888376763106 7.730266620796368 0.3743146016237744 -0.9905763711477844 1.1964739118479846 0.5026388409568504
Ni 3.900038668579267 4.126974677633403 11.012023543922195 -0.12974892126207976 0.8941065236538085 0.6311423198476034
Ni 9.003739899143786 1.3539389227600598 7.137502730102769 0.9104296862938642 -0.4250015527883455 1.2457118229381898
Ni 1.7962719794861552 5.509602808410599 12.37332692961601 -0.50404549149639 0.1197784403129292 0.70535592704654
Ni 1.4536485769616863 1.3892258111158757 5.510996789390479 -0.21451510716588218 0.5048589885366208 -1.2890266836757411
Ni 7.884870092089493 0.717585674883888 9.001700108551066 -0.7858034309703306 -0.2552364961446443 1.5858122069067657
Ni 2.295239003125092 8.441922758428062 6.530704112347397 0.27556852283377703 -0.4400178236915196 -0.7039875859441037
Ni 7.331009251359059 3.4554164308047723 3.0601576837109468 -1.910513996932084 -2.1783476130154487 -0.7038950262302974
Ni 3.622619703478111 5.915169384152035 5.5683491497055 -1.8907450418352725 -0.9681126428276295 2.008024884096064
Ni 4.827184910023098 7.886079821911818 6.758207763856623 -0.14883010626324691 -0.2664179666827605 0.3414553553345732
Ni 8.32191756005343 0.07854682680215477 11.694929056484233 0.1522861831326474 -0.6529272769331788 0.13749385531482128
Ni 4.423042093226398 4.680193430996604 3.7839222863027095 0.292168079063671 -2.118082497576804 0.26672829883432775
Ni 0.5450782022203555 2.2797358501712974 12.325330433634566 0.3269641036969337 0.17247474226538037 0.44659599112966963
Ni 5.465187112703239 8.036179376020286 11.470067268794685 -0.6829451634515077 0.13497186022391597 -0.03590751252988655
Ni 8.453852555598989 2.6506204024680797 5.467291112032683 0.338717644688436 1.108677937978923 -0.9651147365415701
Ni 3.22323205544455 2.11274660662037 10.276532006545095 3.064957828292212 -0.9796157583712226 -1.2366903361658703
Ni 5.00136739320985 5.826570633087762 12.427506075550932 0.2990313818424076 0.10433408073340097 -1.2898154981256238
Ni 6.801073144268604 5.664076001107473 3.4533170842823377 -0.919834524547532 1.1801286377207418 1.69972673223975
P 3.0694288669569647 0.5618571548560021 4.250505773159411 0.20098853343435708 -0.07442443765816215 0.014430059382400953
P 3.368967276578631 3.689489845810625 6.534694359638265 -0.6295767751326964 1.3639591713185735 -0.5068737049738045
P 8.084419679088995 7.89508765628113 9.115464962165305 0.6086418247522422 -0.5610414492654596 -0.3010972632325008
P 6.766828484682791 1.8148645962938874 4.446194460902894 -0.6794320080919267 -0.5135516312146123 -0.815420739616131
P 1.2517167527736046 8.276552691716246 11.770014194871735 0.7495395635422898 -0.7035908647263174 -2.498619392293871
P 7.883818557705473 3.47292959638643 7.462318909642615 -0.2750815558950295 0.47720960225046843 0.3686619976563522
P 8.278237007853484 5.136252268399077 2.1000770131350213 0.733454227944653 0.07263032187221685 -0.9259946306116568
P 0.37152850078682 8.619455262661251 1.7061675800737883 -0.09223549769765406 -0.006708522368427157 0.5201285131011816
Ni 9.037593722940848 7.009258341076704 3.212616210972948 -1.4553143232938035 -1.2337528508041011 -1.1148228745343962
Ni 3.3351599808516585 0.1487427955846605 11.473581068647837 0.07985717863795926 -0.8717615802997051 0.36256462650936266
Ni 9.015939559121232 2.075961514407675 1.8177809757270922 -0.2277750574995819 -0.1867752180484525 0.09851053207308841
Ni 7.61983689924614 2.449284137577143 11.588750139417373 -1.392104523404538 -0.2820474456899013 0.16033090781399484
Ni 7.1022586475714355 7.90898093800983 4.5121275279038064 -0.40004102618826587 -1.8500923013109172 -0.6697523189103176
Ni 3.1213821100188106 2.278982095435849 12.750633286146533 -1.8291912894921916 0.6492886517393269 -1.7630164934373316
Ni 9.132678486975585 4.476447012075035 11.223850958056893 0.16714407408108634 -0.5995923129554641 -0.007036595131807237
Ni 3.8403617658825775 1.7033926459736555 6.020332128168142 0.7450607018353297 -0.6598363453481862 0.43584595170201706
Ni 7.087704667247465 4.700414530257465 12.493901631568535 0.6785004974165928 1.2549009456366258 -0.6845539026995242
Ni 9.004530876335307 2.8887975932558194 9.381907955532366 -1.4171092729789916 -0.15528666052186804 -1.0286924612932153
Ni 8.501236742178055 5.329939318567313 8.960200792276911 -0.8759920734412848 0.4609602302711416 -1.073353551646016
Ni 1.2038765911076637 8.090552078726782 8.905340475395878 -0.14450551074596404 -0.3940223307980117 -0.6388299182998481
Ni 3.7273823060914486 5.3344990694360765 0.6867887452917011 -1.2172959907996583 0.18203384670872522 -0.5668863380820108
Ni 8.937967819265383 4.141221572694783 13.858187466555078 -1.8241418999937424 -1.1331424987791905 -0.7557225524245501
Ni 6.283113362419166 1.131590581416741 2.0988105190671873 2.5455042297708674 -0.2841063851014591 -1.4382810219606004
Ni 1.0178666725041812 6.498063740618267 5.179016217618263 0.47474442853942755 -0.3698249076162018 0.48538493897240925
Ni 3.1492710352304085 6.600276604990704 10.922964164964036 0.237018687585037 -0.9943324957561068 -4.274130675764104
Ni 8.755373061006464 7.077608076038061 7.045623750097192 1.3364383401904856 0.04749341759527305 1.6872103449402944
Ni 3.483230911104228 9.232295085037034 8.811718553884752 -0.07755321309513095 0.5923723981682573 0.0642680659504506
Ni 6.678294872916644 3.95548151689782 9.877052232932758 -0.4526676512450462 -0.08900953456118864 -0.14956878420148437
Ni 1.1973161332250553 8.534262366327523 3.8496376019356044 1.789542564752318 1.3867242329292313 0.07202714107057917
Ni 7.67617308651041 5.360322148335705 6.073299683157937 -0.9287783640043811 -1.0035979802184327 -1.0076302413062777
Ni 1.5177084238607992 5.291358242849167 9.165817639616074 0.5447373127887973 0.8246936802776249 0.5656781767065225
Ni 2.0283539930921806 4.034914238154477 4.764854046208508 0.1691071113447281 -0.36922918301373187 0.06126913122312675
P 4.915523103894871 5.311597953338065 9.596009661733037 0.17518725610053698 0.32833501590253134 0.3108242607122776
P 7.770690208090056 1.6923003540643378 13.730843860965946 -0.537880437767964 -0.6795518214992425 -1.31908776472718
P 1.4589248601098266 3.055637946982461 10.493779940845211 -0.2822881009457977 1.8752793420995058 0.861490023170368
P 3.1506482661050557 -0.09651410634788508 0.3270095127638614 0.7005561916650515 0.8106505719209974 -0.5299053899822874
P 1.8037257763144803 0.8542618807715584 7.6974494424009 -0.6533093428629457 0.5920083299606191 1.102477465595166
P 1.8722616235561953 6.403304673074154 7.245616284323946 -0.6043038594985205 -0.20754947448132643 0.49457457589147724
P 5.541856066596585 1.7536894897403184 10.699151119974303 -0.0903915025103798 0.6322988020495498 0.36258725221718197
P 7.099085433191337 7.010319181074742 12.886939128596293 -0.06389602732301254 -0.6265852966045402 -0.9067039007028448
