# total energy = -340887.6973510772 ev
CRYSTAL
PRIMVEC
9.12532897411978 0.00000000000000 0.00000000000000

0.00000000000000 9.12532897411978 0.00000000000000

0.00000000000000 0.00000000000000 13.35584135601770

PRIMCOORD
 96 1
Ni 6.671354770507669 2.2400675525074263 11.19972819054898 0.43911433804064376 0.0679192895497927 2.458157684734399
Ni 5.128955133900662 0.5021988025440872 5.992138270176754 -1.4640920694864334 -0.7586407545126096 -0.062341795462015216
Ni 2.899582467173381 1.565468468733467 4.9261684190877615 1.0410445551006653 0.12171885186875164 -0.7620423239949908
Ni 3.885738539262825 4.629836129949406 4.863623412998067 -0.41614641639056066 0.4615672677275212 -0.6927264112079877
Ni 3.6906846283834542 2.6392824527717873 2.6585332471760506 -0.40995519997818425 0.40580749635839786 -0.1125235585227288
Ni 5.132285879045502 4.6264688834879095 2.2660455395713512 -0.25994212915042975 1.2347933762534733 0.4952541184570051
Ni 5.344650539348881 3.5456375213225133 -0.05612077435827517 0.5264372289280288 0.15287727974942703 -0.1371765811847186
Ni 5.811429376743107 8.112864767878078 12.370487846559243 -0.5406734271320689 -0.6171467768994597 0.09787855491604434
Ni 2.3851967875308424 7.172618226812452 0.304316952156809 -1.3151197812183673 -0.22255468964090705 -0.43971571907006857
Ni 0.7710045362593958 0.47749562396436585 0.3786810845796474 -0.03960501598613179 0.16569011524337918 0.3113019716796445
Ni 8.034651571613887 9.312945931557936 7.071317035230558 -0.027802881144881147 -2.5640668232644033 -0.7621881055442358
Ni 8.857619382264463 2.8472122031014884 1.5003555950170382 0.3609234913615139 -0.4930339708772347 -0.7159645558003218
Ni 7.20960318591393 0.7781597068568467 4.799194938968935 -0.1563850357923694 1.1702712853106878 -0.6603194556321919
Ni 0.8034815827538838 7.847363315853035 2.4028360488047524 -0.2647439214144473 -0.15973569743215715 -0.011282257782038634
Ni 7.803625613170236 3.8716764070211824 3.390981442651937 0.11352654586594643 0.37610174176384903 0.7179692449351764
Ni 8.199464141643936 4.0158931091282035 12.611760637121089 -1.1594325428239711 0.39056034039134024 -0.37158791305389555
Ni 8.624713606013039 7.247774437806721 9.31588611261456 0.1954632327407537 0.6778554076334261 -0.011194326053922657
Ni 7.190248362757198 0.7370911629545025 0.2958842354764054 -0.5815945908264629 1.031472595141514 -0.6288062155152591
Ni 2.0838054159039947 6.5129299308923825 9.07713738809946 -0.2652357734492013 -0.40018732195814305 0.20646755427105734
Ni 0.25642813723733054 5.608837943974316 1.1605055236287354 0.4450648991971238 -0.9357331980556594 -1.2439133362768706
Ni 6.532877900444771 2.020594260785333 6.961972778523561 0.9546022670460205 1.2825467323783526 0.15717642134541318
Ni 3.3369047420263853 4.833267093001281 0.29417049865941614 0.06007948179039976 -1.0666565992418144 0.7473055320054485
Ni 6.548847226481678 5.6298992036847055 4.445491705376844 -1.3905559479704954 0.7505932016177846 1.2056872029161365
Ni 5.814011844896504 2.821834662696551 9.208211791144565 -0.6061509400095884 0.9298649122003405 -0.8478724323869332
P 0.9014867054417601 6.11394316385712 12.25267619692102 -1.7050957098611472 1.1233267982403492 0.9070887948460895
P 4.398764544859936 6.319089688791817 12.622485636487477 0.2603928435346031 1.1124060375627873 -1.3377205493370186
P 2.4840879796805377 8.965791034173893 1.6752498287074171 1.4999072794128296 -0.2464824041010981 -2.6026562535018276
P 6.6741471212318375 7.961101418552473 5.7317798536685105 -1.3115893994676058 0.2850044714356963 0.29309856129774037
P 5.080727769269201 1.5471174317847691 12.6197206617508 -0.061250105059733224 -1.3295202729144135 -0.05117292332938929
P 4.189821882993037 6.131381667889422 7.99078702685571 0.8442322645311848 0.41795981545021565 -0.16496069327652235
P 4.968130332715256 1.0577990313555934 3.738848115710767 0.805763161921709 1.156343876596318 -0.36985884617793074
P 0.22078551405586927 5.947880423731609 3.373137774004755 0.9859000487180377 -0.5334774236042619 1.0059885919377964
Ni 0.6051334280463279 0.1257944875908447 4.830153530690542 1.1083076991236978 0.9664337124633098 0.5157668936983764
Ni 2.0306321228656747 6.481776057126667 4.829992924897256 -0.24329860705647777 0.8875880058090004 -1.3068405719287106
Ni 6.505511038282093 5.826321913938669 8.818621375549418 -0.5730595567722583 -0.26262584663017996 1.9199951969496418
Ni 8.92479093024028 2.747928621797743 9.910060932867903 -0.137007402596706 -1.8093580568163483 0.4186884660861241
Ni 2.583563192896726 5.3531005941546965 6.783886504691633 -0.5089131040013364 0.20588648495660672 0.6683839778078811
Ni 1.0993649056973727 0.35586684913686306 9.350037657010631 -2.7122757510038835 0.5668164040760237 -1.7925193879924548
Ni 1.9192848564071912 1.411341659154399 11.444567159748097 -0.614826099186083 0.02700841026804381 -0.5258106510876235
Ni 4.484615641634351 7.068936236851684 1.4253891908693792 0.3338831994142701 0.5442215494946434 0.42140303680380975
Ni 5.572181496722739 7.973886004711162 7.9764693853974755 0.37928502458783714 0.6131859924794989 -0.4583790998075267
Ni 5.503431266801562 3.012435412943916 4.7110196208564625 0.2058692585654261 -0.9710452430933922 -0.2664099962629605
Ni 0.9234924367206188 7.891356527752424 6.841022015652939 -0.16829361430449727 -0.5965740949544306 0.24597975343306672
Ni 5.571962488822805 4.3006033790433555 7.135171526055278 1.3944413990678308 2.4909143103401292 -0.10889907439626405
Ni 0.8292788883003624 8.405258564949273 11.57835269808781 0.9669312209250185 -1.3258016864122457 -0.27760946452320573
Ni 4.967637564940403 0.35656767441665416 10.485898404166296 -0.23771108566637125 0.2594554193219983 -0.1337007068209762
Ni 8.25863277594297 7.691210683199571 4.334157214379189 0.20323207805289514 -1.7659094987144104 -0.19695858633935756
Ni 7.4885006211516485 6.351831369832059 6.778116559061269 -0.07025153722739515 0.3475578686878853 0.43742538037399503
Ni 2.477499492024168 5.801720026512667 2.485802629030444 -0.007657002324625523 -0.44221534556347064 0.17031527272021638
Ni 2.714365661132745 5.384747235695264 11.360024635175794 0.1925450306526942 0.2513363897592897 -0.2727076563462142
Ni 1.325116423884262 3.6123984294859515 3.6699318047988054 -0.06092768872330798 0.5863513887851579 -0.1673145382206796
Ni 1.600509732723024 1.2976035564549613 2.889456089400149 0.019089412531283254 0.36199692693135077 -0.8389684450290842
Ni 1.3439876045953048 3.8353940982653283 8.235305697001172 0.6758643453453264 -0.35902370323563976 0.308759664873765
Ni 3.949661470056275 2.98336211422758 6.943902801713112 -1.8717119364632215 -2.0880381286959135 -0.15465031248944977
Ni 4.369773374106075 7.161667831815715 5.818832756293817 0.3625062624676015 -0.5979108114879831 -0.10348330269733146
Ni 8.465695620002096 7.745415138433417 -0.08615132010390895 -0.18274347118124012 -1.2814000203684188 1.066703650429666
P 0.3691697539920652 5.949723740222727 7.788993147855846 0.22924238607372777 -0.702766311942493 0.13575527535715973
P 8.884210591448205 1.8022342592212406 7.912655046021077 1.1374028167174413 1.7097614907679326 0.8172781045398441
P 2.001996839949208 3.5276423722112096 10.48799540480817 0.2638658896848681 -1.1880134397854571 -1.1637064876089764
P 4.4446740758837535 6.421530633986287 3.5777358666566976 -0.2503485719247237 -1.0251376540624215 0.33244003920984033
P 7.237143429330723 4.219196317571783 10.358550785551747 0.14216657820014228 1.0959054688046028 -0.24246248430842754
P 6.573750249770091 7.918787267219249 9.990957888439212 -0.06708316680174253 -0.98784843069366 -0.037457630625825813
P 2.633150231573615 8.479337987102197 5.510286214069518 -1.1865026595678856 1.1519256929239645 2.5359762356757747
P 7.084257664517952 4.244683361926688 1.1564967665270134 0.33180343406710594 -0.15904535623335192 1.1027399752279332
Ni 2.8900373728678925 1.8370656406400268 0.25121666175180035 0.8327481751509852 0.5147731623265392 1.5486142577002298
Ni 1.918582206061567 1.4976216463995198 7.032905787180756 -1.0676007083226389 -0.6530303781699462 0.9664835918646387
Ni 7.284111498537559 0.9114260139671314 9.30174276494336 -0.05456035174438345 -0.704859961246728 -1.3276891332429457
Ni 3.1851048913841247 1.6720158120517143 9.27726133186232 -0.704518004526277 0.612994445293983 -0.270399834148644
Ni 6.060614740223013 2.484407366201276 2.162471228494718 1.2680408254526936 -0.7231502749154836 0.4162996541389734
Ni 4.333335934754434 6.98181671932348 10.061770442751442 0.4937713632638916 0.4910714478342253 0.5384892749965565
Ni 7.46083262312656 6.323250838890577 11.411070813985996 0.6518900939179161 0.005948504273951046 -1.8326468521409598
Ni 8.126899524132229 4.046900977627296 7.714427345658485 -0.46431140613156163 -0.2880805392578587 0.5153429187870803
Ni 3.559070005851844 8.945395923492471 12.578077222111126 -0.5216572910408822 -0.36363703363793504 -1.086969599767554
Ni 0.2951788475320323 4.8696315297196096 10.545786114403448 0.15682032355757508 1.8816356233348366 -0.034167904130960505
Ni 0.021969229962202838 2.4762584472578713 5.674522975829324 -0.6909685479766164 0.7340790060128455 0.7929426131182731
Ni 3.9252512145427163 2.837694484783491 11.30625454561015 0.011158073499348525 -0.03438104858303111 0.1423097886462259
Ni 1.3060353606024486 3.300138790824843 12.789460909529382 -0.41091267879544713 0.4762968606282119 -1.2279902372887108
Ni 3.055488715939419 8.458395356670938 7.9390327225023825 0.9996616212785043 0.4777335930747385 -0.6085469510455906
Ni 6.041907815436921 8.132995244013745 3.435843385887734 -1.2501868279904083 0.06837668880218546 -0.4218252119428929
Ni 3.444966889985848 8.614201226816173 3.598237743689338 0.680774381052434 -1.02757377430774 -1.1140201761274426
Ni 3.9562317070543167 4.2808835427200655 9.119716173978437 -1.4119249005645749 0.4752028562330849 0.027287889181675587
Ni 5.174937667557791 4.804358050209896 11.121316062109015 1.5736935692663607 0.7749274074877751 0.3292693547913426
Ni 8.138096303016392 0.4470151994909494 2.392885789884384 -0.4350867049384894 -1.6277224739873062 -0.2966284288278698
Ni 4.8817317161910045 0.6267321696444744 1.2047880084626217 -0.5577221550842394 -1.054210660168978 1.0870644734742052
Ni 6.493520355760667 5.988606767790306 0.03616185441088989 -0.6615502427154993 -0.3670604574971872 1.173908624952959
Ni 7.717628511129197 -0.01997899567154596 11.384519756250576 0.836900506756462 -0.10022134411660805 -0.05985888113916143
Ni 0.03353649721042229 5.279906328930675 5.619163253923321 0.6587359131951559 -1.195444956362838 -1.0363078117466282
Ni 7.437572159087658 6.288738843992528 2.3827219982615797 -0.6146574348187026 -0.006814194708356006 -1.002294430915661
P 8.808771495249854 1.8880671053373277 3.618938552897752 -0.10214581483283054 1.0923100381438606 0.5611810601671174
P 1.8091603840566763 3.7741540142460788 1.4022035545296223 0.6866210696411982 -0.2632285132111854 2.1667709639214423
P 4.92185578852488 1.058729814930316 8.27678853084756 0.4700436806296485 -0.16556284563689552 -1.4299352210990663
P 8.695316277754499 1.7544266597313214 12.38851767192137 0.6648106586343261 0.7584106407796745 -0.348750860554722
P 6.5070258429233085 7.973064725086407 1.1848263509164871 1.0382780480991216 0.17080969585813163 0.22653809976868727
P 2.050552716430571 3.4672326931458795 5.814038308351079 0.43708188099164724 -0.08325951945128887 0.21919117248531284
P 7.192867332227252 3.960748744990471 5.722537720291265 0.447488678147268 0.0642140727840636 -0.09700360851025874
P 2.678786002722515 8.536791059518409 10.146860487073583 1.4283784181349077 -0.4316234289802373 1.8162588977012397
