# total energy = -340862.820595646 ev
CRYSTAL
PRIMVEC
9.26157332453798 0.00000000000000 0.00000000000000
0.00000000000000 9.26157332453798 0.00000000000000
0.00000000000000 0.00000000000000 13.55524873464016
PRIMCOORD
 96 1
Ni 3.0821033906704742 3.1590948490538207 3.5428536933926877 0.13495463383273532 0.19793766242317523 0.5979231527831573
Ni -0.05955654675016372 2.6627208310031207 11.721101641833982 0.7639590814017295 -1.4415252399295109 0.35562933284211007
Ni 4.165012842309211 2.376399294142642 1.4642649177205986 -2.2146315350481474 -0.8498557813655493 0.6615903519248155
Ni 7.364506673856494 3.6934320558346223 6.7360098303686105 -1.7101728672737386 -2.3644134637017022 0.380836428235357
Ni 5.6336297732975025 2.353967763743933 3.340352172868886 0.6188331634629471 -1.4795117464756133 -0.3993190604205768
Ni 3.674714416307046 1.643290202383687 7.26530133204569 -0.28384978900596275 1.2148251606616627 -0.4771980322862427
Ni 2.0603388455933707 5.294406130063189 7.25035037435674 -1.8726910125470395 -1.7477549392925706 -0.47838408217454387
Ni 1.2264916216516104 5.147230469631364 13.358155100794676 -3.281394063740207 -1.671141978623522 -1.5119834938510734
Ni 6.241800241985202 8.626840583965166 -0.02337343239769663 1.062918472355621 0.2862018341779071 1.4218046215721318
Ni 2.5351704442768543 3.6559226841935115 11.334302222998874 -0.4741631021146608 0.7263754667210006 -0.2880900523395555
Ni 8.395606884764273 5.15297264504309 4.2353646788334185 -1.1140286607678749 0.29331119152917867 -0.5013728297602333
Ni 1.368221477015541 7.579680805051044 10.855450175369858 -0.1913713220595672 -0.3587185132903951 0.31671902893015774
Ni 3.638955482009187 8.64463206616827 7.146435522550997 4.15119594921038 0.7447182308942464 -2.061939888946965
Ni 5.553239317533344 2.7381933913743337 5.830830895453351 -1.9257236147929868 -0.3770687336628087 0.2894535083459854
Ni 7.995960737681417 6.574679707546881 10.104244895648046 -0.7566340084952259 1.7856532570002408 -1.062418135680435
Ni 7.595582926312226 3.4130194027042737 13.557281704028101 0.30042234865266326 2.4903653798151946 -2.4369049460032093
Ni 4.277939204882065 2.121242951250641 12.729232224937535 -0.3583233347345055 -0.29553570998432327 -0.11703892989457908
Ni 6.72568965930202 9.139820602843646 8.46544285165875 -0.6193944352830558 0.846944007035393 1.5685086826313117
Ni 6.33041497479067 5.738952384236443 5.603509284791028 -0.3526774493026378 -0.08668731418591522 0.44261386655347
Ni 1.7887524717652392 1.0997192070779007 12.326709433204867 0.5190833596661188 -0.08719767816343046 -0.4935469059579114
Ni 7.451797001687968 7.27704037613337 7.436612652353252 0.2951706133354207 -1.499823718560088 -0.59451335577066
Ni 0.5032979702084515 6.785250836838807 8.636089191007342 -0.2105916037417599 1.002732032673712 -0.6284071803046274
Ni 3.531002584268746 4.363405002784329 5.601977420576351 0.7832544392962317 -0.7925332934949965 -1.3331380721726587
Ni 6.506199634975431 8.535373286600324 11.06571845121668 0.7848150989151322 -0.8744607243984229 -0.7007173998332642
P 2.253016615376499 2.6083368729101326 5.935450552983018 -0.25859872774865783 -0.26377384419169414 -1.2238985837178404
P 7.54789508567517 1.5044870041650875 12.846986645642863 0.801965899662806 -1.9666221527795613 -1.7288712150141903
P 7.255507218339399 3.614291912458501 9.788868877361562 -0.9809804999292332 -0.09677272344637528 -0.22380835954235007
P 1.6346028466801408 8.619857357738647 6.916158543866283 -2.863059638559392 0.13605378043418503 -2.287753708955118
P 2.564937140685381 5.9544969783607815 12.109093025145686 1.4119022748567556 1.6670482681701224 -1.909383997092699
P 8.780138144311751 7.410684878054662 3.733508735579169 -1.6272380781517202 -0.3374513763815027 -1.0893540408393303
P 7.800800866268704 1.437535091179016 2.7474994201706275 1.2749074706655397 0.9125855562946025 0.2717128965331127
P 1.7351094395318285 4.916663603704092 9.289764547518317 -1.7097020982849074 -0.777618324056377 0.41600680548890295
Ni 1.9174790782935847 0.9141126484671152 3.114060449151376 0.775161120765136 1.5711034399416814 -1.8052054681005554
Ni 6.040462901218261 6.176580243195892 0.9911744948071218 0.5734848172351349 1.2495877609538286 -0.5334784520455264
Ni 3.565696437643462 5.611068580873368 9.952927459661185 1.2408524379633599 0.9922545301811555 1.1683668691991234
Ni 0.5163790162592922 2.973215074032316 3.36640497840628 -0.8580863968054576 -1.2048611074704154 1.0812537803296993
Ni 6.3305816831090755 9.11596279016525 2.629230055992894 -0.1759657861377744 -1.3018495464720226 -0.6722216063864165
Ni 8.519304457020736 1.8311797387992956 9.44993326905516 0.25008426251974347 -0.07369964367699565 0.24404345564230231
Ni 3.850878800994841 -0.042593975352461386 0.9545440464669348 0.1659955622989399 1.0496405242997924 0.09154232828537137
Ni 5.477238847487182 2.6358807917399263 8.586369361200394 2.566059685324716 -1.0549259410684475 -1.1325969106883655
Ni 0.8021800527034182 5.764440233805908 2.4275278092401114 -1.8752050372181446 0.4615281869594696 1.4269224024146714
Ni 8.761763182994228 4.712760807148365 8.4789026960553 0.5273376292551112 -1.078634597539297 0.670709026396632
Ni 7.774257197349339 1.942124124697781 4.901306989107024 0.3110512891214191 -0.16404435210984006 -1.0375098024745293
Ni 3.6065029293596926 4.6771778427421555 0.1718660885449208 0.35504029310785956 -1.3208841945059702 -0.6049170676024873
Ni 6.067080662723583 5.6545053593910986 10.8739659126007 -0.5926626757151664 -1.4427958791118183 -0.12924807036626126
Ni 3.3083451018924626 3.1482217620645208 9.165218615152638 0.23127201490924684 0.834769319346072 0.6368931062884515
Ni 2.431968733610954 6.918654537855735 5.500137161177425 -1.65139564923453 1.171971041610614 -1.2770677115416522
Ni 7.603696064474599 8.652615542305218 5.4643106173948786 -1.44056364734719 0.7709010599372014 -0.6361032633973045
Ni 1.3318790636032647 4.908374495650069 4.620970280877282 1.5074832919878747 -0.17720582919246256 0.31940660306464996
Ni 9.44356315897744 7.380853350633423 5.740281419997061 -0.18067450446735336 -3.2905857575418036 2.082405870110801
Ni 5.599908385113482 4.07266569548612 1.6229832768873165 0.6762320130973902 0.12989084615658278 0.42964265110478267
Ni 6.432634958692631 6.690004817590119 3.5623326342409802 1.8436568300982181 0.3403253554951881 -1.9693017564942534
Ni 4.381900364554033 7.161215141134917 4.35831021134241 -0.0618885099746805 0.3234193237684688 0.7346914427858637
Ni 8.149202728588532 4.10361787326997 2.022822990850989 0.23143450862904014 -0.9770395130036141 2.3787455640536583
Ni 5.159122329677584 1.1901029003731107 10.615223488548343 -0.2850587217123994 -2.4891279078636677 0.7754634824969031
Ni 4.3969689442231905 7.256813100166905 2.086274955307881 0.5992722106118841 0.259568804971411 0.5108463164683072
P 4.651189868217474 0.34272544407814065 8.775058171387021 -0.44631959753983136 0.44390276056822264 0.01146172078269639
P 1.4494454743717242 9.247643838558663 0.8575364759871019 -0.9140603410679161 -0.01139770031398037 1.813608604562586
P 7.102033688101165 1.5582226521309455 6.898374470921774 0.37855148885592227 -1.6339872239500957 0.9338953735159723
P 1.5753195163406961 1.838996506617838 10.220060869073256 -0.6092336926999701 0.049319672170734415 0.08557016986233651
P 8.45925241610198 5.300166828621404 6.3798050925901055 1.665801797357531 3.7756518797222136 0.14516628425841452
P 5.689986446491616 4.185406826594081 4.182038392404976 -0.07315816935122885 2.1019745362713476 0.1813854144914489
P 8.812572173814756 8.535234363001653 10.0052914686295 -0.25582939253363685 1.1563832144746857 -0.459603459132931
P 2.972853872675772 5.686003969996387 3.293166309501693 -0.4100840122465647 -0.0044662633014697275 -0.009605127189931844
Ni 1.513359591333528 8.011436826573341 3.306084351863427 0.44545467843637476 -1.705347163750321 -0.5432064779665677
Ni 6.458965611427366 1.8301331810226424 1.0121158380707551 -1.373989301861066 -1.5048049738247633 1.4503842329820376
Ni 0.5383178309613819 0.16776691622680828 5.044531662392652 0.7555513169540085 2.328896758852331 -0.11521910307702092
Ni 0.4677279720047847 1.8589366738137176 0.7714714542959042 -1.2281149357920333 0.33546519918940937 0.7346690741883606
Ni 1.6981279775656664 3.876061018647231 1.6385723569728274 1.2118876752998935 -1.3271833972511209 0.8827828711108731
Ni 2.4023502223743436 8.117528148091594 13.022825949109766 1.233249171694805 -1.4721067122607938 -2.210172470835529
Ni 8.858065021592813 0.3294341603146448 7.654174417130291 1.1963432998073913 -0.6041639914865466 -1.0350788244355336
Ni 0.2720198154559845 3.404887741395411 6.2562353300444205 1.2614456887336791 -0.8907311794236724 -0.7920455552253004
Ni 4.626044696858063 6.810627547529336 12.366941707379926 -0.603571095097554 -2.2649184562281577 0.7114880080862069
Ni 5.4826476062620975 0.3724550941936877 4.792783578454707 0.9189420946402497 -0.16753745286476307 2.4855162792530097
Ni 5.1088690332517395 3.260175659446681 10.741165140002002 0.811841249794989 4.010265300299867 1.6562907725433025
Ni 8.54657052865319 4.682188353867549 11.052963412544054 0.49612906486279074 0.15234429006409247 1.1134393639233082
Ni 3.626859867351584 8.440923762650682 10.42085455549073 0.33489235740507484 -0.35905532780452354 0.01660418421558431
Ni 1.4452870279848453 2.5325123727556202 8.157738194490864 -1.9114591344541727 -0.47178714568331653 -0.781703549869344
Ni 6.29565629040324 5.232705529106874 7.919898215094515 -0.4061833916405779 0.029113115315872445 2.097036732650098
Ni 1.8480450636779282 -0.04682558816797337 8.880354849920879 -0.9341879650557267 2.9747750993585282 2.141397775263977
Ni 8.2287874274804 8.975473985616112 1.2975028821908423 1.2186733307631592 0.48014014563370216 0.33030011004870213
Ni 4.021041686220058 6.238077089540825 6.72019106326663 4.460654439923382 0.7305645651016838 1.846089607909427
Ni 0.38847020664845533 7.147665459477894 0.5637899358563317 -0.9804040586004729 1.1270219877037493 -0.3905888796364306
Ni 2.550174192933299 6.38309480340663 1.1411582642467455 0.8395209750984445 1.426579417252956 0.9887344328430391
Ni 3.094726915003026 9.418371679751806 5.015821711491348 -0.9406733156697542 0.6209589515566983 -0.41315622341398517
Ni 7.37700053616362 6.719891914450826 12.564916170901709 0.8947644689527815 0.30284355649964617 -0.3267080218220696
Ni 8.826408964242365 9.135124985208574 12.414534153812562 0.2006558326852867 -0.7083054965931672 -0.6730114492775636
Ni 2.6794657554295727 7.277679424687256 8.364036033887675 0.19732728253268594 -3.6673184480214323 2.7910314690475477
P 4.350485108107947 0.42749106704310424 3.11071239042341 -3.0157911367595736 0.5532098690361827 -1.5753267339944095
P 8.076703133228873 5.470403806432579 0.551270141144121 1.3942969030701664 1.8880304711175873 -0.4860377420650597
P 4.643512023997602 8.818870043621164 12.317776645810337 -1.8663352455323405 3.885973802607933 -0.7445765631100596
P 5.522666864252527 4.5928049104827675 12.908446445694816 0.8812720908933016 -0.3240536149183581 -0.6947732664346873
P 2.0108635213200836 3.0589124112656987 -0.27898637085066197 0.5784894695385779 -1.2207199288795427 0.7031748602348212
P 5.569604517456761 7.885757277642508 6.2072869892887566 0.24423114617307617 -0.14765048413284895 -0.28855233668795466
P 5.57066033680666 6.822361960830395 9.12746751644984 0.00794882253343147 1.1461052295874457 0.8976014241809445
P 4.4496395112659055 4.2053562553632045 7.55016509727745 -0.48960360503944705 -0.5495761289383374 -0.40630243371694547
