# total energy = -340896.07061634754 ev
CRYSTAL
PRIMVEC
9.01271646831927 0.00000000000000 0.00000000000000
0.00000000000000 9.01271646831927 0.00000000000000
0.00000000000000 0.00000000000000 13.19102157073295
PRIMCOORD
 96 1
Ni 6.362671451774286 1.8795749983046948 11.2403860942889 0.34558249012906933 0.8733235254701862 0.6892965595908322
Ni 4.602019248343795 0.18128899085529532 6.153848611859447 0.2093808712631104 -0.11503424075972446 -0.3927933434869171
Ni 2.9852730900634663 1.5782167950300656 4.9628848139099295 -0.5604675790398606 -0.7404653691551635 -0.5662839286113215
Ni 3.322519930639276 4.2544528473185 4.787865969958309 -0.36795263029415337 0.470848435919131 -0.011227236174387116
Ni 4.883017724932496 4.640936158405697 2.602258773576274 0.8953424529434386 -0.1573787671642064 0.1237703350811417
Ni 6.981340366616636 6.0975714071793785 2.5230730459700035 1.176405937453516 -0.2566462320079773 0.704780257048728
Ni 5.0405870483721085 4.646199584870763 11.352390727939499 -0.30680562647118775 -0.08535085476267881 0.5725921302175365
Ni 5.535556428568878 7.824290732799989 12.376014516437797 -0.5003474738195125 0.6351401281530867 0.6458161198096942
Ni 1.9379233252478998 6.326954056087552 0.25864603827361843 0.5845575301095288 0.30587385868553774 1.2851242632975417
Ni 2.666853814360125 1.5204993582453443 0.32656046256274845 0.895680810119464 -0.5451180931669838 1.0172536233286544
Ni 0.6711742976463393 -0.06059159209244263 4.679264538076901 0.6184629246077219 -0.20593790701983242 0.03233727868012495
Ni 8.436488517159605 2.4085042944609936 1.5237610603647058 1.2290626444172834 -0.3370852512913356 -0.14530255272596268
Ni 6.812730465403556 0.7583182539660567 4.751696135900775 -0.8819542045619908 0.10089420181391658 0.3352073175423324
Ni 0.7450443250315568 7.399755732439666 2.4570521934279794 0.34843692885872896 -0.412609863992212 -0.10714995291564128
Ni 7.670777131807773 3.797985792222345 3.660020028550134 0.13431648602810417 -0.23705262614676595 0.5099469445824895
Ni 7.552169782012811 3.9691823430852087 12.462151752318904 1.008712675737179 -0.8534501835850271 0.2551390513348315
Ni 8.072735277210924 8.927194882428333 6.646085336398325 -0.8817721704581718 0.047730473306743605 0.759629343678124
Ni 6.713365265442352 0.8450881825489586 0.44803836257881113 0.6454654213384948 -0.5014268229266203 -0.81225159785953
Ni 1.7609766612262834 6.567927058478729 9.140045505369264 0.6837553180576288 -0.9195817851067776 0.17659390664007651
Ni 0.021544898912223012 4.842072953646895 1.4465410062379394 0.07832377271256834 -0.05096337842174449 -0.24209301678415082
Ni 6.189338887089127 2.1569413501238386 6.985991829627972 0.964936559092493 -0.8253912205652817 -0.5055115345189553
Ni 3.4039137738002405 4.014444205598148 0.5968914878431425 0.33638873944494324 1.337274720048852 -0.8559582947188613
Ni 5.903924179391041 5.63186631761971 4.749242874455928 0.35142506495277537 0.0719518077479535 0.35191460299468424
Ni 5.379573343242023 2.887593268097069 9.082387552513772 0.48145912155544185 -0.09163128845475188 0.9110007283059859
P 0.3637550424919905 5.4257635155595905 12.27249084906053 -0.4518870643252798 0.09883397685077817 0.40314871857931217
P 4.059228394133951 6.035536879167317 12.763131421498445 -0.4743600486168153 -0.16620690697879764 -1.4624396214846749
P 2.5336729019041866 8.26218257908707 1.3355250675928483 -0.804489437415608 0.9178897421163353 0.2620046681064133
P 6.36529415229027 7.699798079098029 5.937846241941061 -0.6193538118531076 0.27829363507442395 -0.858025204550219
P 4.58620193079895 1.1183249076449981 12.491106005506694 0.8925594908816629 -1.1680858476235947 1.121472775750746
P 3.8273492227414923 6.1728185776534 8.234521650724174 0.5168418719301099 -0.22499415232033512 0.8783626305559904
P 4.789096205767352 1.0229433283987919 3.785994372852877 0.20770991131859068 -0.4900720600354334 0.7900730048799619
P 0.042216465590773404 5.515701414009736 3.578183661006576 1.0060803803206544 0.3221227164442323 -0.2546016907741228
Ni 1.5360012307109472 1.0218978532790186 2.647873033306311 -0.08283862986378636 -0.027340339686165817 -0.8685479584584139
Ni 1.7966580060468191 6.40936633621864 4.7398110665865945 0.27567650916655106 0.2593052668973792 -0.18489702718913317
Ni 5.827207936119405 5.624899487726738 9.032565255426649 0.2819679986022176 -0.21284029056662054 1.1133581170634117
Ni 8.62049213823969 2.5858835688769988 10.150055585519139 -0.2988192658316015 -1.5089632189675108 0.6783837693330703
Ni 2.454550263313764 5.109218884898601 6.950415032319413 -1.5934324424561848 -0.6435201246866659 0.29690585085897253
Ni 0.5272331029016322 -0.08832732600270203 8.761278882191979 0.27524353539419044 0.0886791478049634 1.5315467606949815
Ni 1.5118651757906656 1.15377192183524 11.333501876594493 -0.7196034381044897 0.2149030866329202 -0.6022809155312209
Ni 4.206568284289577 6.731138342478496 1.604542940071941 0.02936148388125266 1.1024466123572305 0.0965248691016273
Ni 5.612660218652152 7.86913801035164 8.12584090693713 -0.4231382743273616 -0.11915391935505286 -0.2607535693081316
Ni 5.256847181983818 2.9891034945971184 4.862579587612584 0.7390977993836755 -0.37596778728914604 -0.3079034875210568
Ni 0.7544076362551119 7.3717171712533345 6.888918563485374 -0.20892347201071762 -0.7444549499305309 -0.19264376101408756
Ni 4.98550132481992 4.632112708903474 6.9122011141483926 0.5215431340605211 -1.371783809569315 0.14769290733501017
Ni 8.190288139169562 7.089538028796614 9.305210746317023 -0.2247691807937226 0.019369919886179546 -0.8357280837149156
Ni 4.448577749083976 0.4535676641820945 10.484435480960466 -0.31967836866879784 -0.9168931825310209 -1.3654972052296548
Ni 8.181248384470145 7.176492718068787 4.630391280042469 -0.9296512535276376 -0.0556453572784461 0.38948921881434856
Ni 7.136250938674067 6.025253369584031 7.050231769379761 0.8318248920057674 0.01687517848878384 -0.5449301455258938
Ni 2.376608290591361 5.108885414386259 2.5778424231712953 -0.9070165468472573 0.29206009273089706 0.08090670294839615
Ni 2.4514318633875436 5.19590319267428 11.330401502101372 -0.2841477798623558 0.27482675957174607 0.30642150365889165
Ni 1.1680120139838752 3.120427787443804 3.820066947769279 -0.39890896946635174 0.7780073319646794 0.6850231290264589
Ni 3.8015818661257024 2.6283605019760605 2.757899375674237 -1.2619745646539557 -0.37804343887125214 -0.49074157529863227
Ni 1.0057560779383823 3.4353591418423854 8.187970969744617 -0.14326752457380487 0.06435316946508916 -0.4502528711559665
Ni 3.6055733066013245 2.528175144808827 7.176390874371774 1.051163388702222 0.27480516230519125 -0.4849643064952229
Ni 4.0378502304779 6.620336005215635 6.12034383808568 0.4302319479493493 1.9380834219099203 -1.1665074473928814
Ni 0.8233675356640151 7.454895532291154 11.410537170031988 0.0770032541289319 -0.6214634019969426 -0.5209134708963222
P 0.23503181964156844 5.575563877333303 7.938554854489618 -0.6819606880510514 -0.46185523128158523 0.14582500088833597
P 8.445357030244578 1.6817458700372634 8.05482070052495 -0.5255304008430434 0.0037944340454257233 0.6639033163287082
P 1.7883392686713822 3.392206255002091 10.385423579488013 -0.49915113951856616 -1.4804437713715795 -0.879285399480576
P 3.9117262750804302 6.25635744735321 3.800425534592367 0.11616372637847737 -0.7979799184318644 0.32541784225573633
P 6.795921749038237 4.096459926201048 10.370557103539168 1.2251077735345934 -0.6224933859233538 -0.5137449781723411
P 6.339283452327636 7.67636501606863 10.325114085423579 -0.9080429312292426 0.7349218136291149 -0.9999066474097748
P 2.3908573954565457 8.329255215650452 5.869305433851721 0.9594197430393219 0.6584538631783627 -0.789251537419931
P 6.781997101968844 3.9716338019867456 1.5461720813373616 0.41534706041771696 0.6560197998155733 -0.11556028846652355
Ni 5.38795516963331 2.8839160797447634 0.18865238027645667 0.07708861475388659 0.6850976910181362 0.11173140163873661
Ni 1.2651420602407366 1.0777226195882885 6.882243745608616 1.9460852091684742 -0.08020941977105542 -0.14898360112197567
Ni 6.953968746454987 0.5775501981273381 9.299353381831327 0.11090582041364772 0.17392870110308756 -0.3469868266757637
Ni 2.4976851247209586 1.6964906743126855 9.01591786668757 0.29773734562133236 -0.9150250189740305 1.563842387503894
Ni 6.250571283328259 2.098881430110226 2.483816356494174 -0.20249288589402545 -0.3755636098721919 0.9062814684534457
Ni 4.1159724575312975 6.844518316674592 10.435285532527956 -0.0038450847777030555 0.5084212519665825 -0.29190299832774247
Ni 8.409810876172289 7.1388736391900505 0.22570275674090245 -0.6619582767871954 -0.6486235073515023 1.2551688545860318
Ni 7.519507697236448 3.8638867756342563 8.19663669670722 0.43796068405217475 -0.12172733650918391 -0.07548758881535386
Ni 2.9383709131384683 8.400978413953515 12.231229731424033 1.0752348278291288 -0.3610242786054363 0.9011904270837835
Ni 0.05463959408297512 4.864343376241374 10.081066845417276 0.011742742358224936 0.789761130066498 0.4960529602092167
Ni 8.564144634370534 2.267653560221202 5.943003318350839 -0.5425063665757496 1.561499341193014 -1.1174741961143142
Ni 3.5626006740920255 2.704211524458917 11.428160635973407 0.2571162296658604 0.44702356558539147 -0.19382698268891135
Ni 1.262014647597967 3.2672359273229925 12.700012663685447 -1.3114796133626188 0.8076225837279509 -0.26902146574387864
Ni 2.9856966877413056 8.374336823832397 7.986965760165047 1.0020900282143386 0.2877720068785044 0.17793036606331294
Ni 5.629712278364315 7.8875239521131695 3.62271639475064 -0.08682666797725692 -0.1611685732239418 0.4054079469271341
Ni 3.1446269313799338 8.315258466848661 3.4964257040970006 -0.21883121804273278 0.22466093735063242 0.875734191794208
Ni 3.5386178353530897 4.154871342160101 9.255058583804178 -0.9381091544870037 1.181475124446307 -0.26553325008496204
Ni 7.392410368451604 6.240819524021409 11.415167002523605 -0.09890468218771355 -1.4252020772894551 0.28112904764069
Ni 0.6598930803409934 9.0787797620789 0.2890125841447554 0.2692505510355492 0.04663852579414548 0.6078010740185016
Ni 4.676311070863542 0.25189461230618637 1.7123133994874602 -0.6333352137338641 -0.0485128599987229 -1.1281679283827344
Ni 6.1047725677026445 5.695712401658274 0.36444812039466773 -0.1634537697136927 -0.270183861483096 -0.6368717661322127
Ni 7.906712025647628 8.77276198434804 11.623242688236468 -0.3820019092983679 0.8249929566855985 -0.481011749605378
Ni 0.07779957180091675 4.849183987004663 5.805328665423186 0.1651113599217737 -0.5196374323973761 -0.14820224287126088
Ni 7.830698774266875 8.851695355890916 2.594542085666362 0.7007587945941609 0.24670583296581378 0.17518468499737572
P 8.570579713987069 1.5275923661700128 3.770706101769503 0.012933163121900307 1.1298535436152735 -1.1110886043029444
P 1.8368907727249884 3.1207432325230458 1.7001119838223826 -0.7586968045615256 -0.4840939880751275 0.23089431985485395
P 4.875068508935599 0.9433790666974304 8.341711691193888 -0.8386951367630394 0.02865777294600871 -0.8128990016355419
P 8.604575680812799 1.7270437834164025 12.521642891720623 -0.9748923847536243 0.0024772578958989593 -0.7815017182711831
P 6.523683632935912 7.8191174335004225 1.2841093222197257 -1.1485431496049767 -0.40975336838002335 -0.481161644919681
P 1.8170898344651456 3.082385110887228 6.104039833847148 -0.2613917171127627 0.7241478629420626 -0.8858522540648163
P 7.046808739634159 3.9535182417217096 5.881204022240727 -1.565710551060884 0.5287203685352507 0.1831103676023556
P 2.316844967149842 8.40080717233907 10.103306624775486 -0.15213628781834443 1.507509774350436 0.5055999804677034
