# total energy = -340895.9362725209 ev
CRYSTAL
PRIMVEC
9.07262082184285 0.00000000000000 0.00000000000000

0.00000000000000 9.07262082184285 0.00000000000000

0.00000000000000 0.00000000000000 13.27869764734044

PRIMCOORD
 96 1
Ni 6.331119892673332 1.7803839266444788 11.309864919608065 -0.4153681434636394 0.5746569831663652 1.7682229773389353
Ni 4.565569701359417 0.2815542764571858 6.095240819364884 -0.06942184223724818 -0.158695686203417 -0.6008801785289523
Ni 2.7795244592126314 1.7087465112499058 4.825120150111883 0.5921908782850704 -1.128828959005501 -0.20866584747395675
Ni 3.423154338002118 4.219394774586959 4.834614647985544 0.17275396406869603 0.5681811456340344 -0.218243720970379
Ni 5.096889604823495 4.619098165243406 2.6632688010155032 -0.581720831991682 -0.49528240059177925 -0.18405807622760562
Ni 7.370170885008546 6.146492055378555 2.366011632136215 0.3444571182753745 -0.8443191678180363 1.190278838780866
Ni 4.985858869058705 4.757147166338114 11.327923971703164 0.08775483621848112 -0.21747984622116093 0.43134395006660553
Ni 5.836144908924381 7.967693703889825 12.27740460598057 -1.2209479857299488 0.7314636798771854 0.016107189974507743
Ni 2.1402040753968548 6.353120998591751 0.2946279233142754 -1.3242623669495839 0.6843309880554408 0.9870575593612485
Ni 2.656672098288377 1.5812126778910518 0.43907221494997145 0.3240628708897387 -0.35479346720437605 -0.2493242444252674
Ni 0.5436477808751924 9.127328901899972 4.696835103734455 0.5575763735349946 0.5053377279452522 0.7186135633873947
Ni 8.459783594161639 2.4834304003451946 1.2444569462379769 -0.1045330841180845 -0.9330142564625996 0.6378950651904046
Ni 7.083657513914245 0.5244219897198429 4.868089897679232 -0.9690467246061246 0.7396999517440487 -0.6822291112210895
Ni 0.5628318379739543 7.293235058951558 2.0124933259285536 0.5475626980527344 0.19881363727022533 0.623025861388056
Ni 7.5783512464122795 3.813921196976238 4.103834986420323 0.8011660294693299 0.002778076965769409 -1.4011846313289353
Ni 7.370987420898302 4.066149133321796 12.528610965201834 0.6100975833621621 -0.7449136347345042 0.5395398277482579
Ni 7.937681473630802 8.77736161955065 6.962060803736015 0.03289289407327883 0.6217207694233873 1.0399893743632733
Ni 6.758295179709561 0.733004268233755 0.47894003339834673 -0.12414957279743134 0.04983723523710127 -0.5329899424448821
Ni 1.8663470105937667 6.690422902028863 9.255013340767382 0.38626325567788317 -1.165017493110916 -0.27614187883874375
Ni 0.12710379112358267 4.808017352269899 1.275563334589273 -0.12116760735097198 0.7130021307378882 0.6236138726810422
Ni 6.401986135283136 2.0359505875170374 7.167123812565079 0.6312166247289644 -0.4306682641558196 -0.11333217046695321
Ni 3.4526585014852933 4.2257728271480515 0.4507205530483873 -0.30048714045232766 0.36942278708177667 -0.1203610522892766
Ni 6.085433316066818 5.596954328951924 4.701217179676144 -0.22298149276568052 0.6720953652211974 0.7099237489228806
Ni 5.2101249874906275 2.8982034144781332 9.19456881789716 0.264391423171035 0.14898977176956277 0.6869838522972556
P 0.05316828083039711 5.632600656850262 12.503925270730315 0.297368649428004 -0.008265839553218022 0.357708583968642
P 4.07432356484035 6.272646850345822 12.68478161947652 0.1588800343000812 -0.10008224743558247 -0.7519849397589888
P 2.4617105456776907 8.44747204746832 1.4981827723101866 -0.6174198280551884 0.31514525668513466 0.016929171655170848
P 6.387288489267532 7.677161161693724 5.876049925118846 0.26568314539926496 -0.37750839230338856 -0.1813620174526812
P 4.604382373985808 0.9061951594993527 12.765422703948802 1.3453042752215474 0.9098804986586136 -0.8064074803739273
P 4.060460599956497 6.140776304150265 8.180328722203225 -0.8415580601331314 0.7939509997781294 1.0494502626658573
P 4.7889557755546 1.044848397152481 3.9567732436269103 0.3889364316346721 0.24262934890359508 -0.2669339870872306
P 0.3693164611502357 5.692588826884319 3.5276319196205685 -1.5426539263517367 -1.2046433350326544 -0.5643075216112411
Ni 1.460020606609301 0.9345434710674736 2.6832793738871183 -0.32325965826215297 0.7181409946263503 -0.8889409202924692
Ni 1.8220907653690042 6.54135066642245 4.7343866820422225 1.513108351484136 0.3313262373203713 0.6527226171215403
Ni 6.051919054102842 5.708003209958709 9.227858078860404 -0.14864241573247303 -0.3808279435949248 -0.4441639846494092
Ni 8.478037707608179 2.3224458133693453 10.377089702372963 1.2273392339682732 0.3666297977176718 -0.24887018760698432
Ni 2.4162748597232806 5.247413459789473 6.95432004350113 -0.4001875790684592 -0.2975511977524553 0.37662598969843525
Ni 0.6118094751657048 0.11911534833547202 9.235015469565163 0.3646688173365591 -0.40594762148068797 -0.18737531352629666
Ni 1.5781279867519742 1.188422624434537 11.512246061670332 -0.4017999178609016 -0.037615239249612645 -0.7071364159857305
Ni 4.067528171713383 7.020702596814075 1.754740163395649 0.829484931018681 -0.6127069959605511 -0.6273003203936939
Ni 5.466626128325906 7.862868640887178 7.980497893903295 1.0009649134709602 0.5009501404005179 0.3463484217608164
Ni 5.404006898202636 2.767512309012224 5.201837148209606 -0.6738699406231169 0.10775159105538218 -1.1512299524085203
Ni 0.6763729679686937 7.305954873589754 6.902984432112184 1.0050681370060561 0.5837579170263688 -0.21973547502455704
Ni 5.0403943938733935 4.556551516088113 7.158825086138862 0.7297706084454787 -0.44558606180791643 -0.5431684256397807
Ni 8.283429987216387 7.125890564656612 9.210144693625303 0.4901653910801881 0.13845570500745832 -0.006611334668930549
Ni 4.446908891335909 0.3318420001209445 10.493583970502318 0.9747432607702696 0.677783159634594 0.0005479020836700242
Ni 8.253054852117472 7.306816772584496 4.570368210604881 -0.6853697137326002 -0.9042022173269136 0.19540949668468283
Ni 7.608744526753188 6.051873690997856 7.14913099060326 -1.412558677493832 0.059489927835516904 -0.6517592247670065
Ni 2.4039088773039796 5.095619437883876 2.5714194005631765 -0.3080868071764565 0.4041933577937426 0.18406861775056685
Ni 2.430836416423925 5.149383789913795 11.580896770232599 -0.34965280354370104 -0.8865747340531377 -1.3045309499589277
Ni 1.1808923490067895 3.2444599948395663 3.826535769210865 -0.90223532340853 0.7461382511702247 -0.6762672372106998
Ni 3.5578827598118203 2.4385027811666324 2.542060399015958 0.38103054652403406 1.0786297124432909 0.6140077170498458
Ni 1.37630753266734 3.2770579220828164 8.42089834056727 -1.7474042408213712 0.722831201013168 -1.0031614069016466
Ni 3.559062200541468 2.7541392656622237 7.080241672108767 0.13551539143221178 -0.11300409770357314 0.030308164065238126
Ni 4.306736896927834 6.765798237274318 6.088893613715182 -0.5716325945177445 0.48406750571256635 -1.1126541490178514
Ni 0.8771192237272495 7.294396354439211 11.410995611340615 -0.20129603737244686 0.09203546587170601 0.3116758100792955
P 0.4851293754426955 5.506064811801109 8.089329426338344 -0.8300875975996864 -0.823650326614775 0.34262726415548733
P 8.699291715869 1.619816680234505 8.040384450582183 -0.9714841304030237 0.3096862904530925 0.15936982945230618
P 1.7526670694977688 3.1998045542909233 10.538824595105286 0.41058409181143485 0.33058884493371454 1.056959940779341
P 3.984132639506327 6.250536872975435 3.804904826229135 -0.20063680652189317 -1.1421830117149039 0.7558048277257112
P 6.836963876377031 3.8914013802930634 10.410830779861872 -0.2847501893330451 0.2331242376266372 0.018422211260929564
P 6.386308646199825 7.794551804777613 10.03287990530852 -0.3676440979147991 0.4671036241647181 0.6488641626073987
P 2.3927586260983147 8.427276393128361 5.894135287814835 -0.22751203364618236 0.1825465246790856 0.18253495471485984
P 6.821104934873775 4.042469592518878 1.4812387453356546 0.43101587730322544 0.22156147248970226 0.2526538230191326
Ni 5.2194697871178315 2.782908546844619 0.4909948249174411 0.4107306446916281 -0.30178580465909316 -0.32915185537687186
Ni 1.6622856191228024 1.1543367873477326 6.98460808143847 -1.0546606032222028 -0.35521538523314306 0.4167639953699016
Ni 6.799666331457187 0.8008121303053732 9.286762977947387 0.024043928323081172 -0.8910669654965363 -1.4160409796154774
Ni 2.8117957720999787 1.617312636839254 9.327235940216278 -0.022268067369581004 -0.16177509645968915 -0.1250070357017202
Ni 6.324787203217226 2.1298159243549617 2.684447927471569 0.38779331916916443 -0.02317078168950848 0.16775188286841433
Ni 4.111376148993267 7.125817983688634 10.386145992652454 0.8158228601505564 -2.130052782564803 -0.09486470779038501
Ni 8.146415264915369 7.547468044537517 0.08109471552214419 -1.0539062415546818 -1.1771890954764435 -0.0474021434330474
Ni 7.669476651709022 3.763985491007174 8.390224716237544 0.7249641881957708 0.1061590497572817 -0.7243800335575268
Ni 3.080563096523589 8.443988161005363 12.508108656272166 0.3891045817814202 -0.6644879851875847 0.27834531424796577
Ni -0.0035982014875237606 4.929300149761623 10.375376791528675 0.4131739640257981 -0.7125619578766761 -0.3481397093332843
Ni 8.60514512778016 2.3473410853858994 5.90231516290599 0.17837928067527342 0.06612671642574418 0.07980447102315288
Ni 3.7967830159123643 2.63870830871375 11.481253081081503 -0.2546148034002454 0.04174006005126359 0.2488889566600617
Ni 0.8244345135960077 3.278418815232409 12.748067687243093 0.31997404553234565 0.37878777323644447 -1.409072004496812
Ni 3.1112194828734197 8.480124410437554 8.157555536237936 -0.03867144842826888 -0.09088386876576607 -0.5863444468066225
Ni 5.654511036558708 7.797872384062619 3.7068942088575505 0.06444290096541805 0.6695635999382791 -0.32477892312015677
Ni 3.1666713424088337 8.438853057520898 3.7921841043288396 0.24680302066531043 0.12884877804531358 -0.07874183408659342
Ni 3.39175399673051 4.383500343185874 9.285434746233383 -0.18534877001457112 0.38751409736584874 0.4220309001957958
Ni 7.152455198936666 6.212785697005725 11.369168106756828 0.7244468822397201 -0.34926148164255333 0.05988150684698074
Ni 0.767061980195468 -0.05814461344740867 0.13776684258169328 0.4138465646127905 0.16151104416502507 0.5912534540724655
Ni 4.642115404713521 0.36703651149361766 1.8217441912469077 -0.0864731412925801 -0.3648040573628427 -0.38725930104256534
Ni 5.975400568611729 5.850887918044972 0.37027543718964884 -0.28877010912571555 -0.3220370987089615 -0.13210430886813376
Ni 8.127925263322899 8.826217683621035 11.120232624571186 -0.5356577190850325 -0.2388212880114145 0.14878794017140182
Ni 0.19078814695193436 4.908551065540829 5.8060047547092966 -0.02762547502675242 -0.6305802766965463 -0.6259414923729543
Ni 7.913457575568047 8.969955218081044 2.497696189601327 0.3402986160223107 -0.06653295072522734 0.278313689679082
P 8.533181098029685 1.8037912888174774 3.4792576117251373 -0.44244391663450905 -0.6056637159605246 0.8017645822852771
P 1.7037384244594038 3.2194286335080537 1.5161619853405088 0.3885548799255373 -0.1436321070020752 0.2996173362528647
P 4.651360405509757 1.0819191265473929 8.1446352166757 0.4332133991751765 -0.29334667275280446 0.5390616025602587
P 8.478083070713165 1.3768155994431879 12.430653876294132 -0.2137535464095093 1.1251818491712169 0.7158624830048187
P 6.350734899269464 7.780189845738908 1.4072760171794771 -0.5671532185901522 0.8181579360416361 0.06821393797207607
P 1.6674207226072666 3.1656642814781346 5.985611803544175 0.549077334925048 0.8544063768507092 0.28525541110423774
P 6.902894613164311 4.130991155589401 6.12100161942458 0.9922157065234202 -0.35785256574567403 0.8403337008077271
P 2.438529999029624 8.455528534913912 10.358260384755194 -0.8837287799639103 1.7573582667102894 -0.2070249694364241
