# total energy = -340860.7049742251 ev
CRYSTAL
PRIMVEC
9.34917415469662 0.00000000000000 0.00000000000000

0.00000000000000 9.34917415469662 0.00000000000000

0.00000000000000 0.00000000000000 13.68346140440794

PRIMCOORD
 96 1
Ni 4.834177554341308 5.30766648667081 4.607618078656955 -1.235138675408034 -3.071896207283258 0.03132786357900411
Ni 4.737011585860698 8.83160400899873 10.212733220210366 -2.3457451978682373 2.1773428259000176 -1.0737957813897572
Ni 3.0622565971369733 2.1235527517318276 7.548932822155709 1.069218703542036 -0.1798404386018322 1.6986216721010294
Ni 1.1932351156721162 6.692765357289437 5.809313262151462 0.7838691900620952 -0.7417403792128452 -1.0865011447715676
Ni 2.424558767434871 7.988850739415435 0.056460598503921315 -1.4800519352497994 0.08081594300680275 -0.031704015971500236
Ni 6.200877249941188 5.077143896001474 0.8721975591178693 1.984724518807227 1.4091766483954764 -3.0115840406567616
Ni 6.085358852313321 7.463436493034041 0.11419081487753056 -1.1681547531883174 0.3617758120594801 1.9120440604233653
Ni 7.0643950356406595 6.113705548785293 6.969014759450996 -0.9603980477921912 0.21621820589991794 0.3033145825987938
Ni 8.25156253719328 8.357628919605725 13.56214409641025 -0.022876390377541248 -0.7855473490954664 0.07772779099978228
Ni 6.129496304174857 3.2060749453653226 10.413976066812774 2.066730368357073 -0.2741240770777666 -0.2746557812115205
Ni -0.01621146823298166 1.1399448221726955 9.767651753985772 -0.14441089414962868 -3.672898770322687 0.03038941092513476
Ni 8.967569050816637 8.506981979018574 5.129314158419977 -0.6582769712808664 -0.8796625803143366 -1.47318683269885
Ni 2.637916274092815 7.006514297560851 2.74447816274306 1.4686575773699289 0.01968256603059191 -0.02574625572616856
Ni 8.708035972300161 8.849647915394147 2.1568283328937814 1.2056563496782011 0.9445004027253282 0.6821483785818251
Ni 4.105848828992997 6.185927920238456 13.645681773516458 -0.33833352187613985 0.22147996851948956 0.33967846593980855
Ni 0.05750396635559418 4.629898095926862 11.859278010406868 -1.2763979391681373 1.8816081125310111 0.2875799454723563
Ni 3.951007804267137 1.105754891764383 5.40407797678556 -0.3188561298778186 0.30132249186942944 -0.4763271996455151
Ni 2.2120707339866548 4.188018721899385 11.394341702725308 1.7868938142755613 0.43526436816693426 0.3113698488031025
Ni 2.3573662517541103 4.947536292706303 7.230943096422656 -1.5784627085202299 -1.5264117534612613 0.3658767216017311
Ni 1.8010623334916491 2.429504480638589 5.739487084070914 -0.34185027678014673 0.7705238791034407 -0.6938780083139275
Ni 2.380253030435967 0.33786794012576565 1.7798079206422484 -0.8895767541042551 0.5956880928050515 1.8907766664041568
Ni 2.6881587367710402 6.635707346547863 11.563291566384498 -0.527949037586865 -0.6292787842763033 1.214157445170677
Ni 6.8198673818727045 9.104123090615328 6.1706121029032355 1.7977829503842393 0.22307765202391258 -0.20128318185664043
Ni 0.2199318460243986 9.155917516227046 11.979186780285143 3.091020586817535 1.9452478008688436 0.5689972137774264
P 7.352106525491743 4.221918827904455 8.619513315458184 -1.6791324530281662 0.2091597563912398 -1.8645077054052985
P 8.000284779582065 2.329430918951256 11.67868375015934 -0.11588784700927139 -0.1366353639692679 0.3737964906694401
P 4.896611340304314 1.597362523883688 9.364359227039026 -0.16219084384086904 0.9081984829705004 -0.49499006616234104
P 1.4240942766161855 0.1602710251582226 4.306910301614022 -0.16116985877552242 0.7793299074308448 0.3005647877677985
P 2.35565535285755 0.7765414822864093 12.433190163542454 -1.5579694736628846 -0.9769796062999561 -0.3164866012043775
P 5.992091489515036 0.22931000276286684 12.425171376746937 1.4763678015299928 0.517004108539587 1.7621076084698168
P 7.088543952852766 5.2295728337584135 12.52841337360391 1.0364222258373055 0.080296580168223 -0.6667988927089483
P 8.980480260522373 2.4335339747610893 1.8556961033377128 0.19613557621742997 -0.7340571516359745 -0.8646149419525948
Ni 5.728042759812555 7.214402537254379 5.425588557010729 0.16697669526528663 1.3165400586046618 -0.7030715018877376
Ni 4.793948057336394 8.911128085578742 3.593181246849693 -0.7364799021448543 -0.2817512546057212 -0.32350442728310735
Ni 9.45042585579288 7.407752810914296 7.549138503990267 -1.4863251698530209 1.4203246945924959 1.4885936541722233
Ni 2.555400461737396 8.738981739227018 6.26408327770122 0.023923600695132993 0.4359865910449394 -0.5865120827327382
Ni 0.7920695258781966 2.3737460051244583 11.991816579844507 0.12598096957921529 -0.6329094390503551 -0.032619842917550275
Ni 6.295939654204715 7.3115217598635 11.629341612966027 1.1784589633278026 -0.7280114596625268 0.08126974271476971
Ni 6.769110714608081 0.5592554525883854 10.478603169066123 0.7592071685390409 1.6904517346957273 -0.4000335699890981
Ni 3.982009666239782 3.6198226539296843 9.815133405493757 -0.88746716396042 0.18791575941079897 -1.1849054902840948
Ni 8.861240891523847 4.717742937632222 2.2980550900066845 -0.019260133781192637 -0.7263453848140136 0.3188594723119283
Ni 4.213990728099629 8.579307191389017 12.375924601131464 -1.5793816207900733 -1.0161457349764564 0.5330873872546948
Ni 8.242867805096006 8.183603389220073 10.753052855175289 -0.24422523263580517 -1.9621448337344978 -2.5026269707913675
Ni 6.331195390483017 2.895523422703874 13.042925547836237 -0.9676989523289785 -0.5777855014930178 -2.0458234430010767
Ni 0.0024176964735000334 3.937731976763772 5.485590622738788 0.22073280594081984 0.1591656838613001 -0.56398150573039
Ni 7.022594877353658 4.452834083894313 4.846504440653411 0.48901816484962235 0.1283875221381789 -0.33584623667791197
Ni 4.9120281287219525 5.506747804175488 8.778132341517924 0.9753209876506106 0.5434975268444253 1.0045287195628183
Ni 0.388943414233956 1.0613369646739008 0.25757723125330517 -0.000403920306638014 0.20639916292696714 1.4458356943794068
Ni 8.827191198730006 3.1960432813434143 9.860330118803274 0.02541638319057558 3.634735371879089 1.7160735490288896
Ni 8.353562028786031 3.607921155048147 13.787729388132737 0.910533301751264 0.019682823140908037 0.26482028317833745
Ni 0.4041339526335804 2.794318610926465 7.756361082473769 0.8440965102842688 -0.3761140830590232 -0.8004494630182796
Ni 5.056949679517483 4.757991132985732 11.875808285483417 -0.9002334624871527 0.7849215425860095 -0.2186941782442363
Ni 1.9881019145003174 8.634859985068587 10.442328372789325 0.6465576259614091 1.842198243274821 0.13825670162277479
Ni 7.395589535152411 2.0540042441279343 8.519186391147372 -1.2938025077978301 -1.3164621541788748 -1.7309676925319029
Ni 6.287525397336386 7.631459853520284 9.292725853566647 1.5564129278090422 -1.2011188668191637 -2.568624617838415
Ni 1.8908144067538313 4.98946733943348 13.694134804234018 0.8844448321943285 -0.38465040266480854 -2.083589348895941
P 4.550561002832812 6.756068616462169 10.694500846380873 -0.3487174362136253 -1.733911348541259 -1.497266499355873
P 3.6276853095144235 3.6685318520230146 5.446181983237252 0.48883947317991294 -1.0319819306777647 1.1039332242050859
P 6.843857363121741 8.211501325325735 3.78461306994363 1.0956622424455453 -0.5435234949863542 -0.5243258390119808
P 0.5901236213685672 7.0454255609897265 12.553631836355725 -0.11339824781819825 -0.5183667932150685 -1.395907699200712
P 3.8559173524807147 3.41498224505735 13.235232453644482 -0.20147421482152397 0.5513280786324376 -0.047891681474956226
P 1.7181071099442173 0.5348737409362556 8.539766728529875 0.5729646830656068 -0.17593313312762604 -0.14716197453220464
P 7.95683916661859 9.07238264387313 8.465533349685183 -0.11944651089480719 -0.3262380241641865 0.11232198403488398
P 8.641740977352022 5.962650939650181 4.797476435716513 -0.45500067025359703 -0.7151070928960329 1.6519386662221938
Ni 0.6770634630018678 0.6088621714143372 6.57412340052856 -1.4155064472682461 0.371718782204805 1.1245953805401276
Ni 4.184802605940823 5.959920980755123 6.6404604667610405 0.21331234510703262 1.1719707845002976 1.0100668757722282
Ni 1.8486589798434998 2.5613839332882082 9.818280337562511 0.45242005401061436 -0.5087544669362851 -1.1164251860245094
Ni 0.3844062599470668 6.6941957809570525 3.2247536606955847 0.24666572375649778 0.9901094588136949 0.40905685653363094
Ni 9.089061570821018 2.383254115385671 3.9242934736276203 -0.48407650457363083 -1.3818897876550653 0.6100623592488525
Ni 2.564824429429925 7.722034654120704 8.329150399776148 -0.18259820385262746 -1.0692392723673263 0.5968211779682302
Ni 5.389780284531408 3.789996324504501 6.993357204571073 0.029752548672084246 -0.37211421787101073 -0.1528096597362852
Ni 2.10918307083558 2.4968465831081206 3.506168481656867 0.21398494569402504 -0.25480095126912244 -1.24301216461884
Ni 5.299663593471599 0.7072547515628642 7.414725425105852 -0.8370198059431456 1.42018096992578 0.9709262010170248
Ni 7.652635733305582 6.934198434364707 1.7463247878108754 -0.4335579269987888 -1.0211542439346415 1.233147098899302
Ni 0.7669959753280041 6.644981727451623 10.142975291102193 -0.6609984839770874 -0.6990220144087123 -0.22909403342132156
Ni 5.485861748793434 2.555998808892477 4.4530229372151355 0.6271090303184942 0.65481729486704 -0.47526636248116855
Ni 2.0978518715862298 4.847659063679231 4.443498933357616 -0.10487324106632259 0.32413640444015146 -0.9778373263145611
Ni 6.706882610479634 0.4325330044816226 0.9373154930218719 -0.7154685900005097 0.6234259250399521 -0.5333182723185783
Ni 2.15577935553753 2.806893250357469 1.0693697752308662 -0.22047878094848478 0.0060397784361766954 0.09265690150578881
Ni 4.219244964055186 4.436613266487034 1.6343665557557416 -4.7035077319123255 1.4135490664315593 0.782525017329375
Ni 7.887683324335219 5.578203543336202 10.080086200350868 -0.47208745053255474 0.766693449613757 0.9283176223178787
Ni 5.374531781251136 2.6739573410121595 1.3070706619263175 0.9725313407206153 -2.3160268448681984 2.339633171433229
Ni 7.244871496292031 0.9303858850320876 3.3193345824827576 -0.8054697990510065 0.43851141434932217 0.6401746052532007
Ni 4.068554972717701 1.7961914136823158 11.429467485480867 0.15244379175643424 0.01716854135948656 0.15834344507032086
Ni 5.406412465607807 6.393086924336729 2.876194939759891 0.6501761965506029 2.656501581457057 -2.3279580490881457
Ni 3.9151537208337546 1.1956565518153355 0.17877865059882847 0.6547535315086401 -0.4007660772797485 -0.02568352080903319
Ni 0.5576417851045257 6.5602314624389475 0.9258711687635139 -0.44061637650746693 0.6861019639129345 0.6721550148145391
Ni 8.946477313600024 4.984540324578357 7.30577762717472 1.408180345920478 0.9342558421791846 2.2861411130523592
P 3.976072940560461 1.5829180495930553 2.9523851007851856 0.9025348569268198 0.028212200768157863 -0.23902749048494965
P 4.479469881469726 8.11590601812721 7.379996982257966 0.8178789713486366 -0.8431174342004513 -0.031747724725242094
P 1.7580280841972924 4.86992879685741 9.27518399783104 0.2677071178078293 -0.7498828058143214 0.4856541334733958
P 3.4931413421898334 7.309586480783784 5.022665322448758 -0.23118639717397604 -0.6612085431053645 -1.9683648465022812
P 7.463399096336849 1.8638981339494745 5.64299145138748 -0.2844038617372199 0.7614257734569144 -0.7479917594391957
P 6.066969026468872 4.317018628865175 2.701169982641767 1.0704610605895692 -1.1557808050039966 4.152482015011655
P 1.9587735547270397 4.881194551886674 2.076027159104642 -0.7013989992813212 0.44623783645930243 1.8509767607983996
P 4.105624448809842 8.47784060273126 1.3720408788764094 1.4014556256021347 -1.418975379653453 -0.03533184253207463
