# total energy = -340887.12825382774 ev
CRYSTAL
PRIMVEC
9.08864801835822 0.00000000000000 0.00000000000000
0.00000000000000 9.08864801835822 0.00000000000000
0.00000000000000 0.00000000000000 13.30215506949313
PRIMCOORD
 96 1
Ni 6.539645916758731 1.9310741690241604 11.379754612526483 1.8027066129381015 0.2168982626860781 -1.7058184469597846
Ni 4.582214667991123 0.4876850464930118 5.612950988005124 0.20498942706363407 -0.41682467340450796 -0.4947257567573608
Ni 2.7867340412747197 1.8944105622362062 4.521362532917234 0.3486786125558898 -0.039691662162667125 1.9560446343740314
Ni 3.3313712839044096 4.803286946501337 4.908655280397091 0.998729339272222 -0.6931066773655418 -0.5497432506438209
Ni 3.828511251106769 2.7798266686522988 2.5934412159492806 0.2125847229123887 -0.02885831899258901 -0.19360586781704076
Ni 5.495478392453397 4.346582375084701 2.680956718210533 0.13182585839576652 1.4049320141865096 -0.24419129407407622
Ni 5.882800223607454 2.9442766689550375 -0.031161339175305038 -0.1616984775854828 0.577177949816006 2.03732568994271
Ni 6.067963253129267 7.851855853406741 12.083677685558834 -0.8560385131374935 1.6956813585257828 0.6174841056342204
Ni 2.0304948915460823 6.3396138588023385 0.1489056853078356 0.37927011218950163 0.45584219231828593 -0.2927023543005862
Ni 0.7221967090779279 0.2824242892344102 13.322640388734984 0.3782882078922066 0.33006922498481867 0.3237877628514811
Ni 8.037409694800612 0.01843814057776974 6.359867002423131 0.019277103062057124 1.4805034209649213 1.3431283506161513
Ni 9.028953946100925 2.5406952461937298 0.8852688703154572 0.49445142005005166 0.3146786014613613 1.887861549639891
Ni 7.0763215035762626 1.5861963249052418 4.718314448002918 -0.06588991782458975 -0.21350749183697423 -0.6932293189863351
Ni 1.1303369977700335 7.7616782860914 2.2958988693199567 -0.6072500866110381 -0.5220334434333784 -0.0134214156122285
Ni 7.911295612552309 4.263893853875775 3.5796495218987743 -0.41634104889987006 -0.8471725781064314 -0.09929908941265479
Ni 8.214347497712833 4.3176895624969704 12.691041142518653 -0.644797962957825 -0.575942277636692 -1.2454711676822936
Ni 8.864394882019939 8.15443512886152 8.82407763866065 -1.2970287280446113 -1.5174154634999222 -0.072810556203823
Ni 7.115548109153062 0.7448583444683804 0.1974881453287408 -0.04465517681552955 -0.43864382616212844 0.10532421256081215
Ni 2.2066692480105616 6.637467037199672 9.424457378353276 -0.06463547659219836 0.2051676045127112 -1.0535342029272436
Ni 0.20749747357751971 5.1472741030978915 1.4138192056534564 0.6070832220158705 -0.5107509285410236 0.0021432715952479217
Ni 6.598976612126051 2.269708111838338 7.044941127979641 -0.23187185327677484 0.5200066428113367 -0.3727189413345452
Ni 3.982591103827689 4.4628716286424295 0.2804493259832891 -0.17078398482651877 0.41866892570209835 0.06458225475675973
Ni 6.383666536566645 5.928561567230991 4.54798045686366 -1.0918775785921326 -0.6238267600227967 0.29146333968716254
Ni 5.228508440596834 2.607078732554468 9.184872432350156 1.2802661638742918 0.927882077442357 -1.1126009271824129
P 0.452603773354483 6.055938971577342 12.033888253058644 1.5109841060522817 0.1068182806078354 1.1821353837381252
P 4.250915264264173 6.399653468728275 12.41209507894556 0.6339005993190308 -0.3994332174009379 0.42450610120916565
P 2.6653733220284246 8.819533314566952 1.2595639420225198 -0.6406978247465224 -1.2964016359835737 -0.2534500936681829
P 6.702369073905865 7.722597098885599 5.570224344011358 -1.0785515509071875 0.23648518367907018 0.44012401025208076
P 4.728841829198379 1.2588868377325588 12.348617233410332 -0.22873022232399964 -0.06373250516195475 1.1502565327516576
P 4.0448937871522865 6.332497447271608 8.114115158907776 0.8326872400060628 -0.09453560658574041 0.14032849655013896
P 5.0811450988864 1.2723834802908416 3.6579064182515264 0.3679624004861663 0.6727283708195059 -0.4092322057692307
P 0.41977739383124707 5.961144370982805 3.425824151327101 -1.7868354502338002 -0.9919292856312529 -0.851264745897934
Ni 0.5877119818490331 0.42205319133737096 4.595828554111024 1.244494148481005 1.830331316633906 0.5955585092057227
Ni 1.8971280680442373 6.647137358871061 4.625053102357594 0.9852896688275484 0.5173689480781735 0.5964437400241535
Ni 6.032862893829545 5.687557883245819 9.094125006793465 -0.49680732187673793 0.2215643007031797 0.8260375959000289
Ni 8.789395357177549 2.5274803517292566 10.103492097189262 -1.5468263125618715 0.4362879243354421 0.9585802778571619
Ni 2.3003005016371123 5.469384883507384 7.037319387609691 -0.5548432908745478 0.06643164926067269 0.30180714481533183
Ni 0.9990878292958516 0.7754252860522298 9.489304883170345 -0.5360097031078124 0.9273678568100997 -0.043959693410401714
Ni 2.3936318298734793 1.3676143359983741 11.576825588903423 -0.07490394839774198 0.20325187554723703 -1.251724347680857
Ni 4.155202710202709 7.152320779719266 1.2886412541684549 0.36786701255888254 -0.9465189758172537 0.4639817907062848
Ni 5.653130083911963 8.05647767869777 7.476556486074971 0.11229370190010982 -0.9012945567618156 1.124027680962116
Ni 5.097541020216461 3.2302782501160068 4.838499096173765 0.9968598901636511 -0.6219783939601482 0.2829383329352869
Ni 0.7165626560665612 7.632619481830381 6.65822096533559 1.2357225729359622 0.1566696569123237 -0.19756228136162748
Ni 4.970563516390356 4.57727044337718 7.00474203704679 0.8320493493117476 0.849805387743588 -0.09857480965212057
Ni 1.2253679032174434 8.082171287123536 11.299821769447975 -0.2558376200637529 -1.0549758204697766 0.7730181062802042
Ni 4.953113311870555 0.529092018769968 10.306497051967751 -0.9765376336665311 -0.4271949608952385 -0.04047302041338191
Ni 8.571994892535043 7.672445938187549 4.47215840936031 -1.199601915954005 -2.047148332460087 -0.570066021361573
Ni 7.409956689887372 6.384984390553818 7.320042693369467 -0.1832126975081748 1.8604052532011508 -0.4228623949581556
Ni 2.6443149241782287 5.290947453644243 2.4836848827086526 -0.1648676193420838 0.1906159319507814 -0.35360587465417814
Ni 2.8954797168369097 5.276396527896222 11.23249942572948 -0.033591205691884084 0.008774917979152629 0.4303936703381942
Ni 1.1777615640118646 3.916389390430699 3.8920372664773906 0.2630174256416438 -0.9768785619457175 0.05732968695940449
Ni 1.7625070110925318 1.1460876250787901 2.6513586265234603 -1.495673186726824 0.8724951160316199 -0.9374167564056695
Ni 1.1944028788429861 3.3411143147612976 8.428405157552016 -0.3241006661062096 0.021372552138505127 -1.787228571907161
Ni 3.6164730888948267 2.683895987034337 6.911866050084612 0.8486080250013773 -0.3542877312125511 0.01334094008328025
Ni 4.2464254720596 6.983744533139449 5.713647756732557 0.1768456176395664 -0.028276478347190014 0.18421157108633435
Ni 8.583910110308718 7.400004620122174 0.2750979299305505 -0.6205753429650345 -0.12616583189651176 -0.1542618188017795
P 0.43486727641678025 6.1392546095112 8.215584462731137 -0.8280710813902901 -1.3991868841726163 -0.3176173723747111
P 8.56118848984023 1.6093905550794756 7.985922502819015 1.4932465795632026 0.9019766704305047 -1.168890345802761
P 2.0307039304543926 3.265115038618295 10.4129805629961 0.8172683343478312 -1.1950459211522064 0.8284613748501731
P 4.215778550371702 6.4265922219557154 3.484898546815536 0.9715324671424557 -1.185695847395874 0.3848445209534856
P 6.912771279444076 3.7688988076456407 10.045787360982667 -0.1916466872081409 0.6971682490294251 -0.23267917966941862
P 6.921732686556848 7.732849094040982 10.145088113348516 -1.8475165701639407 0.8183818791269841 -3.3347616807280698
P 2.565452723856196 8.489242750788804 5.5421304235993 -1.5173997797706382 1.5243453578505362 -0.3632873636080002
P 7.124509516265834 4.339765888944155 1.275902604869001 0.4046828958356514 -0.6314529091094867 0.9692241307242533
Ni 2.758104799484423 1.7210355094134449 0.5638542803571194 1.5833452334235119 -1.0157564699578379 -2.0763552930413467
Ni 1.5062980186898456 1.4052595167905673 6.978669431991608 -0.3824138000248059 -1.1715792054888339 -0.79289633326137
Ni 7.002530768942797 0.6700460457786511 8.983158065614276 -1.2008350170301576 -0.5449134333553454 0.18470419445203676
Ni 3.092912421411708 1.6776463029668176 9.022452836052482 0.17292237132576024 -0.46025703355652997 0.14323590000492106
Ni 6.861793051760974 2.0702213727731893 2.320907193672395 -0.6624141333776914 0.9448295039299728 -0.3909706884558815
Ni 4.502080056922855 7.35391608516389 10.20468237951327 -0.36530825069277084 -1.134550949090943 -0.2707831856299917
Ni 7.61695065235531 6.223033768502613 11.272153197771086 0.7036183755301431 -0.8483678839661131 0.06786246816992829
Ni 7.8499381486392 4.295558704160662 8.037827772617232 0.8847271393214377 -1.3179287114220724 1.2950083551804727
Ni 3.5986229838547814 8.485461873142848 12.565268793442197 -0.4475953789284614 0.323899605838997 -0.4536955782889283
Ni 0.5392949352251385 4.821500597468878 10.295096251681484 -0.7575632051777147 0.7948130906681086 -0.5948475991816271
Ni 8.77661671782607 2.8162176159946317 6.022098298916393 0.6671112817430447 0.4546589706434621 -0.3465741646183773
Ni 4.351126699178399 3.118097065538981 11.291322065663122 -1.896591473313721 -0.4136663302811843 0.17888424533615
Ni 1.5718453494173437 3.740923948524837 12.58656622273972 -0.46987013116626175 0.05396976934823609 -0.23120388067547276
Ni 3.13104838920602 8.689620177376318 7.5587233188779415 0.4933170493352923 -0.5552153295019857 1.2170442798001684
Ni 5.933124068621064 8.182782622558006 3.4056573498640885 -0.8763872519971745 0.380378514762332 1.7098921028085263
Ni 3.3230097275720056 8.44120015647023 3.425584211014954 0.3691944731210545 0.42043475935326946 0.5848020420201671
Ni 3.381949611067267 4.171416858569023 9.07829530824548 1.3346971891296626 1.0757374784971603 -0.9673243425983792
Ni 5.822587929365957 4.822645767140489 11.623835712787908 -0.4185995059167436 -0.1191598328923238 -0.427282121292406
Ni 8.0808988763773 -0.019750541376029683 2.533315263865564 0.7108886839393112 0.29099822712528595 -0.4476300888211388
Ni 4.7934348518662 0.3745777286656906 1.593132781201862 0.20126518413451144 1.8534141665952981 -0.6428871190883574
Ni 6.356164287151586 6.046250472609579 0.20180797981221 -0.42752149099672176 -0.015885046661372644 1.147854351068068
Ni 8.146900639514168 0.05399202342204314 11.108057654747657 0.8505373808136062 0.43305964720613155 0.9570877524720355
Ni -0.22429874861673949 5.45592459554185 5.822193482034623 1.5389340542979884 -0.714467402429505 -1.1069573557433905
Ni 7.423816878373151 6.478015793400001 2.463386295846923 0.7424782858201342 -0.44126172340094977 -0.5337435327814549
P 8.880845335239124 2.155718286272021 3.309376755290912 -0.37303158747895754 -0.6848621779685624 0.4584827152649265
P 2.221674606167952 3.4685735169413356 1.334631631726315 -1.46142583550818 2.630384315544715 1.1153720621696468
P 5.002301075860742 0.9538899818599327 7.67071455070785 -0.6013270362583837 1.3389495366481134 1.595104430841969
P 8.654247158630975 1.8987912906625306 12.234683757462776 0.0191194944382703 -0.19305873706431914 -0.13999091070506212
P 6.412495728617065 8.05640496951227 1.3182911511501962 1.327897649709326 -0.684519449917163 -1.3334969981739744
P 1.931155966857847 3.5008382180065905 5.969861293459337 -1.5826728899468356 -0.3511278454273308 -0.05573020368276853
P 6.9930331315869685 4.313617848109017 5.962811229060374 -0.5418430219601378 -0.8984889689922204 -0.24845392600517213
P 2.660265501747108 8.711932808676375 9.893291659640811 2.1475889916763533 0.07129129134581914 0.5815848206344499
