# total energy = -340853.58597905387 ev
CRYSTAL
PRIMVEC
9.45612649534523 0.00000000000000 0.00000000000000

0.00000000000000 9.45612649534523 0.00000000000000

0.00000000000000 0.00000000000000 13.83999696585282

PRIMCOORD
 96 1
Ni 0.9078136566985544 5.900159463335092 5.926397376990035 -0.7048309077810054 -0.1436950990295267 0.2673435638208234
Ni 0.5117447520796918 6.051835729246829 0.17761536597548422 -0.3863416743243024 -1.8478775530477853 -0.729983238676917
Ni 1.3694267551790518 0.07275638139348525 9.571949666755485 1.7451270147514202 -0.5041388225411447 1.0049364965241985
Ni 3.691085429143142 3.3753642841143945 11.463046324182615 0.07392512942424043 0.28342041477802804 1.6643527236158304
Ni 9.39732811036776 0.6704658320877045 1.45333758316041 0.662393307442085 -0.90370702285805 0.5563643555047644
Ni 1.957370864239415 1.1938926826030174 0.6566646157474187 0.15578674008673815 -1.5941909178887643 -0.007445914755083951
Ni 4.933478583557962 0.03755784245313224 1.8025485451064276 -2.3591995236009304 2.292453942644265 1.6234097055445653
Ni 2.677161742352606 5.724332250843641 7.633035269835678 -2.6841252567115963 -0.2823876026381395 1.3609499521786046
Ni 2.3371478088495907 6.1940747811074495 1.6299505997476995 -0.7112692072071815 0.5598538567152616 0.5412501255711452
Ni 2.1357701430854776 4.651600914570244 9.715553237641732 -0.9516334142256836 -2.0657183821527907 -0.048505660909871295
Ni 2.467670720219898 0.2071449571967545 2.971253889686845 0.346621472916545 0.815238448401996 0.13197626793070175
Ni 8.303840576857686 2.7792122574223987 1.9904408291487994 0.604592594383533 0.8572700715517494 0.9263255315885143
Ni 3.143859399946616 1.2155188434596347 10.729831529168658 4.146827387829039 -2.8315042323506137 -1.0473640695607898
Ni 4.51527194164945 7.164689409426929 2.3511107249496703 -1.3265534769766056 -0.5158275717329825 -0.1665527203539906
Ni 1.5826718594543387 2.4593776974515316 11.246727033245987 -0.9637595080652565 -0.43461722150123855 0.3052295402333195
Ni 0.6578097526427998 3.256141443677038 0.38770496090321843 -0.5421279001904082 0.01154193920132851 -0.8148707806499321
Ni 6.36289500400784 8.58540619367738 0.5984820162132334 1.9829116339682042 -1.0569334584167798 -2.9259038275791225
Ni 7.348800188560442 6.914291184904308 11.345448046244242 -0.03341894178007793 0.11037874426558408 1.0925694624528346
Ni 8.993598797830249 8.005925317658852 2.9053749489540586 0.13613759839724296 3.686282647828761 -3.8684375934963824
Ni 4.239673140527405 4.382715963123842 2.2382868451820443 -0.4123887491203414 0.9392998323609952 -0.07448228747929107
Ni 5.058469661040589 5.838089450277445 0.13293327796512605 0.8129010585180708 1.3613060499664424 0.3780961464860585
Ni 6.864920749472564 8.445058367077506 9.73360025469239 -0.3676142731181282 0.5980051709740023 -0.5203048907780458
Ni 3.2187992009036313 4.97996490046707 5.625017393113515 0.3160302303932493 -0.8765605443502453 -2.0684110984936055
Ni 6.8090634113964645 6.9671320186895205 2.123720201336642 1.4555920024352222 1.4686056410860706 0.7367318702546601
P 7.765522218639267 1.0748589646917357 0.23311242563941184 -1.5099307250871028 0.6385769217487777 -0.33132392332752614
P 4.515981151122229 9.377214929719736 9.373608363147497 1.619024431992676 0.5249213065041346 -0.06841062736391443
P 0.052914591570380524 2.8006965763844605 9.609815778926118 0.47382808737274523 1.3451993742125672 1.4341150635083688
P 3.0011664540234158 1.7597189122389691 8.748982048929726 -0.42594669031043414 0.005425027670313238 -1.9306277369628233
P 2.9247987779945386 5.73778831857384 3.5849602692490743 0.48058108982586273 -0.18652119305611747 0.7521286644257046
P 7.432874607526855 9.148357760917001 6.743178796987896 0.39214311149742787 0.5825232732883194 0.9088741688812862
P 0.7703792626128555 0.6353457789956724 12.053737437934211 -1.6548535258761436 -1.494789241459974 0.08172508508463344
P 3.2876303442684405 1.406220542626843 12.806550054712638 1.3160119540153337 -1.4857970652636927 -0.013287461137525504
Ni 6.177668401970489 2.4791599136789224 6.6326385717226195 0.37075076186458084 -0.4337697858992788 0.2415093763665389
Ni 4.612433639420217 5.4086489303201075 11.477827195207967 0.3288885744131561 1.9003607105481661 -0.796873572741563
Ni 6.466638165686001 0.7726742644667696 5.115857945965263 0.0015778860100811535 -0.9796790075089902 -1.2314388579589437
Ni 5.270504381148999 8.22156282188898 11.923267480871205 -0.3514309784900464 -0.7981092449208772 -0.7832187009622898
Ni 7.74752721028328 2.466800756599955 8.544841303059664 -1.7475492510396677 0.3113361673516896 -0.6576941021942028
Ni 8.657509156743279 6.449210524908236 7.97228136588283 0.02800471274304209 0.999913332277994 0.788123594463075
Ni 1.8359542024995945 6.338573847154661 11.306114343271268 -1.0144166681004918 0.2254762341630762 -0.411404273719885
Ni 8.619646827023168 6.725849499923691 4.441628575608675 1.1717321861269305 -0.18970370454915714 3.0856858048681826
Ni 2.744593379024464 7.342927934125829 6.161455873422753 0.5059807608458899 -0.2752430211735582 -0.5006668048321442
Ni 9.309546889890285 8.971424181648015 8.081270786434295 -2.4859698218506603 -0.5781277153237849 -1.311744179877915
Ni 1.4394115459529153 7.565156358389654 3.9839123467779425 1.1186777295041122 -0.7550463522931319 -0.05219365128441979
Ni 6.120392644948829 2.6219095963599446 1.0471979040280812 -1.1929530431789197 -0.542507137906698 -0.4730441580188692
Ni 5.2663625978279685 6.449465840318436 4.583917744938706 -0.03991277703453771 0.10824421442108455 -0.6013668883573836
Ni 8.681310226649753 2.1662188697834703 11.838871553610465 -1.7623382364233842 1.6292967604529618 3.4003371526360344
Ni 3.3873924767727317 2.9131582865146535 0.4212165269109871 1.3334075237839615 1.6297875840464513 -0.10407825596885302
Ni 9.416987396953202 8.117110450738041 13.4339999682447 0.08432575593227414 1.87149287847388 0.3287073116402855
Ni 5.635246084936254 4.560103436455407 5.689221653877912 0.4280722212938692 1.3283851308687058 -0.17921334654079457
Ni 4.819560629976995 6.452936238671903 7.26693944876173 1.28654891155921 0.06192193431577722 0.10206096842850809
Ni 4.910434003755785 2.6843956789749552 9.493047748877208 0.362657186223169 -1.11179951432704 0.8202266456452066
Ni 0.07214929808478616 4.242216838503106 7.924352989712403 -0.05291741682432176 0.013444555540680072 0.8472918772931151
Ni 7.917699659245103 4.131211371823687 0.041784730910897 0.17952213603046502 0.9142596015629157 -0.7319717298618555
Ni 0.7337140784827949 4.331870371988717 3.8491937521666735 0.013809395079266538 0.4121835750880708 1.5256391369612952
Ni 5.570613461650298 0.8583354214269473 12.829067928279697 -2.180708657048457 1.973945168803536 1.1115781423448534
Ni 5.741145243411663 3.2104872658826573 3.8636285289693086 0.014603865956103882 -0.9074559483775211 -1.2295922916685083
P 5.1517732592794365 3.8943637762943037 13.28653546098864 1.0537424622833078 -0.15617137711966653 -1.0811185403034156
P 1.6494226550323288 8.413021011160486 1.4066838928157255 -1.1282915984447923 -0.6266374899987143 -0.03213724685417691
P 2.37414017494976 9.170636394488575 5.150015365399575 -4.4542313100058575 3.626003134212413 -0.3521202912475871
P 3.907451055098658 5.55225912049477 9.221825243008526 3.490260971481376 0.8000393720640545 2.0650336973809402
P 4.158974558651421 2.1773960110744723 2.4486279730694576 -0.7875661792977081 -0.6953998442750927 0.48783674294701146
P 5.925795021744488 8.44839637966272 3.5833962259584387 0.37185350801045636 0.8271632248640399 -0.4908557322789933
P 1.8661476137873863 4.308428634881784 12.832928864649508 1.5052127507861432 1.2933993588221402 0.5648124862721177
P 1.3313942151854725 7.5171948857771635 7.738800151317574 -0.06921229732960338 -0.025938574242632743 0.546180215882911
Ni 2.9052813333036513 6.273581891069163 13.249499596707475 0.3847365346207116 0.014765074124316508 0.09672695781010439
Ni 4.094701268165007 8.445058367077506 4.782424530757009 4.402328193378664 -0.06260327665351799 -1.7272725030685028
Ni 8.92042729249203 9.152300965585654 5.12072974223694 0.2577358655277303 -1.8954619876949677 0.5990652368074005
Ni 8.02435530782481 5.075140811714055 6.127215240076967 0.9526633981520949 -1.779159164635465 -1.120978866833463
Ni 2.3871990853752036 8.822055210554387 11.817765479700553 0.4543612368973852 -2.042956662976243 0.6995357208203371
Ni 8.692099666762303 1.9399337673353472 5.887092042395974 0.38946864998905834 0.29083727606738946 3.8794396010338414
Ni 2.5827706895888296 2.3101221998735464 4.531269816130091 -1.3257705760639942 -0.5879035637636262 -0.6954258124170217
Ni 0.3691208358785091 4.1353815235236295 11.386012936861956 -3.324779629814693 3.735213054980877 0.3376164412044573
Ni 8.659343645246201 0.9097086644098208 10.13951393240606 -0.8427405104770067 -2.492482683268514 -1.7561567902030208
Ni 6.561747884048859 5.672087153015564 9.379020104231117 -0.817065731418722 0.2592433033111922 0.18450082019197903
Ni 2.2068896690157884 3.2406712210441455 7.281415832520101 1.7312160610972829 0.2537514269586856 -0.540473909526753
Ni 7.037438317757711 7.125909835455356 6.206934167267884 -0.8009112331460465 0.7993675428080104 0.3896694531459547
Ni 6.570012538438314 4.873309251887364 1.805441174142737 0.30920806526509326 -1.768645923808967 0.9526914231765529
Ni 0.10842016174798151 1.4225985533848935 3.836571714776462 1.7132741319068816 0.33292006417005243 -2.0291074157979767
Ni 0.6574627128074532 1.7113319139428118 7.999559453431184 0.11676279341505699 -0.484372695657811 -1.2388171527008858
Ni 7.217085805275865 0.6787664197571136 2.4142767030459185 -0.4026226708725131 -0.8185569712522677 1.2274477345216794
Ni 6.930413880252159 4.682550815962333 11.70070714657412 -0.08373594486707515 -1.619584161150888 0.1196992503355616
Ni 9.389139104988732 8.084136938316954 11.00689413864252 0.2005974686435255 0.15562656035979003 -0.5623421703547541
Ni 7.428278930143244 9.432306321565234 12.21328498338117 1.794223515167755 -1.0522769334813749 -1.073967531080931
Ni 4.525938452120051 3.8709125830610676 7.678416165579881 -1.0522226832046717 1.3502670185434618 -0.04804800454716242
Ni 2.4898169680232196 9.544635645927176 7.232962641339819 -0.08490733946735698 0.1346712982643616 1.060390563727445
Ni 3.2882828169833975 7.7767371844354845 9.63645746917423 -1.2164601251619243 -1.6258651090635934 -0.02460571436382214
Ni 1.8711120800968415 3.357965011715542 2.253705059120267 1.106367030457559 -0.9072608016475794 0.2188957527320811
Ni 9.076056219198724 5.73397749967344 2.3746668811848775 -0.5009478264076728 -1.0109307664344203 -1.1978170561394403
P 7.747394824515029 2.4307540031301578 4.224520643738317 -1.697659051077444 0.08370740562198487 -2.743953798833455
P 6.636025756164614 4.524321454522114 7.606185544808882 0.6599024226994312 -0.5188681583315193 0.9721091655815323
P 7.6704881492868395 6.595912868384215 13.568082165555728 0.11857105026838935 -0.4929702075188349 0.3375429076540445
P 6.682937598757389 2.542241732251067 10.613132528841767 1.1523211285901702 0.2085226370278731 0.8526130323957124
P 0.60053021317062 3.687785241063142 5.942894534939512 0.05351571252995299 -0.4815424252978674 -1.2868070503166031
P 7.227544280967784 5.416071989468532 3.9878981040149624 -2.529627153529295 -1.829564099450578 -0.973044275801292
P 4.196884169003052 2.8373012413061773 5.640365631717091 1.2954462140488399 0.271735522240932 0.8336439474923772
P 0.10418949083969527 5.593383813789666 9.84257643666703 -0.4818213899908669 1.873276452736864 0.21247262281455664
