# total energy = -340887.01077398413 ev
CRYSTAL
PRIMVEC
9.10402350205827 0.00000000000000 0.00000000000000
0.00000000000000 9.10402350205827 0.00000000000000
0.00000000000000 0.00000000000000 13.32465864406568
PRIMCOORD
 96 1
Ni 6.643988843750378 2.456866387280024 11.443150214635997 0.33455374311873354 -0.10166296165914103 -0.46465901927896747
Ni 5.034980158616563 0.30959870401960343 5.6947988088033705 -0.6036777958787475 -0.47995322643387667 0.7755113050157032
Ni 3.08503490000832 1.7512408431992104 4.762553182266484 -0.22670984945986117 -0.4960311058323457 0.25727255273806654
Ni 3.4889986276968363 4.52866899951467 4.742605356526416 0.06398781570587045 -0.25372468748580823 0.45932912242562185
Ni 3.9954372431267653 2.8475109286887177 2.7811098233910307 -0.5384669063990534 -0.6870802686658037 -0.7501455725574049
Ni 5.180116500156505 4.81082999771737 2.445900591057162 0.6319151934578858 -0.11891532098168553 -0.8266731726014989
Ni 5.4513981903589395 3.5357933081331243 0.15223930062095267 1.5008292770064668 -1.6539109594572163 0.45766381890805696
Ni 6.137076819102027 8.063761297843593 12.27388962152455 0.13212410636247565 0.6472726497505628 -0.5302792283819383
Ni 2.0052066808355318 6.624214904857845 0.40162399366670215 -0.7951033682150177 -0.003152172475736507 -1.4943704087550007
Ni 0.7846839731548761 0.49855999355258174 13.297316594736463 -0.9994968135658657 -1.6206033464440217 0.7615900669489206
Ni 8.13484551279428 9.072259493433052 6.3281602564968145 0.5658324428961997 0.20932482121419432 1.1625011544469657
Ni 9.301125538469597 2.559241130763693 0.9861350724330963 -0.6899491055731666 0.8275797435761683 0.387088836902972
Ni 7.079816653448039 1.277358215559197 4.720740223451741 -0.3268705155418629 0.23953502624898748 -1.7492096694612265
Ni 0.6515904338097044 7.467629843569635 2.348191659581975 -0.190437240281072 0.6289064885385491 0.061298184688849275
Ni 7.702668416492523 4.268685402390335 3.9844723573062466 0.5816825225545789 -1.1056563775437795 -0.6260597631183734
Ni 7.780562440969738 4.224385224374192 12.517903851148244 1.112587043225342 -0.4398216485203135 0.09956751258269304
Ni 8.84043464078137 7.716251619451851 9.002205853934774 -0.25833081879925185 0.40148058684826987 0.4936181255154789
Ni 7.400942871936208 0.7340209931626778 13.61766806083064 -0.7914963675900497 1.019307934754522 -1.0732555926155711
Ni 2.095145328312203 6.823629434094509 9.44086683572422 0.015769604129430907 0.11630436572139968 -2.3545859360883195
Ni 0.06718405131276879 5.1174808189499545 1.2431243562509142 0.5826631413002933 -0.5097371425645285 -0.7604605813301677
Ni 6.3463327976678015 2.3653982638669135 6.668964821631489 0.2178752818873667 -0.11552583568416232 1.597701502145184
Ni 3.6497028493041044 4.776544245475529 0.18573118201959402 -1.0848142439874477 0.6415614582983983 0.6107848392371739
Ni 5.949024111107481 5.692263338277786 4.6867221294987775 0.4997777173589715 1.0387279911523466 -0.15086256331224338
Ni 5.537667916392842 2.9813946972677163 9.158503728201348 -1.3270031629195147 1.2341287460862809 -0.18498573024819756
P 0.3872633071063518 5.5802565380039235 12.390932767560543 1.411695558162588 0.9942543342200038 -0.8550540377370369
P 4.487819246378946 6.534704146482439 12.405630302987849 -0.1162819971238965 -0.8052594828124131 1.8861684782081838
P 2.3341987755682445 8.568979974133743 1.269901109966714 0.19589774917501102 -0.3619647881418347 1.1227968938788084
P 6.487572617179198 7.70886825644916 5.61855534377423 -1.3085578117301333 0.6087783503301064 0.13216061602736592
P 5.156564391540031 1.3712480092050023 12.618292096719228 -0.028974789965795264 -0.2310285314398731 1.2452307695367135
P 4.045664140396609 6.501092091974506 8.202659562528488 0.21150203137117124 0.2576620748670014 -1.2139712973017995
P 4.99729860563489 1.0547830507135996 3.690984133150467 0.6289926204944523 0.9851220329014325 -1.4975614048884724
P 0.32299072248687577 5.556085355794129 3.5325932438970633 0.26819896984258323 1.181064776381766 0.4818926095484346
Ni 0.27264001049836706 9.152547876072667 4.070590046148849 0.9813867342287164 -0.8531748184364532 4.070938192699892
Ni 2.10888329966986 6.500391082170305 4.757969306468883 -0.4195582702855871 1.0231185667498637 -0.6383365236031974
Ni 6.083809178006168 5.848351820005443 8.971466118819379 0.5146749461857782 0.34042845673195565 -0.04882884857724494
Ni 8.79424082589154 2.4196036193761854 9.959649596524493 -0.015159481349257762 0.2087316677148857 0.08577174435018131
Ni 2.4644227267279066 5.435311380956035 6.997990601250897 0.3548487459223437 0.30500174049322953 0.41578337662418713
Ni 1.0788358806187888 0.4466743432135753 9.202728342823011 0.42743715881303157 -0.03989863596715064 0.3734280515864279
Ni 1.9176350794509684 1.3894833681376648 11.494063555272554 0.20323413493542417 -0.41356785703010707 -1.3528584334197218
Ni 4.0729580026433005 7.14853382230662 1.5064190866971703 0.4694448707033851 -0.7952807743331465 -0.07641344306373292
Ni 5.733249651764979 8.200603874037727 7.849756660656113 0.10648969362382306 -0.46077973882921935 0.06353453021853574
Ni 5.355141350621025 3.2568278221547704 4.751813165824716 1.0353583033491651 -1.1089347911847354 -0.7009197456520574
Ni 1.0474361038046338 7.459590990879899 6.674947985830463 -0.6311747157474356 0.9956712691721885 0.476015067721735
Ni 5.090605741781099 4.824422304700128 6.764369524776243 0.27282566998131724 -0.4580322579910692 1.2031726640243987
Ni 1.1107818988388152 7.699509320361902 11.35057048996194 -0.4028694967759965 0.9094084441182017 0.36792151994590183
Ni 5.050447894426145 0.7699318135869848 10.57226388522061 -0.24390204496843154 -1.2962859363413157 -0.5090529720133103
Ni 8.289340790421482 7.138628644813491 4.729227904496634 1.0396515314078805 -0.8114383579296154 -0.6185932795379991
Ni 7.665815329643089 6.74461561473526 7.172850668891314 -0.6877574972384866 -1.055682359618498 -0.33507773394300355
Ni 2.178310582356073 5.418022840460217 2.473603223955913 1.9688194175411966 0.17458947461553803 -0.852554411243635
Ni 2.646066202226899 5.780626989700862 11.406440971356776 -0.6228186304732564 -1.252719878824907 1.2879265086330272
Ni 1.545717514240221 3.599621616409159 3.6956071562488226 -1.3133786301575445 -1.3843300216654417 0.7780361283200858
Ni 1.3362794552058228 1.2332401180116772 2.626236728791436 2.0252116802879963 1.213082209828627 -1.5756607202950608
Ni 1.322459547637285 3.5342456241498232 7.982762801376345 0.008801657452030005 -0.8806105460499027 1.6492870875319596
Ni 3.7675817446910806 2.8619225977802825 7.113462392842668 0.6470710752627179 0.07571744543797282 0.07375080862990524
Ni 4.324611418328101 6.91610810410848 6.054191968979837 -0.5873842009250464 1.4898280407999567 -0.6398498749239303
Ni 8.705904486538756 7.512621927366548 -0.16389700262458434 -1.144592392487345 -0.14550901230981392 0.9431410604839564
P 0.33964471254954154 5.894427282590668 8.073770261203837 1.689767307034193 -0.8202281883071035 1.1476826013768944
P 8.8918541651207 1.4619696026967555 7.889397399480176 -1.0235026895621597 0.15978223439937644 -0.1657471937335597
P 2.205904877375993 3.2143484488248637 10.171444687225224 -1.904045615598921 3.3394002079413454 1.141277469181499
P 4.100015160280781 6.20281697229861 3.6350071346814863 -0.9730527604417242 2.1713495844310606 -0.7018754246971074
P 7.101893910268662 4.193850329785999 10.002994762482704 0.9702134912207162 0.2288775465351413 1.44332706902494
P 6.847354519156176 7.9475302306976605 9.771798087447774 -0.6698623621256206 0.5598859955047777 0.8065764018516239
P 2.646849148241981 8.700259992011423 5.762142180526185 0.1751224643008726 -0.5077995592221836 -1.4099546642120815
P 7.148333533791134 4.315971700091907 1.471282108264514 -0.435637692345953 -1.0334693138565685 -0.44972733766979966
Ni 2.916264513641022 1.306227073859483 0.477547907473408 0.1856336482448416 2.8299206899135774 -0.3473177276526212
Ni 1.7771144777906365 1.2537423787787045 6.817721833290013 -0.32647045188996676 0.05952540905914265 0.543417308425793
Ni 6.87728854819791 1.143456238933336 8.91568849846354 1.5483823441950817 -1.5709666572535008 0.0745067129593233
Ni 3.2198108628835747 1.7996378317593866 9.279212154070734 0.965944431531717 -2.209492928270001 -1.2303263416210553
Ni 6.530224966954297 2.267311515419332 2.176036397302963 -0.034999913113952626 0.7928636802512216 0.7757840990611156
Ni 4.4296991607942635 7.014340516930961 10.364772266395796 0.6925284362645685 2.2662765129179485 -0.5686136051857626
Ni 7.909484516778741 6.408713566218277 10.99216329552307 -0.7040228100574133 -0.45839426931617827 0.08584990588628441
Ni 8.036849804581012 3.9996159898816788 8.11952708296897 -0.6944475076641523 -0.11221194081958094 -0.35775075006048707
Ni 3.5480837397652234 8.519399462527511 12.45974188705578 -0.21120866850046852 -0.16060370185940728 -0.4302160071097494
Ni 0.5088038407173505 4.763288787359724 10.067152636406947 0.20172618293133 0.476554742275289 0.4715776007756717
Ni 8.913357868465157 2.54230764718169 6.037002662339418 -0.3372986528537223 -0.2398229898030515 -1.0489406700192903
Ni 3.9169696651733865 2.9176847412962874 11.620807948676816 0.5488086546446936 0.48828925710339777 -0.3162785989586295
Ni 1.6575604420923222 3.5782544734161683 12.38393723595602 -0.9021975281920591 0.9157937788192549 0.5911778636395237
Ni 3.2643841616026537 8.627710029288314 7.94257582114641 -0.029825825112180893 -0.11298712842270864 0.25488296945996747
Ni 5.831718769196669 7.799890282714142 3.238185513374734 -0.34807903129867795 0.9881831883252594 0.7210147166297195
Ni 3.3063719176672763 8.68302607565619 3.405462839899317 -0.21290585369723333 -0.3813689037000593 0.4717030706099425
Ni 3.7602347977821147 4.853910236593734 9.410167158311923 -0.33247192088904026 -2.3216678452040593 0.2932392006406627
Ni 5.566263653990194 4.883862473682331 11.380204086230446 -0.490123224988343 -0.18590232852519598 -0.26921121315718155
Ni 8.027663844938946 0.3819529302389419 2.477386856093913 -0.7348652493595667 -0.1798268117550774 -0.6945380104954296
Ni 4.855621792998797 0.3457334834203177 1.1885111404919249 1.8408514994389393 -0.2504303330052525 1.2360614443326197
Ni 6.398080066850654 5.988508260728528 0.14510538786027652 -0.21364144631167722 0.4447445397432276 0.580460991442652
Ni 7.991338791448521 9.517619215663164 11.295099675195733 0.3040234357403603 -1.5183662574489656 -1.032658130809183
Ni 0.14231864628799096 4.878108730873823 6.191222998458996 0.4625828534762292 1.083948810663359 -1.8231291424585119
Ni 7.487340054298149 6.293028740478216 2.384394719158423 -0.028735420261479544 -0.4926421347554548 1.2907290110788288
P 8.774375846764695 2.2984290675071204 3.7003239507885195 -0.2161217895313697 -1.49360139179946 -0.5730284464240066
P 2.3422831483751363 3.277384707062385 1.4425407062922648 -0.7554078493976087 0.437897177804091 -0.44315816909271416
P 4.881058434465527 1.1518592525603193 7.960683723751036 0.5558372793567008 0.13266326669539732 -0.40437333501503264
P 8.968965243582831 2.115165075837378 12.173487719918418 -0.7502646146337724 0.4497815879465028 0.4012193627670832
P 6.949729262639845 7.992931995548977 1.2785754234919464 -0.8770660232317541 0.1301888370129758 -0.9695596596868012
P 2.0674508890345398 3.449123005068248 5.995163301856724 -0.9042017031062816 -0.4680644454160906 -1.3011373508963464
P 7.104734365579191 4.351076814442554 6.105798125799507 -0.5966882519347917 -0.2307608796007832 0.11107217078818289
P 2.802955838016501 8.86802893580129 10.311047603323692 0.9093480231939113 -1.0336359213414197 0.19537838633643126
