# total energy = -340891.77032679605 ev
CRYSTAL
PRIMVEC
9.10039389480588 0.00000000000000 0.00000000000000

0.00000000000000 9.10039389480588 0.00000000000000

0.00000000000000 0.00000000000000 13.31934634695906

PRIMCOORD
 96 1
Ni 6.573560260108312 1.8932914291013818 11.40813991866485 -0.2639803037755454 -0.49604936066479083 -0.11203839135619413
Ni 4.929000794477329 0.2579379218432451 5.736708976732715 -1.2248861444420904 0.9354719739744727 1.5112602425318038
Ni 2.6261734433762816 1.7142866829626895 4.87322903104515 -0.10612356853365593 -0.3451947677723475 0.76444784811269
Ni 3.31038655158358 4.132925645622506 4.7147292922272355 0.43774651115883967 0.37847589842298046 0.27311954707265224
Ni 5.06797290826909 4.610923830215023 2.827124699214418 0.4882162377736173 -0.2757909232572282 -0.8263363580873704
Ni 7.208112519323296 6.292776709657717 2.72315361003496 0.20594047812299368 -0.5191990593083767 -1.1811964168636238
Ni 5.007118574896979 4.936736129211335 11.607570498698216 0.34586171193238496 -0.9724495796400865 0.1360085290185464
Ni 5.3528698367194165 7.6279136855346765 12.42037035128734 1.2661348666792323 1.294738646458854 -0.26999719939358663
Ni 1.670013267102764 6.694058574476508 0.4858454541703198 1.1449495187164476 -0.48528569439038355 -1.3224813637897612
Ni 3.066441395254461 1.5869266716657404 0.24967112411104436 -1.570455007724405 -0.4160592559933931 0.6558575632060963
Ni 0.5903962384351382 0.19402130595584788 4.8855891859107095 -0.5411619367327132 -0.640896828131206 0.3793433886295983
Ni 8.610082787302062 2.3546085918498605 1.3926041426749565 -0.13051768110730427 0.4875978874633279 0.21941485846034472
Ni 7.094166488494492 0.7028716456251002 4.8610954759853255 0.5414596704787901 0.30033056026980537 0.3452976118987989
Ni 0.9112952348162857 7.463897287992346 2.4586715950067464 -0.5489269253901127 0.24231618853855041 1.2304163302317004
Ni 7.502146243153551 3.6644737741311326 3.536166411839113 1.8559541594083326 1.6652050443137967 -0.7559547230400142
Ni 7.611942494407406 3.85407137865851 12.40470675347067 -0.6142067204345294 0.3897856670088448 0.9744573540987348
Ni 7.928699901568029 8.86290992798458 7.002472740596971 0.8205084385516838 -0.1513310183082297 -0.19386992011170484
Ni 6.892328854299777 0.8981733769892709 0.2822059420022715 -0.5929187575900305 -1.1594495121048354 0.6329498053699874
Ni 1.9064232973615818 6.528913728102393 9.377006644682249 -0.34366701827391133 -0.4787772038479045 -0.3735447796699502
Ni -0.04485948122094907 4.938092087888236 1.4189497827395987 -0.8625665440639984 -0.6059874178485305 -0.5718179710556732
Ni 6.421792992627124 2.0767917697796014 6.948490114586797 -0.6639943333806178 -0.24718354393318076 0.9822827636804243
Ni 3.1180679293085936 4.149333655652402 0.3396794790759324 0.6532694907639459 0.6970008702136254 -0.4748236185167951
Ni 6.154696434458817 5.734667758402319 4.751210950911566 -0.43221555403828144 0.43262153122744845 0.7014380800493726
Ni 5.143396972122547 2.563253320610501 9.5896491764413 0.11831008329751884 0.16729319806444093 -1.2352716014414724
P 0.14346315813438792 5.699012415475455 12.651034392897863 -0.724270761673172 0.5292284185199209 -1.1960260256772886
P 3.8189347581785156 6.190679391562649 12.933005544739972 -0.5023405929901412 -0.21198539876549297 0.05102457067698309
P 2.5996548958293495 8.662592059555251 1.5350280358368462 -1.2402258601229543 -0.08055111938119029 -0.9132339885118788
P 6.490255255219976 7.774921447056 5.670178727744605 0.1328509572261712 -0.6204773839345895 0.27079681247674653
P 4.843002073022797 0.8982552805335134 12.544306794434956 0.7475598141080996 -0.09544603421515176 0.05431275450995163
P 4.151517750165533 6.028419370024628 7.859346710421696 -0.2555892514983727 0.7412996921310008 1.212952112008666
P 4.479423139736929 1.4013969431690694 3.8796589559192203 1.1572962132072586 -0.6062524985844592 -0.727981891976172
P 0.18990792795611788 5.525213094593059 3.542040716040055 -0.537304767770152 -0.05242659323083229 0.28344226915489895
Ni 1.5478495806683052 1.1381498515801554 2.577692915460438 -0.8877366155717228 0.9187402630420887 0.1634835945103636
Ni 1.6581463535814192 6.664509595792608 4.7826837528457835 0.99742578996945 -0.6853056932638842 0.3087288116358296
Ni 6.017253186826246 5.690467145692831 9.130611662340902 0.01674739466166793 -0.2467395144172267 0.4453343508084266
Ni 8.928387261409487 2.687673904708528 10.362065121482631 -1.9601267748632047 -1.7064414252557643 -0.29306950783201785
Ni 2.1569753395929223 5.39862661676951 7.060998283194457 1.2829473102508808 -0.8188901862219703 -0.0543484928438935
Ni 0.6373378897586055 -0.1829315660654254 9.216068910364053 -0.5669547294261009 0.3452569884688506 -0.049091101099696104
Ni 1.3892570178335832 0.8830849240610579 11.43800195089563 0.2758546866156282 1.5770935960868453 0.1447055425719121
Ni 3.942909422980112 6.879479098247523 1.7904396883599032 0.2662035366791093 -0.11430918966824184 -0.07940389315062454
Ni 5.718742069244072 7.870657589881574 7.852566917037186 -0.8242375665768127 -0.06915521883942284 -0.278707582683391
Ni 5.723055655907505 3.062883141276818 4.773014584428275 -2.311455166337116 -0.6882107827258211 0.12267170270032421
Ni 0.9064392646820911 7.380792491767712 7.129619802678891 -1.1667439888837197 0.6805715210130086 -0.0319968646215707
Ni 5.326851810831743 4.514923775969112 6.8889926499309695 -0.49004403501097543 -0.25783948098513015 0.0712727794030579
Ni 8.249843698542524 7.006693503243596 9.537890686676999 1.015836945486786 0.386402866579541 -1.1671422527634028
Ni 4.777197125420922 0.09626214558748634 10.385094578044836 -0.1321883839415078 0.31170049266964384 0.19181997956121158
Ni 8.378450463790719 7.24531492919696 4.538793198879492 -0.3945805172943269 0.3955868470716542 1.2514932055066577
Ni 7.49874269587059 5.980287387191504 7.153527447243251 0.03956644943871251 1.6457425647138109 -1.0294028570966787
Ni 2.090378657730037 5.027248645993004 2.5610701361367503 1.403635406862273 0.5211250726864961 0.05435877725653864
Ni 2.4353381852914637 5.12465016088484 11.438814616062391 0.6620166408289566 0.34871126556603815 1.4507585856023208
Ni 0.9973576590274504 3.3791855287472057 3.939822569401554 -0.5038650000544678 -0.41196580265030985 -0.1922465255756689
Ni 3.5762272554068373 2.717441292843742 2.377023771830247 -0.07220197608554661 -0.03764300716375452 0.8345592602177949
Ni 1.30093769595885 3.330989843157449 8.31488148294666 -0.8218641812486298 0.4415656277946137 1.0484372480203106
Ni 3.594064027264073 2.8997130803583255 7.386137153049219 0.42170102766020273 -0.2544829058080714 -0.06867416543794624
Ni 4.044970339499962 7.082062964734225 5.8636685707022576 0.0027654785602791083 -0.5372230066896232 -0.034159676600844395
Ni 0.8009083680045054 7.7003528202201865 11.428998021265249 -0.12766401370859304 -1.923792973429177 0.7075084546131686
P 0.30019378039666594 5.4818133165383855 8.343158226576662 -0.5628630758552307 0.33483399336331365 -1.0649468156395594
P 8.64068741166731 1.6960130922028274 8.33308955087113 0.1188818966405888 -0.49268481506793216 -0.12322500410063293
P 1.8934552361898664 3.066495997617289 10.54436694029677 2.141212141615732 0.18642194847409183 -0.08153379500943378
P 3.8628623590738624 6.121297989195523 3.8698696623034907 -0.3197020228178817 -0.0765931631747068 0.032043401588789974
P 6.617242150370931 3.8766858572632206 10.416767588642758 0.8589261190979336 0.9998881354670135 -0.4866095554081297
P 6.330397737646398 7.724168550807119 10.14607819500035 -0.6477295347823232 -1.3870505059203981 0.7834166759057088
P 2.364637225822653 8.619301486226234 5.963097653333784 0.18827288563990155 0.1965639220041002 0.7172930448037582
P 6.847545816386788 3.856737794043291 1.2822627778321996 1.183470043389149 1.0472033756132093 1.6476348966405172
Ni 5.254813093473641 2.8525548396623064 0.5620794530723953 -1.00148093387543 -0.5753318977462027 -0.9946500269965258
Ni 1.5071071176046082 1.0863140084685137 7.345872460660271 0.007012683872407277 0.1432821798618242 -1.2229745292416745
Ni 7.030090615715512 0.3764068483929905 9.104185938810778 -0.05714379620084352 1.4560843686906086 0.3626055070496272
Ni 2.9425213328156925 1.3435821413277318 9.366244518968797 -0.5835411730298724 0.6798366997295131 0.10282124363330035
Ni 6.425041833215407 1.7395129745893525 2.667305403294821 -0.5686313457975756 -0.008221873689160032 -0.26607318174883204
Ni 4.029526971213365 6.724854307111656 10.369643929443196 0.9294545641357992 1.4878362071809088 0.16766163714745316
Ni 8.2262372770131 7.637560102967671 0.1994141993245204 -0.8191470394277828 -1.7544611476681524 0.3001253862375347
Ni 7.723276712214257 3.9630394940761358 8.250123080632328 0.34478056305306426 -1.6024233331008855 1.105057567617516
Ni 3.074113027231833 8.417245442580207 12.569626820117808 -0.07462498370474245 -0.1910082822931936 -0.08388352618853295
Ni 9.494349852518353 4.903601595368377 10.479701361999245 -1.323788769747275 1.102061718213986 -0.28487154540225773
Ni 8.603748913213982 2.281468726841387 6.195667317407012 1.576712815708659 0.5376788632801192 -0.744429496009234
Ni 3.9363207378655005 2.690495026787989 11.606705051247388 -0.8698090845590246 0.25998738056606835 -0.4130479799708951
Ni 0.8177750378821592 3.5129249161012583 12.563406700952287 1.3224487107796128 -0.5714790996590158 0.5584505486098318
Ni 3.1351584688738434 8.271784748005684 8.117275531871137 0.8660660725768246 -0.061965643069519086 -0.9256799275847155
Ni 5.640633389218226 8.470346240430704 3.570849832707633 -0.2509095866345163 -1.3789826413105992 -0.16446344192512966
Ni 2.7563636771464965 8.579469062543009 3.8357586562052877 1.9617221443747828 -0.5500011322908979 -0.6561360136784636
Ni 3.670853150188236 4.518536632309583 9.505337667998162 -0.32538338947337514 -0.6977434048066048 -1.180921308825366
Ni 7.266254935341603 6.087617431724282 11.464054558279761 0.07928896483931507 0.09428158159340536 0.44192841045067116
Ni 0.46030519895739463 0.2940983366262696 0.45769793613234455 1.8054780050356516 -0.14613790414306443 0.42713402575031595
Ni 4.679522598714944 0.22096666197222067 1.5935262772529175 0.08076863470863509 0.5795976150010921 -0.89440528584115
Ni 6.153085664755383 5.824015424776984 0.39131966372077265 0.05721347309651437 -0.6584057835492467 0.9561444147221598
Ni 7.79548833705465 8.774144686813417 11.453665548712301 -0.07654071267021656 0.27021677160356045 -0.1755904050762266
Ni 0.15327520273462875 4.865143331149662 5.754983477531957 -0.2875537202201112 -0.0769492609625449 0.06958870683241564
Ni 8.082896974195075 -0.22491532284408539 2.604078597257821 -0.0927808286781628 0.560966115942834 -0.3073998084117609
P 8.62168578940307 1.6988797162513116 3.7924444218523785 0.05285545323813477 0.37263563759211954 -1.26766184484672
P 1.5954992426297794 3.0582783420116337 1.390339964696344 0.17352709478929468 0.405453712563405 0.6222427033651284
P 4.839944340704413 1.087506160056931 8.062719581051267 -0.46336755416105363 -1.2904140509415711 -0.22563949921381782
P 8.619201381894383 1.657227213807143 12.437938661527339 -0.8594130860366812 -0.1676338692333113 -0.667865643410566
P 6.380249694908613 7.8549412097808355 1.4373171075556497 -0.0881142764404289 0.2895442682875788 -0.11952724353407156
P 1.800549315837558 3.3171208429990675 6.187515184636751 -0.12904675298873258 -0.30528584739255166 -1.009136650648475
P 7.198020182593869 4.030300504686765 5.940828079654272 0.6256548143704709 0.5644288776804538 0.31486397799929
P 2.540083717983703 8.399672582143307 10.267457427488841 0.1420796749132908 0.8029015241031978 0.7105233301800925
