# total energy = -340857.662794299 ev
CRYSTAL
PRIMVEC
9.41587906607241 0.00000000000000 0.00000000000000

0.00000000000000 9.41587906607241 0.00000000000000

0.00000000000000 0.00000000000000 13.78109078483908

PRIMCOORD
 96 1
Ni 3.0254726416588356 7.101540837035407 9.25298260859593 0.19565066616121143 -0.35824980118409266 -0.06263490122240181
Ni 7.778203580005475 7.98055082405572 7.3886357018429445 -1.8440190985336435 -0.5769082410943871 0.1276714699077608
Ni 2.7201156791390853 5.948688835184323 11.582441933936737 0.2133365134767487 -0.2908953829988345 -1.519122675999016
Ni 6.124389141093005 5.001884517909856 10.922300292614437 -0.8749134956651254 -0.1854917233503386 -1.04171432747418
Ni 8.563318419623787 1.4366183533607264 7.849034531302264 -0.41118932949560144 1.6006032491730111 -0.18995078756295675
Ni 0.33995184429569264 4.690887443748129 9.309691624265609 1.3539861192662617 0.6552461548743425 -1.4708005918548603
Ni 1.4272495535547705 8.36297675784356 10.785715432086562 1.9134915915031692 1.9241896946469634 -0.33181860357575754
Ni 8.82452432456552 8.319249414829631 4.385198100692549 1.782974167506181 -0.21312311191436198 1.8809671365129024
Ni 3.813346333883322 8.981760091359146 10.860533066637462 0.6153922561021982 -2.428615452300908 1.4800118260404833
Ni 3.2550035289651555 5.448875135385577 6.228432723098886 2.777844023822997 0.5561843782834743 -0.6119379790050107
Ni 2.1894367273162945 3.4746289113510076 5.7425808889808145 -0.20096205107179585 -1.381799284823788 -0.2172312205454646
Ni 1.2263523549016289 5.328879170835724 7.062768129657552 -2.0675616060091166 -0.12420845105982478 1.5539004457998336
Ni 7.912737662043163 4.079231930788431 2.425017317009877 1.3833141788064178 -0.3356390057631123 -2.0671373739875043
Ni 2.0129643193130518 4.48416181586897 13.411399258709132 1.1636365536029896 0.2852261005281991 1.4125550779494058
Ni 0.8435949821658796 0.5012637451958502 3.3086881642351633 1.0740824593922405 1.4521557230601636 0.5827593005585254
Ni 5.480625480054604 3.7331795383577857 2.480183070078354 -0.3446718053893419 -0.2413566528387585 0.3230015195047598
Ni 8.826501659197932 2.5271748984116047 13.805897291221815 -1.8465081835040844 0.9595986918193474 0.47475625561396945
Ni 4.7265547941651755 3.577167835860415 5.580005377091752 0.7538433331239662 0.3878347139300611 0.5754745939716541
Ni 1.8596267265090392 0.35173581711695284 6.234662268778907 -2.401190523320736 2.6815415551448205 0.06497203399601069
Ni 4.04952483190623 8.108776267028091 2.53629982694623 1.1055885004203216 0.3056967096777251 0.5771488963502834
Ni 0.1802622993820338 5.691720075883476 12.78841173512987 -1.0351006788124044 -0.14114687868637626 -2.5601518044807134
Ni 5.960825903475657 2.9095160892866274 0.23124834367275832 2.1810231029650824 -0.5315316127318007 -0.2833121713349379
Ni 0.8632393309449408 7.733233340936888 1.8688260404893597 -0.4875557213714829 -0.9715921167357975 0.4469497749246625
Ni 6.8154487633628795 0.4280788240985711 6.3236602174079675 -0.708508870853225 0.631117894367571 0.06793343061717978
P 0.9075683486398755 6.3690984256728935 5.247839523308165 0.11819849742031902 0.5050456506261303 -0.671906646249159
P 0.40102511997548307 1.9695665320711915 1.7954141967033133 0.24530355330164852 -0.014252910374588357 -0.550037384845472
P 4.825704002161875 6.643269996275733 11.16889934415016 -1.4018106949487084 0.6273016059452745 0.7863454195167296
P 6.840024208080011 8.634681368095485 3.5547222630187685 -1.1359660842709147 -1.2899327404297785 0.5628713033853466
P 9.089524828825644 -0.13132891675733788 6.4198518977473285 0.07160522304181217 0.821114961787431 -1.1664814792509524
P 5.071618519279615 2.1844274795808487 6.9869025077514735 0.5009550254965244 -1.6303599116101535 1.6505312443517057
P 1.607893196044484 2.7310192672549625 3.6848158164248086 -1.6671760519972387 -1.5287848816791285 2.5486270916705656
P 2.6679611242393975 8.471475933887811 1.1025495503904221 -0.7252282404904349 -0.022299691938464823 -0.6240992969578929
Ni 1.8281776899744735 8.006444491861126 4.07940989090535 0.3596394824427677 -1.4243369010756823 -0.1424475997756708
Ni 3.8626949567808246 6.74633621002045 13.4559815635546 1.7746129400256794 0.45140652514443547 0.8500663547144586
Ni 7.737395159544156 6.7023263906304615 2.509122774805596 0.6952208954950672 0.139246833450186 -0.20666450077321183
Ni 3.2218125547782264 0.08155657929574678 13.160128989501315 1.0065038410113183 -1.1285134846476113 -0.5367499237079466
Ni 4.527201799701156 3.8771577472350445 12.287992594298437 -0.9358491548082335 0.13889202121392855 -0.4558787019831762
Ni 3.4262030446152973 5.796707128985394 2.312742373405637 1.9786549155743793 1.1267322243774724 -1.416926210433908
Ni 9.01425429048513 1.7155826064773667 5.14176681933426 0.29624224913304464 -0.1828339740125174 0.3611129816645007
Ni 9.218202233999708 6.981761437707201 10.567878125161164 -1.3435883209717054 -0.8085625790437172 -0.7492857956602709
Ni 4.829329115654632 8.732135717835831 8.247045628345196 1.2268152431440031 -3.391796976375507 1.593242695042882
Ni 7.0657699119471395 2.9376319045836974 6.166321817531038 0.5344744974102086 0.25401136548829156 -0.31086231303906464
Ni 1.6451518300466625 7.407359177636054 13.133848329060708 0.12941930583680292 0.9549323966919296 0.7589264040738284
Ni 8.483424684595107 2.799595115482879 9.878465340163713 -1.0914839426981395 -0.6610614760045389 0.5569019731757893
Ni 2.760538048553125 3.606809023588203 2.3337313097347394 1.4523179596696407 1.8726658157360587 -1.6815798861273945
Ni 4.246194300797689 0.3426316035165721 6.546610346740033 -1.0005918464022574 1.4487983765521566 -1.9673320343623921
Ni 7.087351107078045 5.397859901869325 6.501918817695823 -0.8061493416165343 -2.423413082164362 0.3600153777249477
Ni 7.231640039968968 6.889306919823099 5.064729862055457 -0.41805366071560257 1.6527501063798955 -1.623086774987508
Ni 1.5255889959401012 3.7334243512170366 11.150735171581648 0.21132359681177798 -0.48771821509127616 0.34880716771395415
Ni 5.955986141565846 3.409762919528665 8.412170960322152 0.3586470366225114 -0.08587047471157469 0.6130715783888216
Ni 8.093466047445693 0.15161354532213275 10.160591445516374 0.8146483802264809 -0.24113939462162987 0.5631212146126238
Ni 6.0254847459555565 8.697617104681425 0.7211781950732022 0.2194757936052672 -1.7486437696554273 -0.605564214268183
Ni 2.409382249595013 2.102358676456515 13.279914038357042 -0.7147697641612722 1.6384280333302688 -0.46648784495759016
Ni 7.411718729706564 5.636703093706389 0.16757534374530514 0.22706800413022832 -2.625112011402182 0.22999057709366197
Ni 7.547241479060458 -0.017407135880674135 12.81201828587712 -1.0489535255350966 1.845693658022589 -0.8379196920495957
Ni 8.361809188822518 9.201997505893125 2.3455972007050563 -0.9113635109620434 1.431162151527632 -2.935105805793364
P 3.9696216809983484 3.443886065756589 0.47696512732725727 -1.6200968391212485 -0.2004534868664935 1.2958334221849297
P 5.305292393434799 0.21311995144521362 12.404994309262063 0.9325216330968973 -0.5326045340810053 0.556727652381454
P 2.6808702946252927 4.763455624757679 8.69002508128088 -2.454327769465347 1.3256466488916203 -2.3540930556123008
P 5.829323734541003 6.408692197717159 1.2621976654355924 -1.5074794353331329 1.0110850326240974 0.17633551077236728
P 2.5971537126406146 9.020421691362417 8.182260613083992 0.4171002956633978 0.4446429811683568 1.3626754195101434
P 5.270463056266728 6.755742673343214 6.017127211575891 -0.768258994328664 -0.8962402821673597 1.1880574056495152
P 0.4011738908668741 5.622485116111421 1.0081845506162412 -0.21011646387755428 0.029981633963754816 2.4255959487482937
P 3.327618789370716 2.069826813813723 11.230789918144682 -0.8298896226562675 0.7009187172107929 -0.36571834164699596
Ni 2.6739967028078575 7.759475396272767 6.353151692656444 1.1360290762983662 -2.2679317891331845 0.31521519069112164
Ni 6.198002484693974 7.410136862000633 9.771220359229162 0.704754031796483 0.2952130365375819 -0.4304000980960974
Ni 2.5987355803465446 1.3637206165791074 1.8371434901505854 0.08515056582641464 -1.5705820202205727 -0.8706508637340296
Ni 0.4140190332741958 9.045863396966128 8.526002348758476 0.9936303274827596 -1.190532349552569 0.24435353068355337
Ni 1.1909768967398433 1.7644039401395593 9.723000700247976 0.495583733882282 -0.8828502340136989 0.1788096833444727
Ni 0.29102222802267746 4.2647624145839655 4.483498937973152 -2.0508473785782293 -0.8890944151511979 1.2186684456671528
Ni 8.310050100849312 4.949117930862041 10.950579002621701 -0.08530406068514342 -1.287554984226221 1.9353950764444796
Ni 8.398107403146094 7.663094456761445 0.32527625497150875 0.34321141879373146 -0.2981860031229768 0.4482306985196152
Ni 5.061044486935808 8.514845473492066 4.741191778384631 1.0550508966820864 -0.6280099448662088 0.10674757527090002
Ni 0.45140289846976056 0.1527048457216406 0.28657604986350926 1.2347501817203639 0.9885871086318974 0.6485602582137346
Ni 6.575532161296791 1.2755314919734961 4.110196991132017 -0.16143879616619292 0.8380857853138147 -0.9313723499838025
Ni 7.127801724129689 6.98453912207178 12.081399730316024 -0.30564374495260266 0.5900820594721836 -0.5520436166422235
Ni 7.369488511485748 5.293644950861968 8.681425558805724 0.9148836083001599 0.37868544333062526 1.5952818369600976
Ni 5.588540871588335 6.190771089466864 3.4750262614533303 0.2701021004025671 0.1403809470546292 0.21734229220203216
Ni 4.006014054113947 1.0759054370126198 9.37320926218623 -0.8095267427291993 2.742757978753141 -0.863055824995591
Ni 1.4759673125457415 5.668415774858611 3.2262775646957986 -1.26338687162045 0.7240239357696886 -1.0432608460256936
Ni 6.312396001118655 0.9660503743632848 8.933619525763255 0.731462651435921 0.04807705801288495 -0.7671637043819562
Ni 0.23267108302017536 1.4952886966681753 12.025214237529976 0.2777583313962442 -0.7505955156106299 -1.969198655257486
Ni 2.6758233833730385 2.472873523053868 7.975668690689501 0.42538644693159 0.8879204494477547 -0.8627812311779657
Ni 4.928723136510583 5.592401382061141 8.457455689756085 -0.1100460435165137 1.2090820875302983 -0.995908324883659
Ni 5.779560812958613 2.5351219004580643 10.641620466307199 0.297290745002217 -0.9894839094145539 0.7012933269413921
Ni 5.150241110616029 1.0484581491388894 1.7060301970269725 -2.037487926552188 0.8254804378449784 0.5200855756783882
Ni 3.98289807067312 1.9985203606172364 3.7625410744732752 -0.3141348131427493 -0.5276968123667428 0.7387938949900116
Ni 4.008452766827255 4.018800818070216 9.878189454903096 0.9512012117842714 -1.8671842237961973 2.4620220527858114
P 8.860097516190546 3.7258916478554642 7.406385575726571 -0.5528303742095769 -0.24593810156185383 0.3498479502736426
P 4.178315227630717 4.6782136703422825 4.010448933218072 -2.063151135646247 0.9081627446365584 -1.6490412900697407
P 7.132763892469126 3.3499626707169803 12.188493115595422 0.5111327373604745 0.4115590541301944 -0.39164971680077715
P 9.295817326261513 8.384105990772772 12.254518202147528 -0.2620938853861099 0.4947812925856446 -0.65010266300019
P 7.07951709558201 1.7003006345325762 1.8251542511627223 1.060798854909457 0.9693837962305691 0.11678464779192789
P 3.2043460988585797 0.08647825935461428 4.567232468540393 0.047144776006602676 0.7949298187516309 -0.9852966108060837
P 9.019075220636536 6.746910578651771 8.3972731562488 1.5947339348764278 -1.1470565377571211 0.5829799012097637
P 7.218890939529507 4.206063823638911 4.294491169988333 -0.38574106462582597 0.5401396661157859 2.2485950364777856
