# total energy = -381175.7547670881 ev
CRYSTAL
PRIMVEC
9.16856224029189 0.00000000000000 0.00000000000000
0.00000000000000 9.16856224029189 0.00000000000000
0.00000000000000 0.00000000000000 13.41911761115056
PRIMCOORD
 96 1
Ni 4.097659756292577 3.8817126057864315 8.889964641507902 0.19545269121779243 -0.07882590915996747 -1.5829850218706158
Ni 6.590866933176037 2.8175267351076303 12.980312469276358 -0.5741093381930112 1.1945898074513943 1.7760586713332702
Ni 7.754109952161567 0.6341839609484897 12.550538856750121 0.4140000594715193 -1.3002222952812446 1.4718483163930844
Ni 3.973040655979261 8.463426614657106 6.723460849075912 -0.8744866925403519 0.08251209976230306 0.45725372795383185
Ni 8.650181062441238 6.635536169250674 1.7982017234578922 -0.10838716775685205 0.22355124922622144 0.48499978771884855
Ni 0.31818670682632033 5.5075646098667725 7.995324743820851 -0.7695741135956617 -1.0661364650722864 0.08129905329080837
Ni 4.320905082479226 1.6275940309387524 7.62340109269374 -0.09845525335512076 0.05705200781798561 -0.37002185411835625
Ni 3.946726881854833 3.5256789901767576 6.354704019406146 1.233271026071676 0.9216972887878836 0.2829768994827062
Ni 3.2803007543258693 6.2929803403876585 9.597701560699734 -0.8459363917064849 -0.6420476539061974 0.21974730209909898
Ni 0.27907728699873935 6.930773047501784 6.112877684633934 0.6714340774881147 -0.15605027816076997 0.3451184060084572
Ni 4.837498563059969 4.708185158791355 12.783440512869818 0.6656596368981825 -0.4844652553716173 -0.2722697974778472
Ni 1.6811934468033525 9.129944427810196 5.606199087446276 0.5953525638425037 -1.3098590470400602 0.8359810802659862
Ni 0.5825933771085106 1.851077739748131 10.10723891564767 -0.17966817469002608 -0.27030804576578604 1.9646382895803136
Ni 7.765754026425687 3.2646775239746413 4.244896783221764 0.47729881953016506 -0.4457799229862774 -0.9024304701384716
Ni -0.005599241065431284 4.322637940775224 2.3331414974264337 0.058144726661532115 -0.7242057127631915 -0.013603706826363669
Ni 6.958865522734274 6.868967768277825 7.32274559405673 -0.2859930606012107 0.6142810253158905 -1.8177987313845339
Ni 4.856486655816655 0.972628606425654 9.75340392130456 -0.7156207993076578 -0.10857100163288398 0.38913209258524595
Ni 5.991985604941378 8.987996744536893 5.771911684493279 0.6769406091286406 -0.8220266749684231 -0.7097440288119068
Ni 8.77523108518795 8.163046172892475 10.882045702600829 -0.43349287808880826 0.10575230123716625 0.35712417222008175
Ni 4.043510226683215 8.447354124747656 11.11286792876533 -0.351932086496181 -2.4051631348152385 -2.075448207846045
Ni 7.96565619270962 5.11292217793725 0.26024322609058653 -1.8359733454110316 -0.5179050230873016 -0.8590356480926044
Ni 4.233051917440806 2.238046084938229 0.2987502713676536 0.8280615683085933 0.03543057289346801 0.18956152254433806
Ni 1.8468877067255307 6.4176177778258 3.482126485003986 -0.027383019998643163 -1.0661804309363445 -1.1797931087581939
Ni 7.508575850749663 2.2237431275744286 11.082621758222096 0.5203288020374458 -0.1542037118703344 -1.64042166672153
P 1.0241559271849856 1.8942983429615634 12.73815148197608 -0.09972820653027341 0.15659972290633675 -0.8524970756431384
Ni 7.906628987896706 8.786700956766229 1.7753765873314944 2.064301961421238 0.8841057036873547 1.4967358236633836
P 4.579843622138486 1.7241573302692292 5.447544449744564 1.5331673270175403 -0.5351980058397944 -0.4618827420854109
Ni 1.9879001966327408 7.572297359517876 7.860302075737853 -1.0654489520869586 -1.2374842928220755 -0.2790063448707324
P 2.5987281616911373 7.0561898127450045 5.370331401386073 -0.17978336011165166 0.4467430582304951 1.340860123407265
P 1.8973331371201645 4.268781805163068 9.098832744975207 -0.6827603011342113 0.8329433218809269 -0.10301767591482258
P 7.158382609396875 3.3862343244421185 1.7814956858857254 -0.8059853052348442 0.5791150189377188 0.6071446713814254
Ni 6.762988355349512 7.00226949719596 11.988465639177457 0.013218812683119169 -1.1083938310796009 0.6894770510327545
Ni 6.317872987338119 0.46729870476890284 7.908087706176564 1.1100084838648883 -0.8145365372389649 1.5060432171072384
Ni 8.321121357449707 8.91855405282316 6.354153905661383 -0.3111603038954577 0.8723166814722267 -1.0314309432703008
Ni 8.772425505089668 2.709218507326494 8.077450307920062 -0.5697009247126705 0.5041892161631059 -0.5005935283920475
Ni 6.999922345218311 4.870972984428709 8.393094572389343 -0.24472711197288818 -1.6148541026650702 -0.9013061267260413
Ni 6.235676825308331 7.934712294566783 3.53168348170083 -0.02877938612553753 0.5371798121565136 -1.717284281507539
Ni 7.498664634781543 6.405396084129681 9.845177563630648 -0.1938148985040533 -0.09828813164963718 0.5091617296770328
Ni 5.270758979871751 3.4958444880858566 4.184442950097435 -0.3897668979557674 -0.22530217047905715 -0.04863910116394204
Ni 8.55418621398035 7.962089621931082 8.500232891606618 1.354054767720668 0.4455508376946069 0.4922590403844232
Ni 7.005001728794943 1.9630533924943439 6.206127465508464 -0.2523910562760492 0.6653361921204929 0.39639905856030444
Ni 4.158841573272474 9.141808547572221 4.281959779918831 -1.1268949752075816 -0.8101980577646111 -0.6500162739339709
Ni 0.2802811192435259 1.7909778131329321 5.696885338270217 -0.4319497019714045 0.36595539735846655 -0.45404036322285674
Ni 2.9969096587119584 4.029115583695288 11.082849138569932 -0.5325723952914893 0.7780968063546922 -0.23295917280368267
Ni 4.303209757022729 6.460297435856883 3.012739181717472 -0.0019442682105643935 0.6037878390940504 -0.7941420327430129
Ni 3.493790730105413 8.528165833853128 13.327089504274175 -0.1838603583945027 0.8248595164315279 1.6251711683203625
Ni 5.183125860331237 0.6953795307720055 12.26468416841592 2.4702539537773003 1.5246628890909548 0.6020986243170856
Ni 6.363486585341263 1.2097367989802936 1.303686141166912 -0.9085964897398674 1.754643695992604 0.9025441128982006
Ni 6.364540970018723 1.3731755925489493 3.899796678289226 -0.25581730834877875 -0.7718670233948965 -1.0706469513481303
Ni 5.010408481600936 4.274787213543382 1.8925517318219454 -0.43696823823191844 -0.7650654270920308 -0.44538011644469744
Ni 1.7540285066097814 0.3259002183841185 3.318144912540499 -0.013591879751821754 -1.0829003147941867 -0.45620291809181435
Ni 1.7765740015825922 8.850679185281997 10.341376493980597 0.8078958919939958 -0.48880399195628715 -0.876763918610303
Ni 4.066000710281549 1.7724298113720551 2.5830728413714654 0.04527404134645106 -0.5646877877687952 0.15494316113952022
Ni 2.5212263036166482 3.6716058295371705 -0.05218195611559785 -0.4323947599286231 -0.44648286259057296 0.4188643295423561
Ni 0.09049646158199837 7.74247504645986 3.814236570710221 -1.8010888748290208 1.5180950060654501 0.1051177529769609
Ni 1.6740969794959286 2.5475125720538374 2.747806235952793 -0.29914013950612994 1.6884850978876598 -0.7392962885477268
P 2.4385717134662257 4.571335196219507 2.265267546741513 0.4293071221422348 -0.01815147409804616 0.10555149808026983
Ni 4.816374195261125 6.7227567034826174 5.376544019276914 1.5476773477082573 0.013612448577112041 -0.5330161676971272
P 4.592285361332509 6.815129969790494 12.583146848970863 0.6439052759402265 0.34071719161696806 -0.616315796357732
Ni 1.7915187583152807 1.0309314948079653 1.057450644730437 1.6388211550036293 -0.7241072395121142 -0.17875466173682117
P 8.428751111612304 0.6749913985349012 4.10633046576626 0.22111564320153532 -0.3580348569598092 -0.09943972875557713
P 3.7913655917717595 8.622510341079733 2.0800433320240588 -0.5955502816756066 0.21469662704906894 0.43562715082299164
P 7.171814553331468 6.995613120884346 5.0824376247712895 1.2334106369733338 -1.097001272971943 1.1728138492268834
Ni 6.55995970928285 2.6914223276834583 9.081267613104972 -0.7427163699728693 -0.33947483456943467 -1.2382342836142224
Ni 2.3708435429236663 6.807758445610689 11.984641431795124 -0.5329269504174305 -0.3726868025450291 -0.22873227920652864
Ni 2.3868151786465766 5.250432277002813 6.749668267876353 -0.5776194082287988 0.7245983202159199 0.9697941442951105
Ni 8.765814971590116 2.0282327026861746 1.1148577645650284 -0.07900408660904458 0.14336188405982406 -0.2724068372763438
Ni 1.1736401687615234 3.9462867908590242 4.672939371164482 1.9023635999108075 -0.9643421200416038 0.26001412003894575
Ni 3.4216983238544123 4.996041344300247 4.72331512048478 -0.3167028309802417 -0.44661450307243084 -1.765166964121431
Ni 0.9316726381281567 0.782893459001155 7.9207687448495605 0.28525541110423774 -1.4482584448882865 0.3124743947211909
Ni 8.768666394500464 4.01945191891231 10.090680491930348 0.09364523356098711 1.2343238928162226 -0.8669358767762876
Ni 8.825153907525062 5.360730082827502 4.455938752837119 -2.18642859025137 2.986330922516928 0.37499796717670897
Ni 2.584599407013178 2.1736094283018264 4.792141684804379 0.9589530878155486 -0.9842496575988081 0.2567717018422481
Ni 5.119844442558834 2.9217732897399435 10.991532090651997 -0.22878138727690922 -0.07031375792389827 0.8500445003375877
Ni 3.2704628868570507 5.98685120999027 0.7040639930893078 1.1567719652726725 0.10095153741441323 0.9976507614960624
Ni 2.694154559282441 2.200033225175206 9.394576644727739 0.11899271118684022 -1.258988228332122 0.17428659866313853
Ni 6.614384295764593 8.78387703954312 10.462913123610766 -0.7206899863004492 0.1330656443401386 -0.4619454770025464
Ni 0.1319997930555333 3.7520966389581982 12.369729304834378 0.4100228199913261 -0.5933746141805265 -0.18478981218730756
Ni 6.247953530378926 8.33291212871243 0.4403009558884886 -1.8272660474450206 0.5417856863596412 -1.3270851811103594
Ni 6.711351011841228 5.380515840514093 3.323230714110819 -0.1658631504861337 0.07583185952865004 0.449386152280297
Ni 5.093613185496121 7.492164124030944 8.743440928734422 0.3736581653193629 1.1675086349638861 0.9060516118308267
Ni 3.035903554653139 1.5415562412580464 11.750920106195732 -1.0153484358861415 -0.1768242774833277 -0.12721278510378736
Ni 6.437476884011692 4.323527291329255 6.071506380459143 0.6781675395572063 1.127769150282419 0.2826894501492745
Ni 1.0989989021597941 5.422947947360034 0.44685281058859866 -0.4323029715457652 0.4304183529285426 -0.08454892768667374
Ni 1.570006290424631 7.688426371037038 1.2069238840320797 0.041759600435289375 0.6254959201951035 0.9503812869861374
Ni 0.9832916445116152 8.862066539798562 12.586877537016587 0.5115078613117062 0.5614978200765878 0.6820982420701802
Ni 4.8130551756677304 5.63668547432472 7.457903040007194 -0.20866584747395675 -0.6486805858416829 0.0906666105486374
Ni 5.348856794503066 5.134862547790823 10.203749954172395 1.2460722916014024 1.3471310440176412 1.2733635232171876
P 8.852045301081489 3.850401965147087 6.257213778415745 -0.9766643890523824 1.0949893847482368 -0.035830122324731845
Ni 0.7213302298248903 6.257479666725714 10.219597814302734 0.9648527411294351 -0.25835318739675506 -0.026590348894018723
P 8.074807928232724 0.8014176224997588 9.303528235688496 -0.3060996015430987 0.12132830129855234 -0.4863825269989882
Ni 6.202706674872289 6.362340515039677 1.2462496819326 -0.7578447409738754 -1.197834282530621 0.27320336503571013
P 7.223662773775245 4.487525367205086 11.567400327230798 -0.9439010785784324 0.42917548166037695 -0.14304152460592787
P 9.10410741893123 6.937511940875113 12.711084968877573 0.16006377019553725 -0.3140414820979946 0.27274133779762705
P 3.023030893025719 0.03415931298096829 8.580573336604077 0.9717245285486038 1.0294540220495885 0.6364727309215813
Ni 1.9339248697092202 2.78681205102511 7.169083238588728 -0.3579132437802804 0.7257686863749371 0.2854464440691213
