# total energy = -340875.07206367207 ev
CRYSTAL
PRIMVEC
9.20159062417952 0.00000000000000 0.00000000000000
0.00000000000000 9.20159062417952 0.00000000000000
0.00000000000000 0.00000000000000 13.46745798952128
PRIMCOORD
 96 1
Ni 2.4857728615330825 2.1453692233538946 11.300974753909857 -1.054642605500074 -1.0186677300673619 -0.21961206207281533
Ni 8.939151916923802 5.051240698204564 9.363102316015887 0.7099592301465063 0.12433417800441168 2.333811679655445
Ni 5.78642937429368 2.687931804356155 0.24898399645247893 -0.7385254718199733 -0.4440320870572353 -0.26734382093113956
Ni 6.509030274607558 6.380217209492392 8.171662897776342 1.5305322033875384 0.4224530753348789 0.04108005786976151
Ni 4.468172715913857 2.45240789445632 9.775718195955973 0.5020991664032965 -0.08889126381576948 -0.29956180042458086
Ni 3.9685263529055343 8.116520526512991 0.9061542271884643 -1.0038808015661744 -0.7696070237161262 0.2803273776750011
Ni 7.412350411928498 2.289705371607091 3.8181990490914774 0.5729582553077036 -0.20152949353949162 1.534008334861597
Ni 1.372914105824932 4.340666276646705 5.8718118525071334 -2.446837117515257 -1.1008067627609623 0.6736449690965043
Ni 0.28107914404314244 5.770022938469667 4.2597704939508 0.9193598989039586 0.5467579427632518 -0.2934358900325011
Ni 6.985286194618327 6.376665395567507 12.716983588584018 0.9886948378543553 0.9373792182995146 -1.2569197758388675
Ni 3.3530779737193157 7.152212247497406 11.122396727007251 0.7830986304446578 -0.4153776565453362 -0.5237864215687431
Ni 2.51962551290523 4.38997760002353 12.10398559294235 -0.04523624612998016 2.490856203408684 1.874020272881424
Ni 6.415827364646024 8.287449271250422 0.46406289246708 0.7556379631305439 -0.6497177688569455 1.4246911990913076
Ni 4.398765118930951 8.929895116901953 8.653151762292504 0.6204066785976541 -0.1009404816708197 0.9790655422947074
Ni 3.439131247878686 4.13861775290938 1.7547966735652414 0.22834327129822607 -0.7252410960062412 -0.1293776539655901
Ni 8.432033862446552 6.912363590072453 1.3376122039523457 -0.5353584426770587 -1.2970027599026823 0.3654190652390223
Ni 5.096457313818245 4.685928354598793 10.360165496659477 0.18458129572092727 0.7069127300106987 -0.0008554060217598171
Ni 2.6526989144121615 4.75567641042942 4.025624982304715 0.9207027860850981 0.3355721570809188 -0.4987420770056055
Ni 7.944009108213174 2.4063079261566576 1.4662154728045909 0.002581387573931038 -0.5810739424363025 -0.227855275918214
Ni 0.37986649926636623 1.1491130221953108 4.011538267440454 -0.044103675187433716 -0.23745114713676527 0.9264276043840175
Ni 1.447244553714089 8.317244021221343 5.045866049205795 -0.5909300092947758 -1.940852242904309 0.3794094659808433
Ni 4.803662704777273 0.558110508434584 13.029549655087163 -0.4284712565045008 1.5240756491289171 0.18840992543839813
Ni 8.258151407165368 8.545103006252193 3.881509672223015 -0.9315975786207311 -0.89512519472631 0.006018952500570279
Ni 0.04623523167970386 0.5102180703096167 7.762426762019184 0.12645276700931127 -0.024018217291468313 0.1182182949146609
P 4.231599824699419 3.121197893649155 12.09147419036809 1.9412523065562053 -1.0094575243230035 -0.6600016672814568
P 4.134927915127312 3.1089321735406816 3.8524602510808923 1.1234173010716266 0.2829789563652352 0.18004304153094153
P 7.602013594881123 8.398033985626741 9.136632771147363 -1.124180404489896 0.7477253931516864 0.3429409387411642
P 5.704976895373796 2.4563093688194058 7.59988802748048 0.4560332252831694 -0.6295731755882706 0.3213686118870272
P 7.469979973098316 0.5789594721418447 5.572941433272893 0.5325222587798442 0.20043626047531285 -1.8049961803032268
P 0.7992584304351681 7.478592661786636 3.038043120490661 -0.17759149466665544 0.03222672124418966 -0.8857429821804618
P 2.7546157305572843 5.861551158964028 0.3537717088270421 -0.004559337235908277 -0.21136807689646825 1.2310025417524735
P 8.833793705939541 8.03322772949731 12.892208555916085 0.039509628058848084 -1.2278963920233241 -0.11067853489419002
Ni 5.137892075745069 4.973625282514414 12.759756261766483 -1.4150377351619436 0.47726051009306186 0.4646446211012643
Ni 6.105393306656856 7.895185469131734 5.069501254510089 -0.6416542751225207 0.9825522152917271 0.04263557528233947
Ni 0.4272730934140436 5.704029131554462 12.832601572952335 0.22730737383454402 -0.21145806550711324 0.0715561149714316
Ni 3.829619143034933 2.7582227540250424 6.533548832597834 -1.1055098246635864 -0.7811872723545579 -1.0585843637566414
Ni 5.81091480655823 3.526261108124097 2.553806661057477 -0.5540747881396393 -2.7638816481056336 0.06652549452605962
Ni 4.625887976723483 7.277915175030679 6.895499835201637 0.6912675672742741 -0.9860517438045535 0.584258253701555
Ni 7.555499555009906 4.253048732105909 13.291451764413075 1.769488731425236 -0.8551126588891144 -0.07275836280964888
Ni 4.0848712629216894 9.323051473297104 6.352451410222087 0.1261321504450989 1.7112879547147883 -1.1021331948818696
Ni 2.149215488174106 3.9524695775197234 9.95790600680348 -0.06913979222045512 0.6493040783582947 -1.8427268620847814
Ni 0.31463826467901085 2.94579717593894 8.52075283736768 -0.41283303574661157 -0.3943804854683789 0.2653414457891301
Ni 0.23583492365802416 1.0157359682025733 12.711569372746188 0.5090434589316136 1.122828261337376 0.883954265711155
Ni 6.565159976529303 7.111486008037464 2.825755066868333 -0.9741814747295288 -0.4686905090358638 -0.8526770528644284
Ni 2.5172607041521333 1.8821577277028252 8.352328765558626 -0.20450991632405424 -3.613837702494473 0.7042045870509163
Ni 1.3867993058577046 8.248452930800529 10.341445780989051 -0.40818576678258733 0.717686423587435 -1.3857898940404199
Ni 5.825830584724648 3.4363247627825992 5.520311096210302 -1.1244876513176698 -1.3389078847769005 0.6021060805162534
Ni 7.354766858711075 1.6697114067242589 9.34529815859812 -0.09248000960829234 -1.2550266725812127 -1.6509279655694922
Ni 7.908647396002474 0.26557814472226177 11.161209955806616 -0.8855614622972748 -1.5063021271955799 0.16885591456587049
Ni 8.030706493706072 2.5233889634111306 6.689326238452587 -1.0859789537195104 -0.8796741502785625 -0.3865249939797021
Ni 6.4841215691809735 0.5200499697364012 2.4278994582155713 0.4757456161104322 -0.5107239319578301 -0.8284929994190571
Ni -0.11436472774507997 7.150307518268258 8.364704904752847 0.8276717890693424 0.30424377928128243 -1.2422428905529832
Ni 2.23837889991537 8.35092184237439 7.752918758577259 -0.7901449957684779 -0.18899073764253257 -0.42249575564735625
Ni 6.912998499815503 3.855263975699836 8.750683100415348 -0.48553457717639614 0.08871437191827301 0.9561043055128435
Ni 5.457766965565663 0.6112312902697046 10.918337655750271 0.07394595535984683 -0.5949962089443495 -1.272740287810892
Ni 7.736172784064574 4.417922830308177 5.077231510671475 1.501841520321065 0.4733927996075395 -0.682411916655857
P 3.119063124658033 0.46305439815058436 10.180805334566159 0.6386226873850486 -1.0468855872624745 0.10418598519131089
P 2.3655816866967156 0.5400836725272248 0.9238774106100174 -0.10078313015734901 0.15138578280556508 0.7339404235524521
P 5.047762497003512 7.4396147245177 12.522379151544184 -0.5427783892902136 0.07155354386827031 -0.6272057037973585
P 6.31777521650207 5.8633086627455135 6.050026416585818 0.02239019476974208 -0.16148996111910255 -0.20092631273785397
P 1.2514991194548613 6.615308644639715 6.4995701194361235 -0.8119505216793436 -0.24344567415730328 -0.07588842379819834
P 0.32061101705891326 1.383357911018568 10.22105953243453 0.015314004649251046 0.6634387179874639 -0.2935425908136945
P 0.18994935241652133 3.3600343761214204 3.7808139071344518 0.9036345177489018 0.6875530945371643 1.3044592161807276
P 2.0504272127918344 0.727135444101917 6.181967102304788 -0.26525531383322704 2.2515343216117674 0.7683978338993733
Ni 2.334231867934849 2.3282784388949525 4.528122918202473 -0.5642162474490153 -0.6753272418949336 0.5190779603494803
Ni 6.471920260205853 0.23817304779873164 7.392435409654853 -0.3928869316419879 -0.28823069168247784 0.5507583221718966
Ni 8.213799741056711 7.038232146234348 5.838654841375196 0.6751922589789663 0.040536012440833415 0.7609953707877152
Ni 7.2428295105343485 2.644021814590488 11.391476076906764 -1.6631916134281937 0.40406094598093634 0.9547200235708073
Ni 4.272758538911873 1.3233543395051743 2.0858533361358864 -0.9506180855872918 1.0532632086540443 -0.4116004488910911
Ni 5.816168914721725 7.280850482393471 10.439716926986405 0.3667568102138393 0.25927929875545025 -0.09202312457653183
Ni 4.650115764454623 4.5371846445061665 7.869278391138181 1.1157042486980848 -0.8632671696754488 0.7584355804803389
Ni 2.514647452456105 9.029299898846316 3.0315513984077445 -0.99388666646794 0.03677140319207861 -0.4346568164899224
Ni 3.2175109411925824 5.480200443153404 6.4610798664625735 -0.6742682045028 0.023338160505308195 -0.721421465149835
Ni 1.4517809378202233 7.579524907750509 0.8288627074831731 0.6343819098308235 0.7492832245571095 0.007008827217665349
Ni 3.7800225703532604 6.887427279874431 4.786590073802583 -0.28350628962361496 1.1672278704986736 -1.6016682001024158
Ni 8.664870907926526 0.038601592218346505 1.5698345831883243 0.9760141570628933 0.5285475904028122 -0.22313884427915115
Ni 8.518786457482324 7.129033441080869 10.76479531622286 -0.22107733376443214 -1.0263036493460647 0.7639994477213617
Ni 3.9764949302603263 6.25047478373885 2.4507672508739193 0.4878629681992566 0.7526056040621233 -0.1068380781021773
Ni 2.085384055021459 6.026958949414077 8.565652918268885 0.6944490503260492 -0.17465066687077663 0.6689511631652608
Ni 0.23137307243476937 3.312756604240449 11.525517485732083 0.8309856839339237 0.44193303843636145 0.22086136109888413
Ni 1.1380803152110202 5.117114884443544 1.9842686974070547 -0.07758200945053735 -0.07297304992361626 -0.5620354377476127
Ni 7.940889769040801 4.5488890675954226 2.686986801013964 -0.19135460988901884 1.2797185189009381 -1.1282021240547797
Ni 1.2213179026838248 2.296910216952128 2.198723725587181 0.8935401096273773 0.21404408106673461 -1.385660567551407
Ni 2.294306166846578 9.16917327571721 12.36401517860579 1.163963340814789 -0.9572659299211128 -0.2375028263103071
Ni 5.384448692629194 1.0892566761295805 4.309707525480196 -1.056883579015451 0.1994471570891662 1.2263796982684814
Ni 2.7874746101577026 2.5128899486746206 0.21284198936916232 -0.30897229510520335 -0.719354041097845 -0.05353653846555941
Ni 5.588438751957582 5.193064812257 4.0665794212085355 -0.8190495946179701 1.7875371042865151 0.29856369817736966
Ni 8.25058769979165 4.862341247261694 7.259525796458448 0.969215646083821 0.9236258732691642 -1.5342217364239836
P 0.3926843148035779 3.272472041123498 0.34974877346963434 0.7167466853819849 1.1736975373834175 -0.7794263237993931
P 7.309090163573444 4.976753823277264 10.848859206520677 -0.18608821928375693 -0.42887414836987425 0.7675923072789426
P 4.578499785756763 8.484998217243529 3.0580556596233834 1.719269687368684 -0.9583776749280528 1.0153898306470384
P 2.2618061492748396 3.7938801656145955 7.822883051784143 0.056743475438631306 2.1754098705433633 -1.1345864303145685
P 7.2726242605052684 0.8932324336788402 13.39975724482775 -0.9473813238175491 2.099685740237171 -0.15825679889378552
P 1.402175163548071 5.960863925003602 10.76308474055282 -0.1425193335538707 0.23109820833554393 0.07197571900735347
P 4.4931090261118785 6.4030187506992915 8.84513006540964 -1.5083286707073056 1.015591148024567 2.1593929262898164
P 6.161440194264292 5.0436585876498885 1.248019998094761 0.05643340039738023 2.273150871440279 0.07657593678352619
