# total energy = -340876.3935754137 ev
CRYSTAL
PRIMVEC
9.21945830061501 0.00000000000000 0.00000000000000
0.00000000000000 9.21945830061501 0.00000000000000
0.00000000000000 0.00000000000000 13.49360914007589
PRIMCOORD
 96 1
Ni 6.176585205318621 0.5212893684085658 6.27751061365837 0.5055714412226132 -0.7770136005928424 -0.051643178097588484
Ni 1.5946343590094352 5.486066228993556 0.47142592901827346 2.7345085942601552 0.9189359239926626 0.022083205052284546
Ni 8.481302230841935 6.853929575951031 3.0142290075778697 1.4444295580604996 1.21620738572117 1.5117716349505836
Ni 5.205084803034797 1.8933540224438183 7.808400717090764 -0.31366841502929205 1.8476081014364825 -0.5422310014271757
Ni 4.38323464539981 4.366390695364483 1.5529522667791584 0.9551581395494905 0.17675048682259883 -0.23709890600366904
Ni 6.886760066413975 3.7849840062140703 2.035577993554911 0.3356040387601188 -0.9987625065030026 -0.8464611538617035
Ni 8.311913126299485 0.3893340297820635 2.5909074453353615 1.3286856928282602 -0.8438399141887725 -1.4232390400258133
Ni 0.38334414782368825 8.958224800807699 5.475059117911357 -1.6454898252730565 0.5626725571109794 -0.19517321230416065
Ni 5.425383755467272 6.701919150016458 11.178402160956665 -1.5028244530596246 -0.10053810402607846 -1.1803006445222317
Ni 3.2646285689158376 0.16429719780763302 3.0222444044912313 0.5669480445578816 1.1304371840328855 1.9100450277154652
Ni 7.735586358588298 5.06411006850268 6.827415336264882 0.5213076210109474 0.32805296588573823 0.42575282913207324
Ni 6.206465469174392 5.664508841436766 3.362013705326979 0.5033960308378492 0.7430233596903268 -0.25325057606286705
Ni 3.203743267310311 3.356675639059626 3.1727658879349976 -0.7290851523426799 -0.38168283539605236 -0.5893405533204689
Ni 6.803480700968379 2.9904234446954296 6.102754862528309 -0.8320035836754768 -0.040021791808576235 0.48166738091150596
Ni 2.8162863192070615 2.5825546162538036 8.763964364020968 1.901929854807499 0.20451454430974458 -0.25928238407924376
Ni 0.5483235855342299 6.159049795922239 5.437061121156787 -0.026616059925631583 -0.1603077678855433 1.1711930257940089
Ni 0.2296520927230263 4.377186680855106 1.9320822002836633 -0.4344094763658066 -0.6081980523466042 1.050789293192255
Ni 4.054385792739675 -0.05233517611961425 8.549024682609586 -0.7107051071735954 1.1448410181630413 1.2506550258760782
Ni 9.045892628331464 0.23325782280448018 8.422049695274318 -0.8058436374506573 -0.6848254111933562 -0.26721937953813335
Ni 2.3741303259152 7.957046962747347 5.058254790633257 1.560489411871261 -0.7103711208729444 0.01225979120395953
Ni 1.278499139134585 1.5545389355263284 2.455108514607202 0.26006528499185533 0.1875285512747093 -0.6374654338521537
Ni 1.8333998861111809 8.216547051222628 9.466967408623447 1.0929281313438337 -0.02887965914882768 -0.421263683012468
Ni 5.6039462208663995 6.245943188961622 7.358523427600443 0.4992503841005918 -1.4343382352627685 0.23175075431787828
Ni 7.539691311872032 2.4601386509724317 12.333482257763439 -0.13711076094378968 0.35842952129506656 0.3812416340935757
P 2.9694307384937666 6.276736179173987 10.613938070043755 3.799663155035146 -0.5923168623399734 -1.0503853728856167
P 0.7199908181849063 4.909490535912388 7.449902087028545 0.3651609264816292 0.08805976905340963 -0.03037244164427027
P 3.472306083144501 6.314342348957291 6.202769388403094 0.6790735963112434 0.21615110010740837 -0.6341823922255079
P 2.558915925563833 0.9666233089238409 10.151309347989743 -0.21199131230276394 0.6069531241959095 0.575148578090803
P 3.1971974520256463 6.5387716186398075 1.8179941715468508 0.8074094392758803 -0.36838560406651394 -1.2586917801376258
P 3.2600833760491623 2.595959708400145 6.607361621419129 0.013384134616389853 1.6197263431557074 -0.4809562137770942
P 7.718760847469267 6.483952720495279 5.001851067633188 -1.6516617584117232 0.27280664381792374 0.44373332486989386
P 7.051696172671224 1.592320275014434 0.9878040920717115 2.175351506501602 0.11922513891262047 -0.37689801241289933
Ni 7.710721479964721 7.681965990002935 6.873252638282198 -0.31166758254917937 0.1835716235094903 0.16059444588802665
Ni 6.906231562021315 7.9321913035819165 1.0947267579363533 -0.5762852627984075 3.26718486211936 1.1124597736188582
Ni 7.581722821566094 0.10146013691229869 12.385068813881484 -1.0776310959754474 -0.06817922807939872 1.6937692291047346
Ni 5.242368291782943 6.376057401796085 0.812079375890358 -0.524847772953722 1.4659409497697142 0.48253769933160123
Ni 5.22689804101158 2.140610670499333 13.496982485696247 -0.5333930914205717 0.36340614857405157 0.12678186821395587
Ni 6.075051312741143 0.8444700981996699 2.73402109415768 -1.8630576032223334 0.6826741691783081 0.33729531041961264
Ni 6.499717993927359 9.092653720055152 10.435646656714162 -0.6109923272622897 -1.3442956314513752 -1.4473307908676944
Ni 9.105127646928604 7.4502349094676665 0.3794682876185151 1.2914049540999308 0.49296840774662193 0.5947298426568403
Ni 3.9390503713155174 6.128985142903519 3.847217192600749 -1.025096516411841 -0.6272620109565906 -0.5107650696084107
Ni 6.416853504098395 4.652691748674299 13.35988729915256 -0.2595862884729078 -0.8397937691438571 -0.8959536041648762
Ni 6.567379597271236 4.340502456886543 10.625731600905928 0.05324394692580508 0.016509824729565116 -0.35077688984581523
Ni 1.3051433731806137 1.509289834938817 7.038576883727453 0.3806875613623185 -0.5279274403203102 1.0352942828804494
Ni 8.887456240068143 3.8689363921044286 10.955784514800115 1.2105519872076056 0.26822750908767357 -0.005354065223061746
Ni 5.448506156500988 7.176675147317577 5.26594797794077 1.0314016326942623 0.5884818048645994 0.022493810227141905
Ni 2.806919349729288 1.0724350300817194 12.98508866708571 0.3689293923851259 -0.6199811610244613 0.13860637165270967
Ni 5.419372668755157 1.8259966612188068 10.062211582507315 -0.153860983818935 1.1268301834079175 0.7310515320404313
Ni 7.3306769762119925 8.722040721987229 4.437090110167933 -0.6427012283297964 -1.1703473899642618 0.47073196494592484
Ni 9.009328257318817 8.356212622697814 10.78874729403107 -0.3053778928857257 -0.5962629914719151 -0.6027797095445103
Ni 1.738098347241355 6.361481438465023 3.391577741768294 -1.7625212989684678 -0.08154562208397569 -1.1875020473666775
Ni 4.703122184740657 4.62373343063327 5.363507362110898 0.711132167408685 -1.366849348382175 1.2938130493207913
Ni 4.441381767935554 8.927219763057943 0.9175979182791486 0.42859466945624247 0.8732965288869928 -0.862307891085973
Ni 8.034813092220789 4.331771630020941 4.289388858971461 1.003402576378175 1.238055849054829 -0.6429128301199701
Ni 2.3010845590132334 4.360130683282389 5.065123286953081 0.05088675954753817 0.8830597789213437 1.5579535328232847
Ni -0.022998860294540693 0.8494947028900109 0.37330784568441255 0.11714408801387567 0.6615679833273123 1.796095278269171
P 6.036845878178257 3.5532621451369497 3.9950253895117314 0.30927799927108024 -0.38485917624150495 0.10557026713334722
P 8.235612890671481 1.244193535368055 10.409239362742522 -1.7428698432861274 0.3669738113206518 -0.3553115444913752
P 4.6896617758454315 9.129845014221823 4.659329758540438 1.3035678147147098 -1.0485424061396071 -0.8456738820737177
P 8.435758107593708 6.025865503524686 10.888748912664449 0.10851340892207119 -0.8823797221351836 -0.33693304198418744
P 1.725495347953839 8.425589045257109 7.140710041084513 0.017240532248002566 0.22123982748422547 1.2247190227366067
P 5.906805421008972 4.069321314938487 8.267210739580117 0.7731978263911781 -0.10851649424586471 0.08168677564753028
P 0.783803297752237 3.3336546520655315 12.89441160842263 -0.39882103773823574 -0.34570410330859813 0.486612126511291
P 7.733558077795867 6.080343281717759 1.337239994775023 -1.8618286159112387 -3.7337267002433374 -1.1449867997122862
Ni 0.2507001156735741 6.903991233691493 8.517273790695704 -0.1978355896276722 -1.18593187466608 -0.8617059958359159
Ni 7.752882062072848 2.530547652844237 8.423237161483703 -0.2830923420146479 0.03384908733896106 0.3483014317221292
Ni 3.660051128858454 8.640107397431153 11.039620735517817 1.5300521784273262 -0.30309578171976836 0.04083940261386515
Ni 4.261842039972801 4.459212199992654 9.904146738407333 -0.24452528037472723 0.12618537228053753 0.03306104422002693
Ni 1.7505999324892494 4.669812282454048 9.53779589584096 -1.1821035020589254 0.5123555540239821 0.04062780082369132
Ni 2.0097128037223393 1.7408918430600218 4.803940647365896 0.3182418933325874 -0.21392838142447673 -0.17813374032337065
Ni 7.16832231823602 6.826990319244286 9.37799041804275 -0.3914052048901388 -0.024316979478809734 -0.6013167518457385
Ni 0.7383476813022236 1.3048575699780438 11.777140509478402 -0.06107218472097224 0.6178175777142392 -0.4644921546838001
Ni 2.0495408629191707 8.500506362163001 1.4168961131686861 -1.34166205048327 -0.9128958884461699 -1.933986369022411
Ni 5.074684786997765 7.82077415187041 2.8183293511325282 0.678768920586631 -0.07613010749535921 0.9548133546155622
Ni 0.7649107841165549 2.14069364562266 9.596479590840884 -0.34380688628588535 0.6822944172413862 -1.2085192730482928
Ni 4.58828461405646 2.077623332436196 4.528442033167406 0.34659833298809334 -0.14229101959314852 1.062641821655467
Ni 3.2580643147148782 4.801420047508393 7.704472531232403 -0.08138724212924048 -0.46801199491160045 -1.4434764501186108
Ni 7.914323993692227 1.9581391548457014 4.231461159539625 0.20416770249328708 -0.2724376905142792 0.13715575524911217
Ni 8.756917932158897 5.1184311159072475 13.198867618716333 -0.737377217148143 -0.7474178892135966 -1.5278189182214332
Ni 3.6030564385911363 0.5225847022782776 6.3383931494264525 -0.6067199251391809 -0.4298735361686661 0.43466118736529663
Ni 1.315091168521674 6.616998721020622 11.54523979091322 -3.3064538349223116 -0.3035590945094321 1.4370777456811186
Ni 0.2354787902721924 3.288221162315072 5.826175727834943 -0.46156161130056644 0.6487116961899344 0.992301067148375
Ni 7.265154287158316 6.913920590116259 12.479658610582327 0.05688848565692783 -0.20799093289411924 -0.24560720058499638
Ni 2.5458611728270935 3.232222173527675 0.7240086580455496 -0.7765479738103336 -0.3725304794728229 -0.7410019583849239
Ni 3.0775473241884987 7.4192022133434685 12.978921771530905 0.1615231283498831 -0.1875663464911802 0.45610393062010485
Ni 4.183430548429039 5.287746464784518 12.629153968334286 -1.3598765166087676 -2.078855947976013 -1.349455835496076
Ni 4.083473183194768 6.886474263211405 8.873869524596298 -0.737055572142666 -0.2837029790154533 1.0046289925861085
Ni 2.392191244425985 3.1003286052707604 11.386474267994037 0.8725483378670585 0.07105886362003891 -0.03900723450113282
P 5.4250702938902595 8.359328799551639 12.596446096664703 0.6353471019575704 -0.04277647173557794 -0.5407911836568557
P 5.984405600235761 8.362315903991401 8.244325278620789 0.3542926163085576 -0.11705821316828871 -0.3541499200831062
P 1.1447524597900403 8.581130523662143 12.628547327988185 1.47499920331724 0.451281569530797 0.1300021749234664
P 3.908377234059069 1.788851464342873 1.7416736531109225 -0.7063645708167126 0.35183798412047795 -0.37430016977873604
P 4.691385814518998 3.1439089839335894 11.633649784817855 0.27098321745593973 0.9885421143265749 0.41961817698924503
P 0.9811716138804614 3.309342940930799 3.6938081748652127 -1.085504070965621 0.7397238630034486 -0.1634036332020476
P 8.383520657730456 1.3341477885123803 6.405106070526959 -0.993120734836193 0.27454573799621745 0.5430424415848777
P 1.0061194676273655 8.643057624038326 3.2681255093911523 -0.56448158529526 -0.09409106284915408 0.9954460405352598
