# total energy = -340857.75905307283 ev
CRYSTAL
PRIMVEC
9.42412834566641 0.00000000000000 0.00000000000000
0.00000000000000 9.42412834566641 0.00000000000000
0.00000000000000 0.00000000000000 13.79316443937835
PRIMCOORD
 96 1
Ni 4.18514239749926 1.6169165828028298 12.806415295984925 -0.9552949222376709 -0.8743195708348684 1.8439671622497855
Ni 0.806915561558522 4.632043997253842 12.033419057887247 2.1240651975228 -0.04167938201665725 -2.0502920202953914
Ni 0.3684570385678246 5.358993000865514 3.5171601661965735 -1.1663616658436364 0.31545096085101154 -0.5079309425937252
Ni 2.3372309999184937 8.690384745173846 8.737238685063344 2.0045572372624383 0.3953269085420482 -1.837447615963713
Ni 6.456856855769669 2.8039044213614646 8.849763722309072 0.5302108370378481 1.6541716693177704 3.306013404950784
Ni 2.113728367334203 7.066400065961917 2.3428383564030466 0.27504247512697794 -0.12625299229367934 -0.19768312321020792
Ni 6.717509403080189 5.872504341179455 1.3681629401938153 -0.659086354556039 0.22064538843333611 -0.42229855203488564
Ni 4.807153729757161 7.727530955812048 1.9156916149054728 -0.25796032283371056 -1.1985973859488905 0.7821830606089238
Ni 3.177109335890495 4.336145209183275 7.090072534455275 0.008338601772682414 0.7765425744936949 0.3697819701934083
Ni 6.266187887037784 0.2027799163256637 9.512980171806316 0.23374952991546194 -0.3138046834968402 -1.077846297310047
Ni 7.023435463923133 9.278516335310792 6.933189066558888 2.7071937084952857 -0.7602608066145359 2.2695927217753753
Ni 7.930941346337404 7.675490917983981 9.835257095675646 -0.19014953383732414 0.20075816259110588 0.05172853872254317
Ni 3.169758515625031 7.041680576787157 5.6081349175706015 -0.6067772607396775 -0.7557811735766274 4.565732597911659
Ni 2.5476717903387676 5.652026853858259 4.06535606920925 2.128454584839747 -0.8290203326774368 -0.41889595411123987
Ni 6.570577814927817 3.1705972630655777 4.923911143132658 -1.0155407544026058 -0.5539498325260008 0.6025544809075816
Ni 6.365084691993913 2.6071945862319357 13.158182202898729 2.2138902860067486 -0.7642776410834128 -0.7288036165465192
Ni 8.535291861701099 4.3029911249603225 5.563541826119161 0.6914693988724349 -0.04109831270220664 -0.1626587846162231
Ni 4.532044569257893 8.644555208057241 11.158959824630509 -0.44774218891897083 0.06972831773407345 0.36657451899970417
Ni 7.9372932089770485 5.734299496060183 11.396905876623583 0.6124845955371 0.5022151231558706 -1.1911828386523744
Ni 3.3266514076499623 2.989691691506797 1.6888622649446325 -0.6326055346566912 0.49173376400857255 0.2509903192737806
Ni 3.2731035092546197 8.38922729337491 4.018983702288426 0.20151972334747875 1.8831723716943372 -2.109978894633063
Ni 5.793558416354079 4.379807196734422 10.786048000499244 -0.9931916972834444 0.9582061823471951 1.0734841636866093
Ni 8.206710195834853 2.011212697016615 3.6919061273380374 -0.023703771374843047 -0.7728790095991787 -0.3639100847936636
Ni 1.9908283069727706 6.908885181452985 11.821417631779847 -0.1250890538925652 0.09890313952581677 0.25463691488743245
P 6.88196987032713 0.5543149896772481 4.957870047933392 -0.418270404712099 1.0911759245394175 -0.623279629270075
P 4.791236376643867 6.807745433903034 4.166474141263545 0.3758505449849914 1.8080629921540088 -0.22138020971683162
P 9.304329023396827 4.241008631516788 10.047175589451847 0.9987722766950154 0.04256229884224283 -0.5295516061872945
P 2.50330299314671 6.417143578079071 7.704723622319165 1.9883546593606467 0.7056613741021007 0.4391850433775791
P 2.843325551067152 0.6077573378328812 10.586184851958402 -0.20064914781706736 -0.2066498454851925 -0.054093696520610066
P 4.632590596709479 2.2322273596649027 3.264552055012463 0.8998876491119598 0.3428342379599708 0.7953692202818947
P 4.024903939840688 5.103212728013 1.6895106449885604 0.35767130297280336 0.5155318948694346 1.947210838132485
P 8.234332316601616 1.3950443244569048 8.629996814280204 0.07268688614176515 -0.8867300286840794 -1.4185400918882474
Ni 0.9055692239981775 6.7393168365344 9.119543538115877 -0.6992223033449765 -0.6179656732563293 0.5530237211673056
Ni 6.150101471614725 1.8942215652531906 7.022886037228933 -1.3319939312658868 0.32740813321288775 -2.6229715680204118
Ni 1.7236448385802414 2.4550514549939195 6.235255069912999 -0.9374375823412759 3.7344571506514592 -1.6513182590293756
Ni 2.0467887822757524 9.412122205699875 12.625104486898689 -0.02849193679210577 0.5512692003700441 -0.4985063068457156
Ni 3.433624690769556 6.773055216727172 9.843064043762707 -0.2800383856796726 0.2473025860095483 -0.47889598881395584
Ni 0.8666956361609816 5.327704894094564 7.158197674884744 -1.5673640275039071 -0.5091301051081489 -1.3101734929566855
Ni 0.925253401291094 8.752414359260108 10.352555993252007 -1.6190185184554053 1.20788986699441 2.068164015479806
Ni 9.191682414892862 3.2874941535435473 7.850517718156099 -0.46369639825538206 0.30706479366984535 0.17332963406650795
Ni 0.11106995179830806 2.049823351667393 12.228026369938283 2.3043141844169606 0.19078536764911014 -0.6022094388633371
Ni 8.673901944347826 4.014490277797948 13.427052590300896 -1.0763933669136043 -1.330685496867108 2.398648216514856
Ni 1.1134984841610842 8.043173293185367 0.6630185427977894 0.5133796244131222 2.0794550150125928 -0.23011553270730042
Ni 8.555468920916944 1.474649938280463 6.0704685278183845 1.090420791540948 0.6279451530665443 0.39867705596120373
Ni 4.808096142611707 3.805218079317312 0.12317336008925107 -0.9637921610754047 2.091509889294598 -0.5961382929685927
Ni 3.6703682239602275 4.412951856828829 9.541572977813262 -1.1700648257268365 -0.5829835007541895 1.9355449717587825
Ni 7.587724008840048 6.407003215764149 4.1723774153844255 0.025180613030685667 0.5031065246218883 0.029505979878916924
Ni 2.172393567529734 2.5974783097015592 8.60453470377606 1.5822864531416942 -0.2994052202420586 -1.526395041290713
Ni 0.6618744535923697 0.8789752756557248 1.3338280126641162 1.665655501587654 0.7657192586259458 0.7121688362033155
Ni 4.101588073815152 0.6719827738702375 7.638337233606332 -1.4025288040616553 2.3772808065826734 -0.3084069095200366
Ni 1.429791086404041 4.332234195836906 0.6562633274563989 0.3928159691947364 -0.7204932969086107 0.25410289676083336
Ni 7.794922899040682 3.2338897103769324 11.24017413719678 -0.545384716564809 -0.745963159044941 -0.7233107117527479
Ni 0.25161198079685443 6.282199481436533 13.664198533780459 -0.5231102214373249 -1.5940734184742933 -0.5755010763342153
Ni 6.218982427153541 2.3961789239703886 1.908091055233554 -1.3894251768001618 0.06725388805165192 -0.6614715669587641
Ni 3.7640063651879854 3.338158268603977 5.075732911587274 0.2028862646777022 0.09294872171459476 -0.7978469923984259
Ni 6.051873779785324 6.96049170936796 13.067009413698464 -1.6064604792847366 -0.45238971499331115 -1.8591945207225011
P 1.9455453693118026 0.667087881503722 6.86790624329873 0.03319088492967187 -3.702190320197953 2.2033587903478056
P 5.485106689060951 6.6989721422312565 10.667716757656653 0.8401920330235402 -0.0853724520292336 -0.2666753341092052
P 1.54565132274201 3.8971316050212494 4.485261310332487 -0.0027176560414791905 -1.7635877925597694 1.2132966398322782
P 9.188242607973766 7.466934953272801 11.672134723555377 0.6751472646736436 0.06698932153635559 0.8539680037617099
P 6.9264706053188245 4.231593927099866 7.111797035578284 -0.17217598007803894 0.46062238731574867 -0.8763042053650649
P 8.713945066537512 6.434917484515823 1.9942294749648295 -0.152327320783228 0.8805200432186254 -0.2829563306574159
P 4.256888288115899 2.8429580100538785 8.261140192662051 1.5985625645938986 -0.28842815240526454 -0.6984262898062423
P 8.729410061480623 7.60927699082353 6.465187785403861 -0.3714493305935022 -0.992285383419091 -1.310018712546376
Ni 0.8701373279057861 7.5554557927003705 4.775441537201664 0.15063887733721154 -0.5725018844965754 0.28917994296962457
Ni 8.028961707338803 7.92641776463558 0.005876886560953096 0.3376825185557023 -0.1910108533963549 -1.9694434242784407
Ni 0.9166680201861738 2.8786094883413793 2.6855015551419283 -0.17775244572455193 0.2520077047947014 -0.15985011152283438
Ni 5.319845170887645 5.598149110963825 8.555720545149107 -0.28927635933817275 0.3338034952162703 0.28277121122980337
Ni 6.42760436076454 0.3126671399915157 12.268178812019098 -0.5807543543133546 -1.2449708310071075 1.0577652102894557
Ni 6.028398275578567 0.09469081638628676 2.90772344865689 0.24713315031121952 0.21727081553414837 0.08082699875039628
Ni 8.318320150198817 0.9926905803367454 13.602887980702217 -1.6933907627193934 -0.28545621426113416 1.562327236410948
Ni 8.457212956701905 8.854458823150424 4.113342789349913 -0.016571016984803722 0.16048851643778167 0.6386465986444486
Ni 4.811196680903165 1.052967306513551 5.10836772632737 -0.3537629690573327 -0.1998482491823268 -0.09355550206065824
Ni 0.06744943041276043 8.909721912941041 7.899263080644673 -0.08162429784071103 1.2134496204703746 0.644226149614755
Ni 6.90700035574389 6.9937494590049125 7.577592128240817 0.3720877355084495 -0.22856078662567086 -0.19901855419217984
Ni 7.574162687863122 5.102232618644272 9.040026511100645 0.8789922937201895 0.25313050554523503 -0.14771193349840367
Ni 5.125199219909574 5.70372762305869 6.175613530000158 0.8939075202691251 -0.9397883419616395 -0.055655641691091245
Ni 3.184742880012323 5.940923514419544 0.015638398908347607 -0.846972032059851 -0.00956398953935127 -0.8631512129228749
Ni 5.295945580896341 1.7614827146902905 10.933441370950344 -0.2837649426016403 1.7200597873701473 -1.5428585861633752
Ni 3.8608298618641115 8.153586383224058 13.626653748068176 -0.16612977388395905 0.8612534816795296 -0.6988291816716158
Ni 3.3073602165173916 0.6553331659689612 1.464916698318705 0.43114597512318653 -1.8321724836077027 -0.9479515944987221
Ni 5.490940224630595 8.170728873048262 5.824067147694319 -1.3880164693780934 -0.8052605112536776 -2.4639344393171756
Ni 7.625382826507734 4.3352876134856375 2.8208951827160864 0.3468785832326736 -0.07109228796113562 1.0961456098398672
Ni 8.361963289492873 9.007836515227895 1.829732253616561 -0.7677164915616327 -0.5506778466429484 1.7692732729803209
Ni 0.6329989237290595 2.0693407218850544 9.891975270913681 -2.5887363009866253 -1.2001215359029007 1.3370320079104265
Ni 2.5360047191994792 2.6940567790355034 11.33799564908587 0.012976871875642167 0.16768194886242735 -0.0904077004602959
Ni 2.832101413969501 1.2523630182785377 3.595588706364803 -1.8456324657673504 1.1932682604264933 1.6375379174158315
Ni 5.459576724831281 4.94565072286134 3.904431534992568 -0.11315193613534706 -1.4372111859351893 -1.91141414014885
P 2.153215465939709 1.847496735924766 0.03381094598257124 -0.2694449264345424 1.2269450838536482 -0.2716349921073258
P 5.988223215589242 8.807799962721818 0.38404077753060845 -0.08292579026095395 0.5959184636483027 1.5968352974901465
P 8.205249455910305 2.7195301984939 1.619511045391397 2.881634830458418 -0.8178049235775915 -2.1322531326502308
P 7.898286740927361 0.891142768020777 10.925262169785734 1.424445915849721 0.8958160501457476 -0.06839571496557897
P 3.5283089102658605 4.566781907076484 12.046053987028156 -0.2940421561579323 0.2448109299359461 -0.5703280167737081
P 1.1487541490496755 9.399173453078404 3.4931192142770877 -0.8039091394321057 -1.098376813163231 -0.8964323435735078
P 5.09161162577353 8.404598047032565 7.87797962873759 1.5702773444959601 -2.6085996155694557 1.4056421528796568
P 6.896991931228605 5.000574544024321 12.967547161029607 -2.2569426371115324 -2.0848427616870673 1.7644329141688837
