# total energy = -340872.1067963143 ev
CRYSTAL
PRIMVEC
9.25553020659831 0.00000000000000 0.00000000000000

0.00000000000000 9.25553020659831 0.00000000000000

0.00000000000000 0.00000000000000 13.54640402069020

PRIMCOORD
 96 1
Ni 0.23605303816564668 8.041389610221032 4.316222953766619 0.7266577738481098 -1.6133662052656341 0.34464352325456776
Ni 3.668271987739384 2.0814854064503785 9.32426068153078 -0.7065023819461574 0.43542583344546304 -1.0380957568849865
Ni 6.333744317656656 6.970117541155605 3.6691790296834017 1.0048323668461663 1.2580346061696013 -1.369963982751757
Ni 1.3022160546484405 1.2032281608599529 9.282686691692618 -0.4556976963206217 -0.33635377244194975 0.6204933247741895
Ni 1.9057228909718014 4.434768708084743 3.484189676306953 -0.9403071905795871 0.35875605139654987 0.3935554184639222
Ni 2.801667454470577 4.633855159266639 9.99837055211289 -0.6410490374383541 -0.9231908426142746 -1.7207616985331784
Ni 2.583061090432214 7.151442630188822 7.789751185019345 -0.7393698220981396 0.6121662929657329 -0.18949621652404142
Ni 0.42075824676983736 1.279086485075983 7.1807724793357455 -0.981417844576968 -1.1918531252465216 -0.3439477827391238
Ni 7.535565637950377 0.6171976163600069 9.674855531718812 -1.5309860030955054 1.3438883687106276 -0.7412960925865749
Ni 1.0265308368472348 2.088760253062604 5.082746515149098 2.0935364328063235 1.6326731331243622 0.23193947328991665
Ni 3.589183483539045 3.121122073835668 11.568805388478461 0.6447635101754637 -1.6624387944225691 -0.2053486101752657
Ni 5.526291876879875 5.068911348843812 4.715449135449076 -0.9422501732385707 -0.5680968134503441 1.1148740394873058
Ni 4.0550976102729095 5.350695960942035 2.532540705256423 1.7917334017560496 1.2211133076632197 0.7602883174183617
Ni 8.540725455932943 6.832561853686274 10.864365145951997 0.6150014484216828 0.6176699963927814 -0.20585074662266484
Ni 8.511005948971295 3.4639654176143653 7.322061847623616 0.17008798720075868 0.45110647740551335 -0.0595637184962458
Ni 8.094247942285177 9.11371680971113 -0.18459691890271096 1.7122058385433674 0.4040537468920848 0.8192889643222858
Ni 2.3205927695295547 2.424763760141002 -0.011504623840962156 -1.348032472785988 1.5716857948077125 2.1168769073044764
Ni 8.986573593537923 8.435314224296002 8.884950650346763 1.2879157099997498 -1.3150508756536448 -1.2195454489554673
Ni 1.7311358278084312 3.2888045115884528 8.320160621737905 -0.7790229177133874 0.511231467721868 -0.9631959222523024
Ni 3.6071854894687885 0.7227578620306083 13.164923395154803 0.9369894390602637 -0.2578770190912849 1.0619093143648162
Ni 2.02138924989417 8.670987785729968 11.998374899847331 -0.19425070048989126 -1.1190243142102534 0.5804728185171938
Ni 5.014562876443064 1.11984509072059 11.015759701938629 1.0012539054662883 -0.024919388949499018 0.88200871194901
Ni 9.003372380562336 5.063478352709745 5.35156135300087 -1.3664189457129758 0.8055525885727998 -0.6719639818496557
Ni 7.968539333268325 1.789723332967957 5.067086158319726 -2.5551728632088837 -0.732786255343351 2.3446262537724456
P 6.083141586266558 6.4712259608856595 1.5160724806697627 -1.9541733854932473 1.3653133713536227 -1.2187754035586622
P 7.069549700386061 1.8799925174578231 7.584469082028005 -0.07064388756980737 0.0769150652904998 0.7280443697829913
P 2.6092079627980365 1.1816072426841784 11.051603593128409 1.3567212588092377 0.1866129814389754 0.2646364493023055
P 4.467699883970619 8.264336817848623 8.010341009145495 -0.3237288845890876 0.7217924753360085 -1.193651354797525
P 1.268748058020187 7.045022545777412 9.696908683147502 0.10600966866361099 -0.4142232312259188 0.6407870420262191
P 1.2680168711469482 4.108307652478615 6.260944946119175 2.1848599602126693 -1.8712522232179836 1.5384419451529183
P 5.6505936453304955 3.197961484236045 12.328189233987313 0.7758586610527929 0.12568452138471903 -0.726698140167742
P 8.979974400618689 5.317431585974684 3.23727897585021 0.5859101874826812 0.12672581816503983 -1.1936369566198217
Ni 4.468764269925334 6.372265833687295 8.958629297238138 -0.386882891539753 0.2870479842282863 2.601939687050777
Ni 4.262190094940269 4.694886124356988 -0.42645872772208887 1.768834385670689 0.8454717933652407 2.4962791741964687
Ni 7.406432482818354 2.060669719388171 11.62918106204191 0.15223553240037008 0.6298935350421668 0.2032487902234435
Ni 7.552447724745159 5.247681911585713 8.86506421850067 0.5596000888332426 -1.1364520227683976 -1.461579844587541
Ni 3.029742225740882 8.721772879064932 9.82982642451329 0.9156189438042875 -0.32513759201115616 -1.3547893318938473
Ni 2.492190296489682 8.42547559586242 5.39740214218793 0.5206509612635549 -0.08719125040552726 -0.021029566976789586
Ni 6.139331909145465 3.0845442191136385 9.620560741392302 0.0142595952428077 -0.4185046322100921 -0.95500078803602
Ni 0.013470498421670411 0.8905828349460243 3.4435634527449905 -0.8126154089568521 -1.1036241776050995 -1.0983220486658956
Ni 5.462502763837308 0.7356286021056221 8.646290329368565 -0.33743903508632855 0.1967428707841257 -0.9265859843387527
Ni -0.1297930744239458 0.33459296430015006 11.236674395169217 1.0505650929965906 -0.5029820832288822 0.5182300105268882
Ni 1.1711762603279723 2.578664713662739 11.517586210784577 -2.076859486371275 -0.25423607990458796 0.24765842668707025
Ni 6.726521246006544 6.647081031664647 12.586004799938362 -0.5205727997274519 0.021366381490918043 -0.23706085367688204
Ni 3.0645615297551214 6.5749341749950565 10.91949848730022 -0.5664595349572373 1.3491167069891021 0.9618923729495306
Ni 7.198997543539477 9.254243522323623 6.78156018094835 0.2342310975375708 -0.5802133942082202 -0.2004401171300548
Ni 1.160791555621971 0.33306302518437286 1.0339186009259604 -0.25127674016594786 1.4211993838879653 -1.7047694368699802
Ni 7.591043285016126 1.9511120102928619 1.5815423979677756 1.133231716058887 0.9920483277076205 -0.8151096361336155
Ni 7.457143531912989 4.602469656897609 11.080416058146039 -0.40312429309927994 -0.4214513735432419 1.8451786660593834
Ni 6.0507379755930195 3.328843934545816 6.3816157701347125 -0.12551842812049996 0.47826401165691185 0.3701640361231754
Ni 0.4607273276988888 5.7961553662852925 8.049124456676294 0.5725227104321817 -0.1262797317665567 -0.7187238637130138
Ni 1.9697804143855577 5.53365002326247 1.239601468368076 0.30988040874176953 0.6800719556687707 -0.2023414479178257
Ni 6.389518141683718 7.134116277952072 7.911980640293786 0.5791083340694994 0.6979521783833011 -0.1094354065157083
Ni 8.183119541738852 7.203088487817599 6.349862823223056 1.1391591372869154 0.47462538646305996 -0.34891412560546364
Ni 3.9801555835309386 2.9540782676557122 3.5916528589539833 -1.7524253481850462 -0.4638493788934786 -0.11988205577032901
Ni 8.19771551261351 6.289910127382482 1.3912431470068047 1.2431335206880525 0.8105371862715847 -0.004819789986146537
P 8.659955193921098 5.645373526387372 12.842627328067126 0.9312669347541898 -1.0652990567726557 -0.47263175307179894
P 4.32896874418608 4.020657782990352 8.528721033469768 0.11646505966898006 -0.34632271072920356 0.030112760224980398
P 3.234733705088935 3.694955680847585 1.60764669489541 -1.4563399363448402 -0.9000496286111209 -0.8388951685889875
P 7.119585095787704 5.3596645695517635 6.501122248471091 -0.7992598135855525 -0.5289085732866569 0.7140945924711185
P 0.9137179578365063 8.196105050386375 6.846583056145383 -1.111461671371647 0.37040571982033627 -0.1788878448805758
P 3.108044009887736 1.172870022325475 4.885171492022897 -0.02214259753531025 1.3205370955791966 0.5469600314717291
P 7.538980928535505 8.909604605716972 4.515680551703159 -1.2766203395915885 -0.21570681348113818 0.8469776884868059
P 8.782137445992328 2.5689001294694847 9.686125990649737 0.5121984596208277 0.7697422637424098 0.26085435655205397
Ni 4.9324385583892765 4.97451419795566 10.697716550904792 1.7839041355196184 -0.6721902389278488 1.3490449732109024
Ni 5.536861692186696 7.522904072854289 5.717354709069228 0.4026967186435581 1.0514228130111956 1.3236003078855527
Ni 4.266512427469417 5.4983124095659335 6.985474316599632 0.47867950192777564 -0.4665004433630805 -2.8191269417321836
Ni 4.9813355235958765 0.9852511728643778 5.916513353385443 1.1118889887170529 0.3151275160733218 -0.26010076621548106
Ni 0.5844626577110006 4.550120378985718 10.487477186023492 -1.5142170111672826 0.8970003002618357 -0.7672938022019173
Ni 5.998925518423505 8.48022205605493 0.34179191556603933 -0.4426488335564635 0.43887805366012156 1.3585601117901893
Ni 4.587096221499509 8.801361181887485 3.709967225021082 -0.32369571735830704 -0.6539168945399576 0.3533729327077656
Ni 2.967369208794587 0.8565548787502903 7.1622817814198365 -0.6081448305111655 -0.5505816873847162 1.0084643071717987
Ni 2.431011242918677 0.32485707225002286 3.055554047919221 -0.24428282534661802 0.7153621463296325 -0.5742191242979982
Ni 7.663893561968832 8.731741084919088 2.2377169024364387 -0.002787590047466167 -0.9295679497852121 -0.11113799102911183
Ni 2.6013037401430235 7.2464413905296405 3.1000268697662228 -1.8717746713803571 -0.646025664717339 -0.07904445292867678
Ni 1.120474466763378 2.4048088373726078 2.387065986284012 1.92906527757171 1.0122330301856115 -0.9855496073571545
Ni 8.388768163719817 3.343911937452563 3.6056601781180317 -0.012631829831397599 -0.3602907428735215 -1.1771551569147145
Ni 2.0626318917568627 6.026701364076544 5.6212971160917204 0.02447998741923526 -0.04522081951101244 -0.09210437143642847
Ni 6.226398680241146 1.1765074456315878 3.1587235901802324 -0.45421391268624356 -1.2311727487817505 0.27992422869931144
Ni 6.963888569438013 4.261014642625063 0.4391637938093686 -0.4021899542104686 -0.3724350915455392 -2.243867549095129
Ni 4.531951773515236 8.274814077855034 12.065457130478485 0.4539778854160375 -1.8437815286015407 -0.980302500025602
Ni 5.069494447236395 2.510118258179098 0.8614677140960529 -0.010197252247975986 0.49423364761229077 0.1284314880022369
Ni 9.321799636092877 3.9749262090577733 1.107898052543668 -0.3645024669620238 0.3401950005649109 -0.629660078875122
Ni 6.65442066698716 4.807137192694227 2.6281919804651306 0.16299842734382894 -1.4728294493594312 1.3319635922485835
Ni 0.7360478776164793 7.381562873598188 13.412185805753106 -0.3189191219052701 -0.9660675873731426 0.40737792616931134
Ni 2.1508185819875045 4.6518479096663405 12.481507089116466 -2.5022119947411356 1.2230727453824355 -0.43542583344546304
Ni 3.4888720489546943 3.1603470101494233 6.495906757292989 -0.5275417748461172 0.009928057746989353 -0.3190595041378763
Ni 3.9232988624890797 7.695815885080239 1.1710679706264926 0.28114087471523197 0.0987838403391331 0.49473655539063827
P 6.843039113692684 9.061913608071656 11.687200277656917 -1.2719856690330547 -0.4606532405536841 -0.7424055236006699
P 4.57024190129485 0.5727849554582717 1.6984887966948141 -0.1613405800254318 -0.8797201730251494 -0.06342782943734238
P 3.1606524426407763 6.669451647773742 13.049819772458928 -1.3044011092492827 -0.07277610342146175 -0.13032690525273685
P 6.432843277805635 6.522621919203329 10.050388482049314 -0.3643903668641918 0.13065317824390404 1.2880625199902591
P -0.4714535614634029 1.9563784068861907 13.338019392428569 1.6072539217203095 0.41573658254665175 0.30242523801530496
P 3.8989105408310465 6.7657646933803814 4.677573655415299 0.19705680248011867 -1.313683048771841 -0.26237053608626426
P 5.89736458728362 2.8634666285543293 4.230745357178979 2.5557102237695926 2.186710126047531 1.5849963958736897
P 0.512983124757367 7.962856437823151 2.096237795782727 0.39394699747538603 -1.0567072013385868 0.20615233702348368
