# total energy = -340858.0823380549 ev
CRYSTAL
PRIMVEC
9.40948012697779 0.00000000000000 0.00000000000000

0.00000000000000 9.40948012697779 0.00000000000000

0.00000000000000 0.00000000000000 13.77172529065867

PRIMCOORD
 96 1
Ni 3.6780151263722067 8.468108449192853 13.613391758791701 0.46351050749682104 1.583307695317357 -0.2492481397716933
Ni 9.179926191272168 2.985477408530099 8.434617287520089 -0.40423860920938126 -1.0892360272042272 -0.32444056594413156
Ni 2.8660240616821975 0.5375372379715986 10.075394397505764 -1.422072530521538 3.251044504914072 1.418447532174441
Ni 0.5038023707704093 0.7336053926997419 9.795125512232646 -0.869594140334741 0.3700239110008854 0.07636793453777815
Ni 1.3672632903054773 5.0219429066199615 12.127119249087807 0.33334018242660657 1.902006473681705 1.2645243276590028
Ni 8.524113673331389 5.355226683331476 11.256250246057398 -2.1452680568526605 0.1207652297062307 1.610218146554956
Ni 3.6363593590231984 5.162031242805195 0.029884508041664863 -1.9211161979279625 -0.1764103298743607 3.0046325490395933
Ni 8.768233218870732 4.3097770137857525 4.5459502535816485 0.12845334237910783 2.243638978024091 0.21411247241082482
Ni 6.512253965080618 5.760380067228832 7.7131303639345985 -1.421822876404577 -2.6671492909788905 -1.8052851722985555
Ni 4.923802031659456 4.168559540017078 3.94350548257409 0.2254906323407794 1.2424784036025571 -2.3234419063853466
Ni 2.2151421111890977 4.955163828039452 7.365710725626423 1.0720967964207795 -2.4711417556988926 2.6985329474964943
Ni 5.768077021755936 1.6406086802961464 12.125301337578474 -0.20833288961457022 -0.168105152442775 0.8190650212369378
Ni 7.949871936314159 6.858071168968297 5.767929292922103 -0.02415885663439065 1.0601056854971742 -0.48958972108237625
Ni 9.01494037137212 5.0784280142314575 7.031801218504087 -0.3487146080001478 -0.43717546914671807 1.5438374051368764
Ni 8.379358235134609 1.3254381523189531 3.23952301437585 0.9355107976322082 -0.6884138998755628 -0.9822791641359987
Ni 2.1850223661508834 2.7091868513426287 8.536238729081543 -0.848021813480604 -0.32130022054293694 0.8322779203827859
Ni 2.829232995421835 4.303594985516428 5.1387672447944235 -1.0889897155213761 0.6289746227723232 -0.22007717463469195
Ni 8.798352963908947 1.6601709889292133 0.18615620864152818 0.5069899188366946 -0.3837422890282423 1.3054051250337646
Ni 6.117582741749513 8.774321152341436 10.963835604178431 0.39978365876182115 -0.24066734008121773 -0.13223003581272066
Ni 6.460737062836249 0.7120398058040581 8.723313302957601 0.7811368787325966 -0.05893816909710495 0.6640046177932628
Ni 7.744717046883296 3.0875326271131898 12.611236987986945 -0.6472094006127951 1.1824074064525896 -1.5567672258246674
Ni 5.06014539485962 3.3103114723255507 0.4284766616312595 1.828626418127657 0.8965341592586946 1.3793824478521792
Ni 5.908673469853718 5.076329700222235 10.242734469267281 -0.02487773707828619 0.8007101728788338 -0.3541131533078998
Ni 1.1910143230106334 6.372109172016212 6.161951262142731 0.2095513354027036 0.97456791153467 -4.0138350199289965
P 8.423996807599867 8.65631686539228 10.612505386039615 -0.18084985370295306 -1.4477151707903069 0.1289469941860747
P 2.8150529092698235 7.752771561645155 5.67170606995747 0.8301169081757253 1.181726578335481 0.672290769061455
P 6.247809943039387 5.348451857830845 12.491450545551928 1.069950182391422 -0.6909448938275327 0.5332951323901267
P 4.7462921940631055 7.112089487322448 10.257951480100083 -0.0952269762258102 0.011742999468541068 -0.002203435409222012
P 8.899843613700318 8.910335183746431 13.897874209147014 -0.5615047620551233 0.16444261598952326 -1.1269926771277106
P 4.368379254366196 0.007983002714908208 8.9196844429373 1.6907656663917203 0.12874233437443633 -1.5144797779103658
P 1.335224011375418 5.327976829651166 3.6067458440015585 -0.5601233083265643 0.23064723684105437 0.16746494775561482
P 1.4991371505711992 0.8022823633684129 3.004949386156491 -0.7792658869621288 -2.585726310515708 3.874769963472314
Ni 6.184192449692505 0.3965023081122478 2.912086288450573 -1.0049889470286886 -0.8712476167777641 1.244842018738727
Ni 0.6955562789818325 7.088405826509832 10.369378540625712 -0.277781985545328 0.7684394857705863 -3.0499032479519346
Ni 2.6452212072408536 3.1257915722320213 13.314999274356413 -0.45999555236502715 -1.514345823435663 0.3017559798624223
Ni 2.7328987405948313 6.308284670112365 9.68481441601865 1.2190011464162231 -1.0772888821446802 -0.8201348572623489
Ni 1.6657319915276465 4.047158430837746 1.6546175139146697 1.1618462944717862 2.218266303587257 0.3686470852580167
Ni 4.492518522185366 3.928664850935767 12.102605672151364 0.8928312564858107 -0.4817787096783897 -2.226127708613205
Ni 7.296298874580531 7.686255948500782 1.260816667470798 1.535832532554529 -0.38195665788272926 2.4099063059271786
Ni 6.722941628670327 0.4717301586608329 5.5574006495420605 -1.3782658177492328 0.1868533795845556 -0.23293731842681173
Ni 8.437668781839331 6.305612377831562 2.8719275693476067 -0.05037973800413259 -0.9909563801950223 0.6050170835154612
Ni 0.9596822606037282 1.3121049193545204 7.163858563627119 -1.3838163152538168 0.725852247227679 4.155029721134174
Ni 5.441417518867259 7.921812867365719 5.632938071978105 -0.03865550758866892 -1.1254772689244488 -0.10559880637843748
Ni 3.5584018183666513 9.639918023805174 3.0779801231573023 0.7161540461033086 -1.015043245940897 -0.8075729614369382
Ni 5.155152913026085 3.929069458569833 6.062217362241592 0.18474816031609473 0.5990865769636392 2.6983830521821917
Ni 6.612878942724687 2.4296594330826355 7.166461225756943 -0.054551609993635085 -1.1364895608745522 0.35404116241938377
Ni 8.969125613924115 0.5692396575225989 5.441374235259894 -0.4029695126889705 -0.9047519191827966 -0.5472400246059931
Ni 5.7804881256938945 7.866372212018902 8.264397914920805 -0.22861786511585142 0.4725083401200572 0.03997165529693116
Ni 4.014244070280522 6.5374995995503244 7.136769612052449 0.5830220673016088 -0.4802573879378568 -0.5028810388746436
Ni 0.6086155079010482 4.880725432851287 9.652560600947737 1.4840163192141862 -1.6300176977793863 -0.5392428653331294
Ni 0.7506073818623629 2.966291479091511 3.535600766765089 2.8205503044422717 -2.421495553426675 1.3728101939513002
Ni 1.4039884902068056 3.004371644092965 11.329006226246241 -1.505028145579163 -2.8178994970829856 -0.7331811767889244
Ni 7.7535055010743905 6.7618780563392225 9.172643253858991 1.9311180463356807 1.1075895900107506 1.617954338856949
Ni 3.164041107870991 2.6839976737520943 3.3742789983232977 0.5347511481103628 -0.8483131194687779 -0.39570048983138306
Ni 2.927063357546895 4.021479960294388 10.18228985252986 2.0029963205332213 0.8421041624445884 -0.17452442570555748
Ni 4.392928587326115 1.2517901534391953 0.8019727914809536 -0.5888512723888762 -1.273672312706858 0.06633626133338898
P 6.067543127843475 5.873190321294172 5.289595561294129 -1.21060083816767 -0.3040077520110764 -0.20185628075129108
P 8.281857204804718 8.228759509943536 3.820896196180479 -1.3430823278695645 1.0697241824235448 1.4138740538711456
P 7.689285801016342 3.8307121655725016 6.179882907915716 -2.2720712652228547 -1.242674321663447 0.08121112156269239
P 3.6487234155618467 4.98070115638488 2.3112401880715665 0.8903000054235246 -0.7140467699523186 -0.35436897807244777
P 6.732878039404584 2.0817156867461484 1.8177985955771887 0.5273970217381369 1.9338318457224177 -1.1271649410395168
P 7.774987343599303 9.047534809614037 7.288382679172643 0.49969261384433294 -0.4095993593006624 -0.48072687137510756
P 0.7039702358744196 6.48965239445213 8.25014443482587 0.5754260001219058 1.6965647895720009 0.41146777996796874
P 0.10005570411241918 3.7589837005845887 13.982294180572774 0.531666081427136 -0.3510905644314921 -1.291363559339034
Ni 8.002470928742655 5.282651365155983 0.2807920523534439 -0.32530342816505914 0.3963967445674592 -0.4018901635818627
Ni 3.190895763397097 2.3469689240555103 6.520774249095646 1.4871939456112193 0.6443135671222386 -0.35473998825862135
Ni 2.606821119924092 8.091964491709996 11.161776245399109 0.5811297353749024 -0.9246352883702851 2.054949316561745
Ni 2.5099693437046793 8.251511632249818 8.379929390562232 0.06664813614685296 0.553606333143653 -0.4253131704914933
Ni 0.08819693664235928 7.471061144057181 12.30540819161673 -0.5435497202385994 0.8984701999391429 3.287424586205003
Ni 0.6452701367034114 8.388626572798664 6.949570833042213 -1.4458287524008713 0.6627326930593747 0.3342436680774824
Ni 6.242907604031293 2.7029860041135807 10.150160242593127 1.0974962103304904 1.2536573030375118 -0.3180207784607168
Ni 6.565502211619592 4.879906808103295 2.1654525299339267 -0.9100316795244972 -0.2625893369652897 0.12102619667710125
Ni 4.254947974629965 0.18488498791217398 6.673612430493871 -0.7260736192098657 0.0014043365466943555 0.4584983989942104
Ni 8.625952473877655 3.7205647943081033 2.323510149811595 -2.642087462914256 0.46767595172842036 -2.9212208202811563
Ni 1.852472528868604 0.8026173408514995 5.3617041692684655 2.8978086120048028 -3.688693828373415 -4.556740421715378
Ni 3.7915593198667814 6.422638078875072 4.142893301797542 -0.3881262770285509 -0.2515891292000441 0.5744381822873397
Ni 6.798584437280826 2.644459039372033 4.36240047086189 -0.5203231456104911 0.16597242237048834 0.22813861148658773
Ni 1.405371683746517 0.6912853160724775 12.66770045379476 0.7454214276088581 -0.10091862729394878 -0.1257534269494415
Ni 4.432937695699276 6.571119671097198 12.446402660712675 1.084606498852016 1.6411492889161736 -2.611021851857703
Ni 6.703209949399746 0.44252689696117575 13.977474644987465 -0.2354400302440074 -0.4669203045093184 0.4151897089042462
Ni 1.4915719287621632 1.8261353947349075 1.4154991069219718 0.3127222490659389 0.46853032930891564 -3.7949117563930908
Ni 5.994243279718611 7.127746861812792 3.3573541668955453 0.9034229159587279 0.0983791487015467 -0.06489515801148824
Ni 7.126147250236254 7.350695077662667 12.957044782394762 -0.3455362102721662 -0.19789035412500758 -2.9730804852649246
Ni 4.5895678974818805 2.348145109038258 8.691335185646643 -1.1221654309423965 0.0012667825275655604 -0.9127933014300343
Ni 1.025115783563973 6.581902935019032 1.7515567982967994 1.6355188301032737 -1.6901966812621279 -1.0655060305771393
Ni 0.09129077362098001 8.511185048001021 2.1244403710074784 0.19835083870119388 2.3657936318786805 0.0035231826619100616
Ni 1.6822174002458445 8.039403137200948 3.794591995226299 0.4065824268512095 -0.34766225547623353 0.45175876627753164
Ni 3.5023024994294953 7.1138961074559495 1.7874182079467973 0.06999237002873752 0.17352298102423663 -0.011168872132625926
P 7.895965026184845 4.253367182013151 9.487795903824447 -1.239938925010155 0.9004075261711719 0.12155867214180355
P 5.387021315785122 8.353745630950284 1.4916848425205071 -2.7504525191839213 0.5383319234830858 -0.6208028855948082
P 2.1907245109472466 6.966289596860988 13.301048779513035 -0.3146909427565354 -0.48193940362597 0.25259854430116496
P 4.638967666757303 1.1756110044765635 4.669427094018535 0.7181222255732729 1.1803027014047607 0.46187734276877235
P 4.4035989374896065 4.598092886236839 8.40049098595664 -0.349388751249037 -0.12074826042536625 -0.15158118664582282
P 3.6355971911543774 1.470146543116423 12.035289312270738 -1.0893406711028917 -0.04222137056305632 0.8283814135418573
P 7.786673917587888 1.4365829284487222 10.821807974193641 0.2630354233637728 -0.13336672052032517 0.41004030349282283
P 1.2329053273561914 2.735109968362398 5.606662099463511 -0.335402464272274 2.121847363935875 0.6424780565753967
