# total energy = -381163.96072296903 ev
CRYSTAL
PRIMVEC
9.31471767196440 0.00000000000000 0.00000000000000

0.00000000000000 9.31471767196440 0.00000000000000

0.00000000000000 0.00000000000000 13.63303085901101

PRIMCOORD
 96 1
Ni 4.106001971198015 2.6064349230927237 6.185741784718751 0.04228256281829492 -0.7222964115556205 -0.6946938193470037
Ni 6.934723311598659 0.7364178359787631 3.0144130272493936 0.3489174680395733 0.6801352048065383 -0.5873523192458465
Ni 7.747246115058675 3.0498993063316084 12.140717964831751 -1.0455036193132832 0.7164677206889855 0.8664800201857916
Ni 6.467040662980936 0.9745616282793496 5.92269323236301 1.433717313849318 1.493293630751054 0.1419071538911685
Ni 6.99180390015309 7.3581889964650955 8.418137708168011 2.4263683081379437 2.3360837635190737 1.183978093373819
Ni 2.819089922553829 4.642334087447291 12.517125697123616 -0.698387723258823 -0.5566916569371961 -0.449224172781136
Ni 7.21626064662765 4.353531272804647 4.129117374030371 0.5848202968526122 -0.1252849719534552 0.14664081192141196
Ni 3.3307752964214097 7.3825283531708275 3.384795068820653 1.341757952631186 0.48180930580600895 0.20393553187782298
Ni 0.1052265001275606 4.285096043674523 11.133551099578524 1.2877660717957629 0.36432248974073383 -0.41976035899406416
Ni 4.30925842074864 7.867778558905662 0.3609797657737984 0.7195972674569027 -0.360861784885643 -0.9816726409002513
Ni 1.3224104368590912 8.878322940707493 10.926601364557627 0.018385701596039306 -0.7849673082222803 -0.3407781267618905
Ni 5.072655404359429 2.061710246417936 2.2247056927197333 -1.069868164200577 0.7615908382798691 0.618805138438489
Ni 2.342120500635067 8.190831589624453 8.30025250702128 -0.3683706916681785 -0.4218393530102799 -0.21882556161577796
Ni 3.613560803589157 0.050033073329188715 10.021695193394796 0.3128502900033709 0.5497095691924081 -0.09882317821750078
Ni 9.092421721373874 6.710881336476021 1.348639749736118 0.30947108911849286 -0.552448565390126 0.931141464919919
Ni 2.447507213902826 1.224000446963928 7.582678344450744 -1.326714170924186 0.5224237368932616 -0.18168134846531292
Ni 8.233446421973756 8.33449247690823 4.006352192409804 0.16610663395550748 0.1465971031676701 0.6286244385217561
Ni 1.059334871822736 0.5053234218469091 0.1852315398065521 3.1674689968842613 0.8318652583253996 0.04702959058497707
Ni 5.84345758834567 4.897389680756269 8.386126750167659 0.08253395413917398 0.192126712168353 -0.21661852666213013
Ni 1.832978044632264 5.263942441982436 7.596583354665178 -0.032684634717214674 1.4818082558192738 0.09898670037855854
Ni 5.797377681103703 6.485791189214629 6.7099461388437005 0.6937749070771599 -0.21541602171359672 -3.6688341133350106
Ni 0.6325270663340199 9.220228959551964 6.247881196322123 -0.3346853836005913 0.330271827913928 0.6341769929088691
Ni 2.817906953437247 3.30967746138946 3.075816576173947 0.5066117095616695 -0.15401267890545087 1.0585157153022349
Ni 3.331231717576626 7.224103638723413 11.399367985961414 1.2899664218811913 2.052112875554214 2.8275311066354787
P 1.5661300190272824 3.2304930483181136 6.866180031746075 0.7369591557741179 -0.5846362058662641 1.2205186115020141
Ni 4.335525923967226 2.018909119719566 13.026442338342797 -0.030873806760721018 0.026648970046096038 0.5145363637253848
P 2.2925103154782627 4.052861508126373 10.2417460785139 0.8222557602600936 2.351143228955357 1.0221166078479107
Ni 3.4851481087765954 3.3404812320078516 8.476881905259619 0.4627895701703965 0.36262427610270453 0.06332395686962643
P 8.126848795437054 2.7236606422437535 2.6853529352449033 -1.468642407861277 -1.5953659120334718 1.1846864322947532
P 4.524251414290548 5.7569704367908585 2.5264596905095833 0.27659413588481396 0.6252516653947813 0.8906355343860725
P 9.047049732658367 6.718612551962343 9.462482405192992 1.284985166616516 0.6874409944393323 1.281034152388568
Ni 8.900417450506955 9.261968208460647 1.8592595199270299 -0.17062483354083519 -0.20531570005480124 0.2071095587304304
Ni 1.9994227308070553 7.242658555890584 0.8599291264673464 1.2748930724878367 1.8579351943941034 -0.2294053940141533
Ni 6.7089625046806205 0.3826308950224796 7.978349843907982 1.4477136281284098 -0.6071215314529738 2.2119912692118224
Ni 1.5046063102475804 0.2556088875257101 4.076330870221957 0.5532399509431698 0.2891740294323536 -0.2974948905932231
Ni 8.744218953530902 2.2203491993667783 7.105412714516964 0.6309811116793907 -0.6059125987465371 -0.5710985763911455
Ni 2.2393605376891665 4.633187034908052 5.201259982351531 1.007039144689498 -0.4964741069070353 -1.2409642809508759
Ni 4.77125909171979 4.440009109642006 4.421191517442648 -0.6158365427284684 0.9719366445594099 -0.5655529639825679
Ni 4.009957919536016 4.929581344275216 6.6830070444967244 0.9796561246908547 0.15838561116216593 0.3157345535297014
Ni 5.969336680010907 2.470598398469803 4.400306057968637 -0.6595792350320576 -0.30321610934771653 -0.4057259923881851
Ni 4.940759005219296 7.2926320150280715 8.539130299057195 -5.093188240801874 0.027902125726906785 0.29563264057350375
Ni 0.07439757977204513 3.761916308469447 1.439525310872425 0.5319810415643935 1.7324198515973972 -1.7572502803775156
Ni 8.962919204619263 8.609695804068911 12.851407619732482 -1.302656358644034 -1.8123274238573173 -0.31641332476428086
Ni 1.4342056757347887 2.0948520111171307 5.055290908082802 2.577062978413755 3.2032235287760513 1.4237573744231287
Ni 5.682555159055651 0.6959183759631286 0.5433060452066353 0.6568569510048882 -0.6815508542071423 0.9794540359823778
Ni 6.552484566180968 2.7407717782056475 7.703371001437929 -0.9804716786136147 0.288589103463161 0.1849700465189137
Ni 7.2268142215023525 5.698436752313697 10.401280175810014 0.4162518316201734 1.1249198537590819 0.6921913646401241
Ni 8.737316747897934 1.4788045429016645 4.772542659784868 -2.779296182888491 -0.35339221598147524 -1.3636928050310644
Ni 2.7238935101800883 2.5821048811044447 0.9303400071693366 -0.46006908591543993 0.5051850044174719 -1.4572483070917226
Ni 1.5880382344776773 6.93212450542916 4.997391555864217 0.1902919729524594 0.06033324967241867 1.3951222271849393
Ni 4.599085854311158 5.453152297613335 10.328084194589458 -1.2835620610167444 -0.9557880598240055 -3.4102125027682173
Ni 5.251982344772271 8.446315659936289 2.325808567430674 0.655071062749059 -0.038446734011972496 1.0307136054883024
Ni 4.183779861933899 2.9218964590869962 10.886411153161445 -1.390099062938735 -0.1325480812737717 -0.48807842664417234
Ni 0.03861322973132123 4.487458280349621 5.814528870350648 -0.9292211079687546 -0.003706759427625874 1.8471519877356701
Ni 1.1524820463567287 1.681818809798501 2.2592111320541055 -1.305539850839416 0.6444071552773096 0.97753522169311
Ni 7.890795225733011 8.309463831110946 10.571787941737977 1.2125314795314797 -0.555413818666037 -0.5207234663727033
P 3.6383193225802923 1.2917370722850474 4.407272535152034 0.41504675556847875 0.33842916691373975 -0.8360425296315408
Ni 8.919466047699157 7.137597857733694 6.6682292452569065 1.0685885261572048 2.4650587827296064 -2.3512098205272345
P 4.921030433652995 1.7249925251950065 9.0594755657412 -0.3544592237934089 0.1336415714482666 -0.8859317011525001
Ni 8.163958629771397 5.1597107536788975 13.35737096266844 0.09838506223881766 0.15731397536454195 -0.4835185751876318
P 7.144965799239333 8.274161051962563 5.902134719471613 -0.06056413473630214 -1.0241104983494878 0.5839715756990718
P 7.06340613321737 6.932795165085804 12.595979437725367 -0.17685975870695347 -0.09803102133350858 -0.7510200047425581
P 2.825246950790526 8.766658107876143 12.811122398218275 -1.2487958611801524 1.2021784184319295 -0.3716851007533921
Ni 1.9455557197740474 5.599803209199653 2.7447929417302803 -0.2828182624176549 -0.3559640904737096 -0.3655193382623125
Ni 4.489759015560611 0.10233893771700685 7.541383407564589 -0.28601902874313967 0.1299515241911891 -0.32124905559002737
Ni 8.198600063980589 5.657293645322032 7.869380690307645 -0.7728088184828755 -3.9658029562214345 0.4927344373589449
Ni 4.335265111878531 4.290237767708799 1.0437280627295658 0.32961696793874845 -0.11954884080062636 -0.503831575713371
Ni 0.759720464631932 2.761469080387101 13.157510659101323 0.3663066100502982 0.972646269031925 -0.8602857184496218
Ni 0.4139069218157582 3.9029318159964586 3.6538972560493574 0.31637707220970673 -0.5055660419059744 0.2783730821621077
Ni 2.3985397442503062 1.5395271859803743 11.768645302042701 -0.48405336464517923 -0.43882817425879267 0.6929881495098065
Ni 4.944680501267177 5.75393383890105 12.308759193578057 2.1724196775667877 0.31019948264408514 3.7910605009678
Ni 0.6152165954186228 6.583251077929545 11.994694865201794 -0.44245445815747025 0.712178092174696 -1.2148552425686496
Ni 6.077657529276488 0.6303735036587941 10.45841572119742 0.17339185476301106 1.3369381626450396 -0.46703780392378924
Ni 5.467832292319892 7.762345272050635 10.573819481614565 0.8502905549101227 -0.7760306678542829 1.9312057209534805
Ni 7.236100994803392 7.93025236886561 0.9205921553543545 -1.655552608825697 0.3937063422194897 0.09417230970905072
Ni 7.015742724008326 5.87546295751555 2.2780380389709163 1.4863141141094274 -2.1733912974514373 -4.22834807021235
Ni 0.179753554472208 3.9395945438930378 8.596388798714985 -0.015790430065037324 0.26267829713467017 -0.06769611779539308
Ni 2.126149461760552 6.358710498997903 10.02758488924058 -2.974932193761683 -2.2253512354584966 -2.9840259285328354
Ni 2.9469903079064537 8.873423399327004 5.627728732124944 0.9363075825018908 -0.743655593957687 1.2948309490623442
Ni 6.280699740325685 3.5892773351881457 10.353114703330233 1.0238521024817786 -1.0359424579874095 -0.9012824725769574
Ni 1.112102746196243 7.956240430560594 2.96435294123959 -1.0421969235375537 -3.1431905839528707 -2.097674880454729
Ni 6.721239302284201 9.079194822590047 12.42724333105704 -0.17666435486669577 -0.005243764897442582 0.4899401624432594
Ni 9.129037875683187 0.4505929365059712 8.84280592305768 0.06344068495314881 0.1699136664064235 0.12480314722103023
Ni 9.002748936449999 1.3238449033469146 11.516011535271605 0.651944087084303 -1.3803545819574614 -1.1700514559903978
Ni 6.7102106768193766 3.467058927482094 0.9015836114472024 0.4196246047471483 -0.2820811271413142 0.2872295041114731
Ni 8.858762034055353 6.097265009515893 4.218509785958898 -0.028197802590454665 0.5386270861260014 -1.2306130196235385
Ni 1.4533567348189778 2.3315669257603653 9.600121327643146 -0.5140902773269017 -2.8522851736517074 0.43756267728280773
Ni 6.18590386080244 6.717001105842905 3.856593891081033 -1.995547834674976 1.8059919685575931 4.141942548932912
P 7.299748459162468 4.341841302400631 6.33697367434865 -1.466172863274862 -0.5647883179024016 0.3660731538832534
Ni 3.2499328636433575 0.4857643781382614 1.7749929970131084 -0.03288415232253047 -1.1807837548062377 0.2835852224906664
P 1.1802771632376718 5.55940527960426 0.03860391501386784 -0.6439338151853168 -2.6954800196027837 0.8864562061974024
Ni 5.254776760008291 8.915348942584755 4.791573559013908 -1.4465345202186441 -1.0408650921000075 -1.4751344433435238
P 5.65303681944583 3.583036474494368 12.545155544884384 -0.022076777294381334 1.0908594217402632 0.14186241669616215
P 8.368165180502269 2.6856845391862447 9.900415709208048 -0.5113628510934096 -0.8761016024359557 0.07110668613883883
P 3.273070621797601 6.926274862868426 6.745078458662687 -0.03108129478583679 0.6003227633635854 -0.029568971906368424
Ni 8.12859064760084 1.442747271639556 0.18311616747288512 -0.8097306312098894 -0.17034226930340987 0.5628407072577274
