# total energy = -340876.3131011473 ev
CRYSTAL
PRIMVEC
9.23836344705573 0.00000000000000 0.00000000000000
0.00000000000000 9.23836344705573 0.00000000000000
0.00000000000000 0.00000000000000 13.52127873285287
PRIMCOORD
 96 1
Ni 1.3099075652533714 7.5795876450344375 5.8492375362415805 0.883320231671582 1.6304396158081533 0.03256379286863424
Ni 2.0677120490858245 6.569538883314418 3.6664164013789 1.225429161429754 0.2995983100894711 3.376063110580018
Ni 7.002346976441966 2.054676718141664 5.150606618506601 1.382107045872194 -0.05164626342138202 0.6078329556977016
Ni 0.41243473002963493 7.3100953424319535 9.42373683965526 -0.1738554246629909 0.24611062258397615 -0.15899264861854556
Ni 7.824552092458504 4.307202229692357 7.773897221374218 0.8403946359526494 -0.16307813154182882 -0.9703908973388449
Ni 4.393562451992862 0.2910306233418281 2.4531116320743602 -0.5606552695706344 -0.33234722238571796 -0.14990174206087087
Ni 5.1688551579920725 3.8207100060782624 13.52776897854395 -0.2965065585380248 0.8029920269344751 0.22323937441275749
Ni 3.581464105680727 2.171911551367317 7.424899562212242 1.0458854281327343 -0.6131841927072859 0.14515317163229197
Ni 5.732607815827298 5.947159570502834 7.529175742911053 2.087580986553837 -0.19084321747023908 1.645642805911153
Ni 5.947251954138157 1.6366684833929563 0.9685777478232542 0.3893856033569488 0.40571365109301094 0.5193309569005508
Ni 0.339505240632476 1.832817417912031 3.6000406070715973 0.09621479406037624 1.1925164698621333 -0.284931966326548
Ni 3.96638052225652 5.159395073734936 4.0217155483062985 0.5529188201583252 -0.9175375009832392 -1.2486238543786625
Ni 7.13222912934342 2.96411970099428 12.518838058811346 0.6370710266272125 -0.6112712919552892 0.12055157103352786
Ni 1.8636273602924525 8.828577441155424 12.94055364884559 0.26629121129690914 0.7020096362821265 0.2813373069967542
Ni 0.4597739524421557 2.9705680787398676 11.355954429993723 -0.0006386620252634162 0.3890567592626203 0.18503740942173938
Ni 2.6895278217219336 7.447608383611137 1.8289557819555045 1.343161260736616 0.8467501458570319 -1.9423727933138935
Ni 2.205807107167547 5.268324618144997 11.341730121662946 -0.5002281746328289 0.4144944826094345 -1.7213018873073644
Ni 9.215193716621172 6.019505195324747 4.5981136781446175 -0.8824702249664609 -0.1644153622960136 0.17638127640863815
Ni 5.507016216730591 5.595279541918761 1.8338096181554062 -0.7291923673445054 -0.5166454396485877 -0.3909760877725202
Ni 3.454602897654355 9.17052622894221 5.957975846526521 -0.19076994103014244 -0.03076813442079217 0.44679370896277243
Ni 0.6024152092181525 0.4481788823726903 10.320292305380233 0.14840793112416378 0.03485438867502385 -0.30327164517600025
Ni 6.524631198183614 2.3336291050012843 8.251116899510883 -0.16807661319768474 -1.9849320068323426 -0.49748095090499483
Ni 2.5919891795472734 1.6996833610471862 11.455754623561106 0.8008880932175949 -0.9142704001961932 -0.8142274906389784
Ni 4.313650607437945 3.0732894428561823 2.232133671725714 -0.014059049196227401 -0.3960997821523307 1.0935482814263362
P 6.368327325579609 7.713470009345403 9.200445593078111 -1.506952359185069 0.5866730337906347 -1.6457597911049915
P 5.44955359555931 1.0931016498759392 6.5263430669461595 -0.1863378734007178 0.5994269910221934 1.1773004242433274
P 7.891400890978663 1.6632195401849599 10.77591823259636 0.00859108410312069 -1.3674466156465417 0.5754110877235703
P 3.7560229846246753 8.651672017874256 0.37352643817674613 1.3388988859158362 -0.940599010788393 -0.4997106115664619
P 0.38608506956263683 7.747947582048172 11.794570682274067 0.4232783994496517 -0.9731869720267433 -0.07294579623010662
P 8.599724699731794 2.236302945187868 6.825122829618931 0.1144436583635771 -1.0858177455512978 0.3381262909613402
P 3.330143664146396 7.070322855313073 6.709312552049969 0.12703795008881993 0.1378854343262851 0.5502826680870587
P 2.4738489866954496 1.5316005749394221 2.6024405402114326 -0.04737000464353132 0.9001002793433981 0.2220504963109789
Ni 8.867674195624373 5.405163258786318 11.447912176758484 0.642056652767262 0.6554852674683421 -0.20486061479525366
Ni 2.762418509992257 3.6812846236478802 12.857802855177178 0.4721923515415352 1.2642805870793128 0.8496197540953431
Ni 4.739151155011397 8.43962385971599 10.592894241147711 1.203934739001404 -0.014577383593542636 0.2528137456357646
Ni 9.09440211343556 0.19226512649007027 5.284804934850374 -0.6520574727337157 0.2638530341690617 -0.34983149521341045
Ni 7.688443282536239 6.050065701889796 9.377872060062504 -0.7425153097056567 -1.2705697625221344 -0.17150877880768528
Ni 0.8230809128794049 5.903702308446611 2.0456342079161898 -0.6968615164222837 -1.6641920296682502 -1.136310869204843
Ni 3.68973772627999 1.8073287729262488 4.423824559415815 1.080013480164695 0.6630882766265805 -0.43428066409742627
Ni 1.6641526149017283 6.063729241554156 13.382672164741052 -0.1424401435765031 0.6279261269031509 0.3726598059618357
Ni 2.0620674089675526 9.132593508278338 3.95777313895342 -0.35845548943699557 -0.6507809200141372 -0.17796327618377739
Ni 1.3833063635179743 3.704694636838881 7.443734737782019 0.6173599213515304 -0.3798676365641845 1.6772432064252532
Ni 5.7017332049021485 3.6556296881185157 6.39775520877559 -0.9353670729654923 0.48913669270535753 -0.7408044976621371
Ni 0.055344264413311035 6.177555118636368 7.202730776804275 -0.25217662627239795 -1.2813254583767417 0.4888487291512935
Ni 9.065541465760466 7.621308094746576 0.7081214885917726 -0.31019151222428515 0.08319807008573413 -0.29824796670916376
Ni 0.11546938195461855 3.8120167059943113 5.63761619047851 -1.5640249358283451 0.09265458751294366 -2.3397347300080997
Ni 5.018260594051067 6.510228589436664 5.465450047689441 -0.5473510962625606 0.33516515145048725 -0.9400829903839228
Ni 4.790137683346494 4.165809075829583 10.950464177831364 -0.9387748130954606 -0.289264789373947 -0.4768882143553077
Ni 6.257309911011235 0.23720329822053066 12.409694184367334 -0.2030464444046503 1.2129053179311304 -0.6760340381539712
Ni 2.485775714015727 6.494606516703442 8.632092230203773 0.18351840167405167 -0.7731556602993329 0.4826539131944913
Ni 8.614949522833124 1.7712529633323817 1.0319048821648777 1.3016896238553903 0.08959137520658764 0.16505325299032866
Ni 6.463787335959488 5.426208250913035 11.87613157471951 0.4131009446960176 0.3144618574648648 -0.18197214023285435
Ni 2.3115217010683464 8.025163156563707 10.647871742528785 0.3523424345607222 0.21735926148289664 -0.08963791217380691
Ni 6.888641198085675 7.322142168478151 13.257019334664712 -0.8702176328513529 1.3260762802298711 -0.00568522331023537
Ni 7.447913249607705 3.656461140836428 10.229604833601172 0.06540063689299704 0.9612192581419059 0.3194474836049144
Ni 2.0165592302071453 3.866818678468273 3.9785954865190067 -0.303253133233239 -0.5763701092027299 0.2509484102922517
P 7.409564802584877 5.44450944907064 0.31022701892571963 0.30450886001721106 -1.9057124617783827 0.8886706973502179
P 3.3493964137478356 4.794673719840882 1.4749416913954563 -0.6251022843011105 1.5667186806104243 -1.1172577092281337
P 7.367909021417464 9.298967197132614 0.8845825465870342 0.3303186219914634 -1.597103720660185 -1.1947600144806714
P 8.403492619940929 8.056102436033584 6.779217401226633 0.4000096587296982 -0.14428259610188054 -0.4152092492882721
P 0.7261815654611838 4.959421456713464 9.168684099253857 -0.34239277954717806 0.3597731798071546 0.6438327708310783
P 3.8227239693283166 6.502717799884855 10.72075134476287 0.6901874468362178 -0.9074186673816824 0.05844965949646063
P -0.2140870649898586 4.156044125575877 3.2232835131675843 -0.1135255174246819 -0.7984272903819281 0.3615960919485062
P 2.4133561822855545 1.2143828863287658 8.95848268996571 -0.37430762597790374 0.41580523100105804 2.0816687348344605
Ni 6.321645874650592 4.1313222647632815 3.704384227824194 0.0706045496914397 -0.26663676756178595 0.9166468708481698
Ni 1.743547111098833 1.7450991561722695 5.680343621815676 -0.8158953652597046 0.4464175565702764 0.6845996683357952
Ni 5.610125592115264 9.286680173634577 4.658527032628135 -0.3367805755667232 -0.8098825834067213 -0.8383968887963302
Ni 7.448661557053826 3.4915655901473284 1.5829492471249875 -1.2213673326555545 2.3102482905132082 0.7984614860539732
Ni 2.0354609219943547 5.376016221841721 5.850671330261803 0.8407232229366618 0.46362800691129186 0.36842956993057197
Ni 8.831404380396327 0.6204956104873349 12.578683253937623 -0.09978168547602816 -0.6394845211647117 -0.7019661846387008
Ni 9.025465444757089 2.230094764894122 8.975667893808605 0.6446976899345349 0.3438984175584271 -1.0325408885050282
Ni 3.8427712181935387 4.6745657555566655 7.804279427523092 -0.4952062959382052 -0.4895791795594149 -0.2464883176383691
Ni 6.213566259685509 7.818999835975554 2.091701307670305 -0.04942508740034714 0.03072493988768257 0.25041644904818167
Ni 7.927855473477357 -0.016962559281766806 8.447729599879283 -0.6292283906543421 0.2718807895695447 0.8178396334702689
Ni 5.516919742437281 8.185116182762995 7.042260402247176 1.4914732897128635 1.225864963415592 0.5141172739100952
Ni 3.650705640355768 8.683368843153785 8.425379226985443 -0.5406011791332367 0.4817062045692414 0.32901558690932364
Ni 0.01963706552438512 4.208102304080728 13.539126622670633 -0.04032775308476926 0.35590109844625806 -0.31679359092183507
Ni 7.723678401048661 7.978472467271159 10.792238725612627 -0.441352226232227 0.7877633829101788 1.7557233022100278
Ni 7.654640110371331 0.3510689002659314 3.1007671075104812 0.3182202960660326 -0.15710803000132298 0.2454439355342547
Ni 0.9762271128280486 0.168470797376123 1.669188446863218 0.5976776124312546 0.2537156886247437 0.49877395868480545
Ni 2.6419964413479398 3.6234524679353046 9.677827866412947 -0.7875147572344824 -1.1037439910124152 -0.2763452530988015
Ni 4.642665686279426 1.6461378060136258 9.801493524493475 -0.9527143059946883 0.32653087281425697 0.6013982558159513
Ni 7.773436227033954 5.894279177643603 2.6620963488852962 -0.5671516759282554 -0.04972950601464339 -1.21576772708059
Ni 3.659537515892704 1.573616652284597 0.38049308811649907 -1.1473447584215015 -0.14509326492863397 -0.5594818180878235
Ni 6.983833295923116 7.254563539238935 4.415806583706079 0.6356258095402537 0.6721393310852555 0.8175272444361726
Ni 1.1178327490520676 0.1508412282473198 7.549213753412742 -0.22601462316504944 0.33707985197469686 0.2950479717146273
Ni 4.148468667479342 6.163679096610763 12.966649254315449 0.1949256150697288 0.40146850266341183 0.14265765890394785
Ni 1.3509998062453101 3.3516782895403283 1.8199640827294579 0.9142171783607546 -0.3221702818527161 -1.12632727562957
P 0.12512993870040776 7.9104134431282604 3.093330224866931 0.1313373487951222 -0.574266689706482 0.6464282994723964
P 3.2917490253059065 3.6084308888316867 5.847425893152885 0.20102709998177634 0.24847578038204302 -0.482333296630279
P 5.961248074889684 1.795697673239007 3.302315865514221 -0.5888019072081795 1.1490026057398988 -0.8566118691424603
P 4.968761442244681 2.1491112701694517 12.080870339650973 -0.3226724183001152 -0.4628913858555834 -0.514712484291933
P 1.4023004389405072 2.169297094487659 13.304776131108897 -1.7677498943572587 -1.4681708675414975 -0.0589044876456921
P 7.163140693722697 5.39769866105217 5.725571878161052 -0.20554709933931695 -0.42052217686075316 0.07774347472906612
P 5.840170082434569 4.2277984951317205 8.971801638670312 -1.3258441096144071 0.7748019376535042 -0.6931804680262708
P 4.473391151275988 7.484986802463067 3.463516070790376 -0.01797535353149807 -0.5921512832963866 0.2013855117624596
