# total energy = -381165.8264783066 ev
CRYSTAL
PRIMVEC
9.31633655096185 0.00000000000000 0.00000000000000

0.00000000000000 9.31633655096185 0.00000000000000

0.00000000000000 0.00000000000000 13.63540025207074

PRIMCOORD
 96 1
Ni 3.356340737734665 0.31955314493404924 1.6935031958668763 0.9587286305095682 -0.15745307204556755 0.9147535104801987
Ni 2.3816376394400427 5.790522516363812 1.5204019327836786 -2.304227281130109 -0.13291420636393883 -0.17437478750157065
Ni 4.097418059709221 1.8535131425691291 3.4191039666891117 0.19463945128787769 -0.8633676998090549 0.13596430604417228
Ni 1.4104561164314984 0.9743211284884604 10.147028832325322 -0.0705487567528398 -0.8956864665464187 -0.4403271274018223
Ni 8.450122378648912 6.253423339748393 1.1512355681975626 1.9680964233322427 -0.13566682940841152 2.5950869257950018
Ni 0.08451314869751075 6.729376350899627 3.2537333998291618 1.526864524727964 -1.6324435336120597 -0.5522238509738295
Ni 8.088965268754439 3.344313347008932 5.779923320059655 0.2589486548889089 -1.075984818621276 0.7111447658141753
Ni 1.0628915418343496 4.747549302470296 4.88291847014041 -0.7473824079899709 0.09341434849710363 0.3516274107715686
Ni 3.5623994736539224 8.851367685516914 4.003353802590316 -0.10351904103127335 -0.12182272443646762 0.0806015130031515
Ni 1.22005814256488 1.7821872685209408 6.086979530896494 -1.179937090535226 0.7127835869691789 -0.4709847043866792
Ni 1.5099080110846348 1.5527724764053916 12.74513155581835 -0.6791612709290433 -0.3175546374575757 -0.36516066937131303
Ni 3.1210752861491238 2.3655855912445056 11.501542209926548 1.5672228739403524 -0.5099502870165992 -0.9190737351221074
Ni 6.212981121978905 5.671142977433106 0.7425446450104225 -0.99003206860854 -0.44796741755589947 -0.44968517157795457
Ni 5.3656230305239765 7.798025388836613 0.10099561165023478 -0.7261816055426397 1.3467592625005191 -2.1738186147968435
Ni 1.6726364648463523 8.477661470039513 8.17821297978101 -0.05532705470707891 0.4054467705848695 1.4450450801573111
Ni 2.799698934115906 2.6183937049032893 1.4451482911677371 -0.024911675640015164 1.0577652102894557 -0.4091437598204824
Ni 6.112159725825627 1.9032344317273298 12.215328255067673 -1.1713496059765311 1.8604412486454087 -1.5680353425393188
Ni 2.8920983618601506 1.7749112095303927 7.882134208519795 -1.641578663144108 -0.22105856471135474 2.542575486159847
Ni 9.042641395036684 2.890132614808927 3.6110764014640555 0.145999064572355 -0.4768655886474884 -0.14346318552437873
Ni 8.892676322602815 2.2789157105926905 8.40966059657228 0.15485162986697845 0.0722225449108369 -0.09733399526648398
Ni 8.470450625406114 1.910501174381142 12.368549387190651 -0.1287312786308428 -0.4356186661825594 -0.5580083188660907
Ni 4.322342377518184 7.299955394274928 2.0926383524642533 -0.7294903582008985 0.46360049610746606 0.7439471570561768
Ni 0.5778662819699321 4.602894541975753 7.179597639986978 -0.10803621217533653 0.05092455476400907 0.7897130504373818
Ni 6.046479551839247 6.148670449492667 3.1386235380244067 0.4852062473026998 -0.3587406247775822 0.9300909121682175
P 2.4623450645810374 3.514215380057105 6.658288975071872 -1.8450146296776933 1.393464379866542 -0.5940359019136092
Ni 4.824083008753717 7.874065329273043 10.96588918133955 0.22128944977523823 -0.5104611652147467 -0.4753486377823297
P 5.809956394794392 5.8719007177497735 5.3926916469094275 1.3577851812973776 1.3324348754580473 -0.5445709624142621
Ni 6.873900682679871 8.060028726853488 6.219896638737784 0.41418312201660284 -1.4551955383277517 0.5905777681616797
P 1.723326653025061 8.060028726853488 11.403994574502182 0.7138313115074029 -0.28775452337700763 0.540975788863836
P 7.794867150683225 4.296340481688966 7.938066699379658 -0.08337367643164996 0.2592157925073665 0.5439628965166181
P 4.7794391231164495 2.772579077878409 9.660599600514841 -0.096556236560195 -1.76177002262474 -0.34868863985821885
Ni 7.12444492651189 7.942596302300535 1.5803022514592577 -0.5583271356580901 1.3631248483427363 1.317018283792661
Ni 8.314634893502253 0.7917330397073433 4.849020978927723 -0.0002666233978253473 -0.08228995644916795 -0.7112486383818912
Ni 0.23211187160052157 7.285366010946889 10.057430827037491 -0.6458860538156812 2.289470177425592 -1.98757741487499
Ni 4.9159979869877075 1.0323619063516023 7.417835002991193 2.328632706557667 -1.4160450933805355 0.4094641192743787
Ni 2.54919195563083 8.177526365763594 13.600971240237424 0.45972070143708565 -0.3181997272407423 1.5824026670045845
Ni 0.13253420640145377 8.875674008060242 6.628713332470856 0.12733774071742587 -0.34306538013417043 -0.7556245933941051
Ni 4.267003337308383 4.776206354269176 2.275557171199486 0.21886567082509406 -0.7198170967771925 0.3257687978372519
Ni 9.023505639381645 8.778672309968584 0.3744813346938083 -0.4524897309062853 -0.7498797204905279 -2.0017601341332747
Ni 7.902815544439281 5.553850297931187 9.958096318227224 -0.2225459478901587 -0.3840477360838031 0.689886113545715
Ni 5.964169716779719 4.845109980766095 11.862662054474077 0.2118571007177448 1.4197261417765485 0.2075890694700102
Ni 3.3173984501796197 4.398074878842338 8.378299012219038 1.4101187005937714 -1.008078898807922 -2.2110916402156886
Ni 2.976960873185248 5.8420698075222015 4.112272958634226 -0.02691790743676654 1.4709229763653378 -0.4789474108771816
Ni 2.3078522524936407 3.3572164733878167 3.6412110242692113 0.22128147935543827 -0.160109278721492 -0.1495682699808521
Ni 5.690856345965756 6.099685150936583 7.750675107377637 -0.00425980371761847 0.5440554562304243 -1.3373613662253871
Ni 4.049606619581831 8.194789537734765 8.272597718883622 -0.3463841600947583 -0.8399495779954308 -0.028526132464150873
Ni 7.59337341976444 7.621080205216283 4.135548894334591 -0.189405456582448 0.5603968737029252 -0.438579034362464
Ni 7.375026435690851 3.190584474533859 10.358500359887998 0.7896122631934596 1.635313656071003 0.4404227724394222
Ni 4.292613946994703 1.3513998578641697 13.588262825296315 0.40437950566261965 0.14400208874698422 -0.26409317520432585
Ni 7.211981226480121 1.3736659026623896 2.756655595129825 0.03525728054039734 0.34283963727660954 -0.4642733538047747
Ni 3.255351647520145 6.042361731002086 12.03408637694486 -0.8020769713193735 1.6523094192980512 -1.1549613944264947
Ni 1.4735929304890447 0.7414891040582726 3.754657919966651 0.26610454920739973 1.200384045535668 0.5436798180585605
Ni 9.162048882977597 6.647150362870719 5.687734441525636 0.6037814113361473 0.47294774165032094 0.49058936599148406
Ni 7.405807612265462 4.120932493630019 1.9670569281686203 0.2147943289691978 -0.04963051854293388 0.7885766228400934
Ni 6.00625160981468 3.327488042864336 7.042206827245226 -0.45874753889053904 -0.08469728033907994 0.23697754993445636
Ni 4.293396519280498 3.8537585887248538 13.571750550066035 -1.5569515739213315 0.5391227948154973 -0.7426091549710436
P 3.946362975877282 6.26666185424976 9.615507599080589 0.42738959340454774 1.3387122238263267 -0.7117875416044968
Ni 6.821114318735639 1.1650544904775624 9.849709125010918 -1.135796905682902 -1.4730873310065082 -0.4318044346427918
P 5.665972410544817 0.2845591208875752 1.5968005521844322 -0.9300302341336111 0.31897002974786354 0.0356858834373837
Ni 3.1887305235234633 6.260745980422618 6.839121866011991 -0.5165071142985105 1.0922457605648286 -0.7298492842022141
P 0.06380106886679852 3.615996358894156 11.415871040572798 0.27538366051648056 -0.2150583812638619 -0.7674627236796138
P 1.4006553301855875 7.951418873189202 4.544078644896205 -0.019859457928088377 0.228445086983413 1.6218122791504586
P 5.955458941931879 1.838103921608353 5.104780508064363 0.6445035716458578 0.18927047366648048 0.9379924264034813
Ni 5.618384562499082 3.5807992387068444 3.823488879037031 1.4082178840266328 0.8472702800265602 1.1562279198437444
Ni 5.44944211213468 2.7100012440250025 1.6312439807298291 0.3743544200554391 -0.9382986447899906 -0.2826076890687455
Ni 4.640131939908174 7.861273998934987 5.750320660082106 0.005901195975783386 -0.9917408237695309 0.7636176389019107
Ni 9.156999428466872 8.99987940942002 11.681407133479834 -0.353905665282784 0.596732732019482 -0.40481016544213505
Ni 8.754263507721163 2.6055930582284965 0.8676229871223301 0.5156979881336538 -0.16682011508276431 1.0033128448778463
Ni 7.5048682207757 0.7031644896288012 7.00862329658053 -0.9079714545613589 1.8996202328377156 1.638210518002824
Ni 2.0827602406234367 4.043169030897492 12.834211572783682 -1.2577474139464855 0.0692323519342614 -0.0389414142602039
Ni 5.579824244750198 4.7325500003258885 9.662140522610919 1.41894504063615 0.20850258242321512 -1.8367431336975208
Ni 6.855826989412697 9.212133509268488 12.253438593752223 0.1167404248175538 -1.7816297376631445 -0.034738689032765974
Ni 3.389721172258523 0.03895160389178112 11.947774243623693 -0.5242487059171422 0.14605691439348395 -0.8506793057081092
Ni 8.209350972052597 6.689101827191383 7.917667648463264 0.14546813176954948 -0.2542826168718072 -0.42939891052509277
Ni 1.903551187176342 6.183923467700392 8.711657104927983 -0.9574878161239316 0.13609491808476562 0.9630254581127092
Ni 5.8762141816583835 9.199286280910018 4.177546008705258 -0.06257242341558256 0.4451250630110979 -0.5051587791652268
Ni 1.989065842072936 8.043473596474227 2.5177083272663516 -0.4144186350661766 -1.1151859143007699 -1.5396907299583547
Ni 3.4997377927698943 4.370088603288425 10.528424752144335 -0.8974854674283705 -0.41813259358265403 2.698574342257391
Ni 6.385528994660006 8.357517991496483 8.67477372779152 0.7827721003431745 -0.18484097714021713 0.4053169298752245
Ni 1.1207553092995142 1.0376163202705129 1.1732072167549354 0.36924023875732537 -0.3640486672540569 1.5519019273125658
Ni 9.154437435864565 9.033203945923464 2.49170549980346 -1.6093380579428476 -0.03907125496984884 2.4073925383663894
Ni 1.5611664958042186 3.3227553438026223 9.595763486636713 -1.128073054676083 0.19388817494414995 0.6987607903275256
Ni 0.9105154014532942 5.585740118577339 11.198999764238136 0.6818084787439032 -2.2988040532320086 -0.7424050093800375
Ni 9.021064759156904 4.7181935254162415 13.383009020871018 0.06715798590373595 -1.612006091693314 -1.4031726082932414
Ni 7.945409835994703 5.117910953059597 4.32903523382908 -1.0133432325306548 -0.04351643522539602 -0.2609944816743441
Ni 4.166060828777541 0.6260811194779767 9.889224367275206 0.4154419341243684 1.5166513316403882 -0.7435344949987904
Ni 7.563365499138889 6.953890749892221 12.887390154504482 0.6285856148640206 0.30507655959522295 -1.0489334709304388
Ni 4.21732862983386 4.593037857709428 5.669790245339088 -0.20937418639489103 -1.5666942551303922 -0.012912594296610022
P 6.84998564627944 7.251230953147443 10.946786032863088 0.2182061828642242 -0.14388767465630703 -1.0184391589963233
Ni 0.9400835909849217 6.7197246260414865 13.078326612634422 -0.9598244346769083 0.5454759907270348 0.8721544448627496
P 4.073577554002676 6.037843307685293 0.22425726809868934 0.5508711936006772 0.3712557265254574 1.74875381287073
Ni 2.7291835813637197 9.252277604262433 6.2149338261587 -0.16014064618005966 -0.8021479337666249 -0.05272869785228339
P 8.596407498072194 0.11576200537625082 9.236552559486318 0.8123958367468783 -0.07163401939721857 -0.39079508210996566
P 6.3216655063370775 3.598453696820914 13.44312734182621 3.140601740179772 -0.8735451545626891 1.7144558109198085
P 0.6385752586741661 4.252255576255838 2.248968346155922 0.042057848401998534 0.5942266777681765 -0.6853823121380906
Ni 3.776991974023041 2.150741549783524 5.807917048682957 0.7066126822717766 -0.4174211693379262 -2.232167229939065
