# total energy = -340855.8237863912 ev
CRYSTAL
PRIMVEC
9.41333023322554 0.00000000000000 0.00000000000000
0.00000000000000 9.41333023322554 0.00000000000000
0.00000000000000 0.00000000000000 13.77736031032176
PRIMCOORD
 96 1
Ni 9.440911212708324 4.732834135508451 6.888666535690287 -0.5517093732312564 0.4487906847881432 0.40748771227429825
Ni 1.767333910007241 6.458918832774935 0.43605745811848556 -0.7659018069503971 -0.36656886257274934 1.5482843851646366
Ni 8.374748025982871 2.787192925698511 2.296189859463229 -1.7341805430422454 0.6633232754555222 -1.8909594718389238
Ni 7.732598882775146 0.5331860813274504 1.5706329630809819 0.09987090275572477 -0.9949338767855316 -0.9530364652207974
Ni 6.581103858191419 1.2574985354631598 8.889318305595095 0.3869715945988174 1.3616652330780743 1.485341722893829
Ni 5.718861642621381 6.096317355190732 12.268987172604549 0.8244147155846253 0.9717564102278037 -2.0571432388892696
Ni 2.573143211295936 8.491285053306143 4.458270828202188 -1.2218051915239214 -0.5523079260472037 0.5734935589858834
Ni 2.915421309074731 5.270118780785543 10.304804526387608 -0.20872035486097604 -0.5477583590033083 -0.922959700440075
Ni 4.57581978851716 0.828677104235094 7.542843090837506 -1.4331768679648156 1.6750569974072118 -0.07057986710109135
Ni 1.3408347473285012 9.313068775868473 0.14442966590659875 0.2647261808026344 -0.8851876238976238 -0.09505702630684919
Ni 9.111736470505779 4.670866183095761 4.593261747962015 0.26745129304328136 -4.141320084857565 -1.6674503887045475
Ni 4.390424251107481 8.13372912068521 11.130164373075957 3.7178380540375393 1.2638568692783332 2.004738500035309
Ni 8.88398094739701 6.681271104374532 4.9538704235523285 0.7833475132306703 3.2766866309622085 0.5090234043269557
Ni 4.71640787438736 1.3213868072275414 10.622289795203235 -1.1341040913615112 0.1430122140298892 -0.18840401190112716
Ni 8.58956022012803 3.23605816082637 11.549009557005379 0.07426477215184629 -1.0340552682670257 -1.0564570330009933
Ni 4.505746958840712 4.667948050747602 13.47319778739127 -1.0324683833958799 -1.1994466213230632 1.924714199691866
Ni 4.421281147356728 4.561266780096984 5.846009375695767 1.0218422711406014 2.1772662070258115 -0.9905509172264876
Ni 6.655553886390106 9.366480011169946 11.21426118201785 0.8723506200339557 0.03517706212176522 -0.46407075087566524
Ni 6.9571569845676215 7.2330240381004 9.990542381817175 -1.1427728227801028 -0.2213539844645865 -0.47080087051064723
Ni 4.050499485867523 7.871304302614275 2.6374136642646246 -0.8469663756328961 -0.22491213412949007 0.27278787476484634
Ni 3.790719813570243 6.209107877112173 7.906248466816977 1.1362080250783917 -1.2247886996322777 0.03795822441132818
Ni 5.982406646980803 9.094754822905523 3.716194478730312 0.30487704198990717 -0.8874131707940329 -0.4135709423539007
Ni 2.416091210984024 3.887903034094109 1.0314063477928415 0.0320508577879577 1.0784335372720846 -0.18803917236254067
Ni 9.001336934443797 7.981496745412839 10.389948097642778 0.05773669258983605 1.3823687841740129 -0.5441590716878242
P 6.34374673832419 1.6885349232767801 2.705473923953859 -1.6226224337565798 0.1841246677994829 0.5082939823600988
P 5.522885522117085 6.491375995150593 6.255472293459349 -1.7944135196913742 1.363774309001277 0.9476438334503163
P 1.5865603177038394 6.499066685887516 7.897003635271404 -0.5148310121476682 -0.12197261975077058 1.2259891476982823
P 2.9577059881325773 3.004744398918877 12.941639270847679 0.7971072860189239 0.11172343121893663 -0.28686672145541564
P 7.3439789606415475 8.202324057527267 5.241251862531136 -0.4041046547346782 0.08241439784217419 0.6398943550086205
P 8.034362007565301 5.869041911919886 12.036838448312277 0.827925042730729 0.44881048228248516 -0.7416349639832324
P 8.278374351852365 3.5568550391906495 -0.18432900710307856 0.12032531395533472 -3.0345391067910383 -0.1305055969224462
P 2.5562368703369214 0.9422931752111599 9.350350269948748 -0.6966208611663873 0.16711450639473152 0.19274686225085513
Ni 2.069275888070348 3.994716091366901 7.874133008325959 0.15054091830676655 1.9840040957014347 2.399541674863403
Ni 7.841624072634447 7.442432980736386 13.437183327549905 0.4205484021129983 1.51998245289615 0.04723065085218962
Ni 8.729470546227043 6.870281360563867 8.064109072189233 -0.39520272425935804 -0.588427040367264 0.638017963921514
Ni 1.434478555713954 8.092065721417617 2.1403267627499383 -0.19372388145214378 -1.4716768238122269 0.8064385907221788
Ni 5.010197908535931 -0.05158693191736627 1.452657578909972 1.375191292588967 1.377144559660596 -0.4932566284110022
Ni 3.0390748139954504 8.477861644504609 7.960765768411704 0.249601409346054 0.4383774598746192 -0.5804589345601229
Ni 2.9918104832854224 7.446264206109615 9.921738469045668 -4.2704131177032005 -0.7353583869459013 -1.820526157618026
Ni 9.460679206034566 5.588411713328498 10.230571946115509 0.5628088255785275 1.531609238501801 0.6620076419678922
Ni 2.9854564854305585 4.751105409339991 3.2499418814725005 -2.1022077353280766 0.5078502099544608 0.6040619186910436
Ni 4.727685043913473 4.0835402747128136 11.348177099473935 0.577471826907341 -0.8617515043618708 -0.7513624756836415
Ni 4.188414185973602 2.088271988323851 0.9463682058354123 -0.4993036059360304 0.6164042423064803 -0.23863488303222127
Ni 0.6774641926185478 8.799816362477998 8.391018967156398 0.003003048492381925 0.9263461004138046 1.050983925701564
Ni 2.3034324756847577 5.994606322862141 5.940577573102476 -0.06486147656007539 -0.7791329609286903 -1.0351801259000881
Ni 8.058657812696268 2.2074447480906216 4.446602064141612 0.5978007682726801 -0.29887428743925304 0.7009156318869992
Ni 4.8314011155651535 0.27227869207755845 12.923962919481959 -0.36700286478637434 1.4915910462376505 -0.3305659621155791
Ni 2.820384327826286 6.473302401252314 12.33188045537151 2.7931382309779056 -0.5717997162232282 -0.6663116686598848
Ni 4.611486896475794 8.489891880443151 5.802445425069808 0.49523894894835363 -0.10587108620321767 0.7320984852477068
Ni 1.2474450988572425 1.8337261275929468 7.4682113853668195 -0.017336948616550787 -1.4007555142113166 0.943624170767962
Ni 4.380841481009331 3.1960138543454977 3.691506137731867 2.366207065267015 -0.902248950255285 0.3917877850405382
Ni 6.2888481968581695 2.217291091433121 13.365128050542737 0.6491626676844239 0.7219889076175308 -0.1470205638583339
Ni 6.73961492467741 3.5037356171239917 6.045257569762065 1.1917736781588377 1.2083061285962222 0.28864618195334163
Ni 3.020634100221113 2.944386125962753 6.17115521259182 2.3079772350908443 -2.749867336104413 -0.8022029553742764
Ni 6.791755360407911 5.747478166293655 4.816964832438904 -0.13827984155122636 0.4944467920643613 -0.4388274029278442
Ni 4.004280034804739 5.885581133002841 1.6356348318027418 0.3897653552938707 0.07582003245410814 -1.0177634730855376
P 1.0812715816247935 3.1257715847262526 5.7867534037008355 -3.0510530452856615 1.065127821302114 -1.6517090667098906
P 5.510422272991398 8.823942727666168 9.248659005613485 -0.30190381829419616 0.07641472861531355 0.13430568739482676
P 4.814890134472664 7.663053199587398 13.306987558171214 -0.035928852686125216 -1.07787663632735 2.3987986260497913
P 2.8038733467337966 0.28792270546273985 2.639411172923591 0.18705623962398107 1.7981765862782322 -0.9429693107927825
P 5.253541906381965 5.800776441633265 9.755528239825614 -1.868755167827743 -0.1866587470752463 0.8023577357845858
P 2.404155108347036 0.2515044137577096 6.311532439866539 0.7708853762079175 0.15804365444171492 -0.5256255316600109
P 0.6116734868297692 3.7224919966042433 9.62356841237581 0.5732680732386385 -2.0370870915693433 -0.38716185623275257
P 6.368390836670904 2.7881248453838907 10.519317376633827 0.7189668329617553 -0.439876670127965 0.1764895198517283
Ni 9.103998713118079 0.5990643310866738 11.92529707530245 -0.2515847583246699 -0.5851267723494374 0.20093325471638945
Ni 2.210165200505519 2.241596309894243 3.9863824701803665 -2.524950573989232 1.3450875312250512 -1.6724049044963456
Ni 8.160698311580296 6.311581389183347 2.7622363047906386 -0.6803709749664283 -3.327872409807404 -0.24299573110407827
Ni 0.7130418739407051 7.793211315645466 6.3970760776533115 1.1230748301305433 1.158523143635824 -1.278414969598166
Ni 5.87822932215151 1.5551103816548044 5.105558708341721 1.3146500406708004 0.1684514800386002 1.030888697613586
Ni 4.615280468528401 3.4238635107558206 9.069443319450794 -0.10106518017414207 0.7332156295712856 1.4815454890761903
Ni 7.2452896072928255 4.875154274127235 10.314351525831167 -1.2341356880648164 -0.955393138378432 -0.5960472759166832
Ni 7.165558700876984 5.212424480263382 0.15021415728706322 -2.0233093210589606 0.7907368637162059 0.9463261430801573
Ni 6.283708518593347 7.189854506007951 1.5120236868677224 -0.892953640996288 0.3917440762867963 -0.05504860423471164
Ni 6.404669811089634 5.588148140084148 7.961785232067529 0.6747410303741606 -1.0235844506426888 -0.19885400358985755
Ni 0.7331826351410987 2.042984456946447 13.67007570492445 -0.9162930870531767 2.309614513583951 0.8360103908420247
Ni 0.8395203192410454 7.555665929175129 12.182245217889001 -2.3622928178142737 -1.0687291655001272 0.48372092100642494
Ni 6.541530218218314 9.148034271584821 7.254468545527311 1.8036262965388936 -1.8666854297829076 -1.969314869120376
Ni 5.7652599469571175 3.9036044687932376 1.7627853888761744 0.32510673877322077 -0.38236829149885115 0.139486717375134
Ni 3.917140837556636 1.0687330258578631 4.5565996510059605 -1.149611185858175 -2.076618316894746 0.16026997266907236
Ni 0.46246184920425115 0.815613284645495 2.767168889792044 0.10523216706763813 0.33344071256021285 -0.03781732795808971
Ni 1.3528932232575084 4.424208693035043 12.227559106590839 -0.11487200415024733 0.016475371947203884 0.17623446641812873
Ni 2.6679260326301866 3.0001130404824434 10.492699302953536 -0.33877832272304237 0.10363654044574411 -1.0035481008171039
Ni 4.261734614553648 6.582261697800527 4.4029411562150536 0.06492061193278496 -0.9913106782106476 0.37898291996638606
Ni 0.4834997007684499 0.8688710826654364 5.321380952812549 -0.20655137223411527 0.0803127781181391 0.2850569219401865
Ni 2.011609827538655 1.3958368354262294 11.812584684021298 0.017361374096583 -2.225576206985109 0.1382538734092974
Ni -0.1221464307628468 4.869120329497654 0.9931063313897561 2.2939346409548493 0.6720277452080555 1.1162693771729355
Ni 0.2537080743470778 1.3409759472808314 9.630388370073364 -0.06491624105741078 0.9357175143263756 0.6881773583847245
Ni 7.9718669086639125 3.064302538811796 8.362416563479359 0.9082666172042745 1.1197000001210395 0.020018609213771972
P 8.496387078250345 1.1116295713758075 7.4046149268372545 -0.46146750892486327 -0.513462928155548 0.38438146527413797
P 7.343545947454401 0.27170259627205084 13.198228765555312 -0.0007060249280891067 0.048451410633168164 0.08216525794584559
P 5.02962702197658 3.072774535951614 7.181682794100088 0.9848893480653362 -1.9186597659676699 -1.7597326804797373
P 8.601505736095174 8.130076748584933 2.3283326166116978 1.1207911763026892 2.8767049972569683 -0.9154654489455589
P 1.755548420652739 6.535289180325314 3.8026069668904228 -0.3377480816863151 -0.2658294411691422 0.15097800584418516
P 2.5270837868457927 8.660348462896286 12.197909940600523 0.9791236492261525 1.4229785872755751 -0.05883121120559545
P 0.88606641286022 3.3416851384995874 2.3794742980127155 2.114797656177945 -0.3028756952891623 0.7662231948455578
P 6.8177643916271515 3.957458130612013 3.7063857887084337 0.2717470922051578 -0.1858953865466605 0.22867057273065777
