# total energy = -340869.276135237 ev
CRYSTAL
PRIMVEC
9.29098628417611 0.00000000000000 0.00000000000000

0.00000000000000 9.29098628417611 0.00000000000000

0.00000000000000 0.00000000000000 13.59829757417437

PRIMCOORD
 96 1
Ni 5.878834544872193 5.870639894777878 0.023701306565302605 0.6962557645174847 0.47302178942136597 -0.3869952487479012
Ni 1.0710835058648431 5.744821355574692 1.6863930234058127 -0.2225220366307587 -0.6919121428368085 -0.0495623843091598
Ni 6.264308283832538 3.9678365682860948 1.1923095104403425 -0.587213222564821 -1.240347216192167 0.9595531832933927
Ni 0.3760944880870901 3.267017456478656 3.4263086327507626 0.10925645773568281 -0.7837509193166761 0.20263018280283815
Ni 0.22630520371005813 3.5532913325625852 12.572169925088112 -0.1398890950198752 -0.4066371913485448 0.015919242333417745
Ni 2.0557422552928206 7.979545174832228 8.18243616345988 0.753182816721832 0.3017621505100093 0.1522123924719185
Ni 1.5795791970914257 2.9575904420330117 5.687052788804374 0.03447926472379224 0.07266091799983616 -1.604697988067675
Ni 8.222792492427754 7.025555971845671 7.071345669719618 1.589777619312417 0.3966170881083815 0.43995123211964227
Ni 7.044100780902647 0.3074601126032785 7.400873733461237 1.068160951701483 1.0427432829593266 0.5859374411761908
Ni 7.2565949331782384 6.801931217741293 2.1878034083263582 -0.1072772225221249 -0.2952647157111237 0.48701938925203864
Ni 6.009224249434112 7.513091197524891 7.385738716450309 -2.0176667780612028 -0.8627766031922753 -0.03600675711191218
Ni 6.980188084758892 5.004692079879446 7.3703862903552455 -0.5718696502292151 0.26834603694340886 0.7908147681419928
Ni 4.029472972736984 6.875125609400037 9.166163956040409 -0.13499011505636108 -0.032125419779635 -0.10345964854824763
Ni 2.653961003164298 2.1360907065577117 12.050485678522666 -0.6244731353575439 0.27575467070265414 -0.8142385463825719
Ni 4.248628762334144 3.0496269543167784 0.14419239410853404 0.5828009524297382 -0.20417567291308708 -0.4987400201230765
Ni 7.264148505203951 5.854752307860329 4.9960142984870535 0.2617043632571751 1.0015513821020494 -0.4101727153056291
Ni 7.7262171368825845 0.30310914362463043 10.070912788766364 0.2844133748189166 -0.07090202632720047 0.23176566671621374
Ni 2.881525135545308 7.600742364179954 1.7906917796742463 -0.37503627661381217 -0.9449781136926951 0.14723885051672705
Ni 5.2323955770579795 8.647539231329901 10.25979296974977 3.043789678855029 0.5755180456150798 -0.36591914480389237
Ni 1.8822330823774829 0.6650738994402536 6.282577150590419 1.3179420811585107 -0.34812582537621334 0.3270180968633207
Ni 1.9463966351567776 1.1658608591665494 8.841899236151884 0.09557947446922249 0.7064810417899188 0.6742522636632
Ni 3.2661533947340176 5.421132676849259 11.144784519680304 -1.5779420601300695 0.13341762836291862 0.09622739246586653
Ni 7.530576834120697 3.01504590255823 10.546758095229409 1.3734606830511056 0.119550126352207 0.7518728396611568
Ni 3.124642379329814 3.959112331961195 9.342044188710926 -1.1873377538746712 -1.6035415058657287 -0.802377790389244
P 4.02782846812622 1.6033641225352417 10.281904588524666 -0.6514450359606975 -0.7809934111761969 -1.0549279979509767
P 2.7147983827760584 5.133966866061187 2.9375860189966527 0.08495490487584079 -1.0148614689473943 -0.16160823186452167
P 2.164521125252273 4.636360211014352 13.03357425123189 0.5296595925200684 -0.12314838522642663 -0.1944756720165038
P 4.977924747768652 7.232066728814304 2.321827746807661 0.9121901206283968 -0.5006580630813958 -0.047783695142182225
P 2.8252867942517854 2.6031764709471505 7.292536185360604 1.6310032016211073 0.09974234759766047 1.0645143560878312
P 9.10011247480401 6.838612032449179 4.054264112018911 -2.35702257055427 3.50744365390825 -0.577440202338457
P 6.723320180952181 0.0032471997822709764 12.108740163887012 0.6587899063615428 -1.141257414576841 0.6418982728125268
P 7.781851564053511 1.8167780824744815 5.47660544085506 -0.3905541697437532 -0.6332681079413546 0.20866507614300836
Ni 2.8335000263191032 5.908472791811947 7.031394427763208 0.6725080272785837 -0.6093501636731764 -0.6014748746901576
Ni 9.235184836562683 1.6373133872116885 7.221579992350071 -1.3091643349658808 0.0686523110610753 0.06252537222773102
Ni 3.608907177760509 9.149271084383399 11.642427409574497 -1.5316927993545428 -0.4883303947539783 1.3471127891851962
Ni 4.9032809622156766 4.937351009716642 3.3644910540630946 1.1963001052742817 1.231789299319827 -0.21724099073747746
Ni 3.376827625939774 6.480518830708726 4.497242553732932 0.038656021809301166 -0.07933318781368918 -0.3704075195925492
Ni 8.769780740730013 8.992875908603805 2.749154592661271 0.18832687880628857 -0.908563579619403 -1.1699822933153592
Ni 8.403502179881748 5.465878067840439 9.79787299385516 -1.1801481781047674 -0.6862523734478697 -0.9443314812476318
Ni 1.016201648600538 3.559423383653569 8.218307733243485 0.05413869082593257 0.010007247724356958 -1.5930102673171016
Ni 7.675748498206488 5.16702419603349 11.99702998768634 0.13501068388165136 0.37155371738185045 0.5945514080974471
Ni 5.605670250741867 7.827897693154898 4.483834731112631 -0.25779602934170437 -1.2236728408602797 0.8324141888503342
Ni 0.6603596528893972 6.253660813301829 11.725812155228075 2.315254742588864 -1.8715216748292867 -0.008039068254392608
Ni 1.8787768353989287 2.747205343693258 0.6873165211248222 -0.5432738408693935 0.8753454409962215 0.3909814870891589
Ni 1.929096818291002 0.8034101847568981 2.047251222729108 -0.9223030406926827 -0.1901302505636145 0.9706564922954056
Ni 7.481353187635799 1.6506273708683246 13.538411151974186 -0.23032224940146784 0.8662087688022758 0.3520472719178066
Ni 4.152578543881734 9.084615109319524 3.101023762544374 -0.9351652413673313 1.777117194504772 0.25416794567081386
Ni 1.5175618621939757 5.776150562057718 8.997802918745547 -0.14472945383131203 0.7221012648256789 -0.864245474428318
Ni 3.709547143544655 3.0345755561843633 2.5905435166010733 -0.8980405686008921 -0.8758874295426206 -0.0694210709062998
Ni 6.386661285070668 3.7113588859124453 5.376576821982711 -0.5792626002591766 -0.3828886827786954 -0.5737763803336247
Ni 4.55825088749632 4.175610899418929 7.547531026288617 0.6593390939967936 0.263059848843805 -0.5873628607688077
Ni 5.4020861545212036 2.1493675262683416 6.8679288112559815 -0.3457856072788109 -1.2091731045822078 0.5485991097370487
Ni 0.664920598162979 7.767524862868211 0.42937272108123803 -1.0991972521819973 -1.3154861634188506 0.2943087795557577
Ni 9.158339087208853 7.650096084475872 9.490020801621517 0.6473916918269302 -0.29731182804813955 1.3126713196778748
Ni 0.28121400483521763 0.8486080467906997 4.436267667520949 0.23220635379805815 2.0078932436142067 1.005391581783746
Ni 1.0695969480246048 5.361698236199224 4.3477700919956 1.7820477990371695 -1.6743149770348649 1.4856561688104544
P 5.270061236335022 0.05502308025912783 6.175286696668505 0.006871016088220425 0.4871404882109352 -0.3739772392216785
P 0.25480344660608034 9.00187887452375 8.051212128310127 -1.052543299768884 1.5012141711497113 -2.0023417176683576
P 6.489744780304706 3.502720493034972 12.551052441868874 -0.3735707478118792 0.30697017707351004 0.9721369334956741
P 8.475042775943225 6.0346443885021905 0.3581043509242538 -0.755112429644377 0.3547505297815826 -0.37323599018027975
P 4.909208611603627 5.762650758671053 5.982421611574612 1.0007263150975927 0.3675913902999927 -0.06278376809544026
P 0.6803752251095586 5.650647916395583 6.869153363276878 -0.6504896140259636 -0.813704785366289 -0.1750306759180147
P 0.39059771801591703 1.8465278212522547 10.885505604876458 -0.05694890658121806 0.0811365595710151 0.4197655012003867
P 2.2052063551423005 7.358479891153585 10.299540739101795 0.6452695032776048 0.20733581580862356 1.0748010827258199
Ni 6.970228147229295 2.2977167077376426 3.333241750063981 1.281422131855606 0.1976496988691112 -0.07448794390624591
Ni 3.8096946870442228 5.169885819875949 0.9889010138645581 -0.8927356114482108 0.4333758928949698 0.7789624967890971
Ni 4.80295688997258 1.9737028444846585 4.577105086403795 -0.4567906722744843 -1.5538438815302853 -1.0585180292950802
Ni 1.354941725458385 7.599404462123739 5.973663927698307 -2.899228375170465 -1.6584373865726598 1.188721007375443
Ni 5.453019342522375 1.7115855333046046 11.987388730993741 0.5532389225019053 -2.434938052084826 0.46954617216793976
Ni 3.5072730764207023 6.827630086404416 12.90847018889067 -0.6366969311172453 0.9205009544869373 0.8194108346121307
Ni 0.9658537927489604 8.678069412973798 11.457232033837583 0.9654955169197567 0.1400976114862555 -0.8176408871959014
Ni 4.079802246615558 9.18300665637031 8.379107765723434 0.6213356181698267 1.5220092535181917 -1.0526597707420902
Ni 4.7336925856039676 3.5506155284501566 11.002124209245867 0.39051663163759837 1.2834250212182479 0.3079068299551665
Ni 8.277274837272495 7.581491440148865 12.06734696082557 -2.4607280165647363 0.6222092790240317 -1.0689477092688364
Ni 3.5883648066057128 8.04998943448653 6.147695254055029 1.0490046904880064 0.6192861918399657 0.7122544539385863
Ni 5.322676092892963 8.197130787710638 0.3234173819195887 0.48731635166716714 -0.11854353946456357 -0.24043156992132783
Ni 1.9626094066018787 8.471066233720586 4.163594866576552 0.5377904491573189 1.1642788151726788 -2.5452278361810294
Ni 8.766408112629971 3.7233721314588735 6.0715175266306565 -0.4774260891366487 1.5723013169045243 0.09543729246440338
Ni 3.8275333811270844 0.6529658858315109 0.5038037430433296 1.69024501800156 2.452416411375247 0.4778235816853836
Ni 3.751644603382909 3.944135261720792 5.297421333384611 -0.39346877228738686 0.2739896083824313 -0.23400998266570022
Ni 7.702971088655855 8.684155009132274 5.233604334401823 0.7571690550630895 -0.18206392861571224 -0.5600186644279
Ni 0.9370888985403454 4.169283737611415 10.349256807871273 -0.2535845623635181 -2.500473414783474 2.757514825347341
Ni 5.353085491712342 6.595355423867151 11.366355036669203 0.9713015820785722 -0.40089437532749667 -0.6553965644092777
Ni 0.48140038729228524 0.9018165973860863 12.988400545762993 0.08858247432609906 1.3157407026318177 1.4458356943794068
Ni 5.995148404884354 1.93993010855174 9.219632654257836 -0.7795145126378253 -0.5411660504977712 -0.2559211809164948
Ni 7.8688151977074625 8.55454574743648 0.44302675484382864 -1.8437684159754182 0.7864760315573229 1.2686545477772926
Ni 6.44675538576231 0.06887222473824978 2.874149950460425 0.27022114247893464 -0.565918831962419 -1.0168576734418167
Ni 8.625891232781427 3.866908581920402 1.3546211864240838 -0.1925494015280684 1.9638782714858374 -0.4513995831659
P 7.052611324538012 4.4525659160418645 3.297165778577343 0.8665430122132431 0.638523957023655 -0.27115676691932655
P 8.120768169654886 3.462574140362031 8.43356874129922 -0.38745496199313917 -0.0789655200616253 0.18633607362850488
P 2.310259539514655 8.762580226191357 0.08764001747126085 0.3192610786257211 0.5737858934153215 -2.390854174391734
P 5.457934274381664 1.7827451989195213 1.7925955028084017 -0.7165481962179338 -0.25002692691924683 -0.126308271011647
P 7.091168918519198 7.208161020545969 9.433859575515957 -1.3470950485733832 0.40078741743598717 -0.3578142563085709
P 2.530242226910449 1.571291637132096 4.13622176214586 0.15672107897554946 -0.42244356225318214 -0.25257411882113273
P 8.914079052084663 1.8930942455977255 1.7729320589766469 1.150261160737348 -2.7386066755889287 -0.07586991185543708
P 5.029935690203997 5.004097456743351 9.473186463179465 0.7904998080047353 0.3957578254318797 0.39748226432215417
