# total energy = -340874.61889902694 ev
CRYSTAL
PRIMVEC
9.24463930984539 0.00000000000000 0.00000000000000
0.00000000000000 9.24463930984539 0.00000000000000
0.00000000000000 0.00000000000000 13.53046409241860
PRIMCOORD
 96 1
Ni 3.33698188819397 7.338366739904004 13.136294653441098 0.7828497476586453 -0.429889477008266 0.5702611680915146
Ni 6.182084266727319 6.806605857403795 10.901386523992478 -0.3676497543417539 -1.038744703322895 0.7894587683347306
Ni 5.788900523509774 0.9114160209394844 0.6698230953880735 0.295723143404781 0.08826931396105443 -1.012773990290746
Ni 2.579374473827485 1.414892005817996 7.417697760939783 0.7473782942249129 0.10115696855699999 -0.5062036754899734
Ni 5.389310245434132 5.602787450258367 13.335746816370355 -0.07344356180213157 0.9634761724968827 -0.5696389611264835
Ni 7.746526798374244 6.271849711853047 3.9778341337432166 0.18176542353868697 0.7280623675051203 0.061143661388855984
Ni 5.149208480160659 2.0984036382398146 7.987898777052482 0.12253671978435669 -1.041644136357877 -0.7908741606250186
Ni 8.594140018481625 4.80671309282616 5.732843805733371 -0.02560484505229784 -0.7758218942775864 0.5364583606094568
Ni 6.520345609379266 3.997520592589276 4.6992792935578676 -1.3871350952144046 0.13609311831255272 0.6904892943473527
Ni 9.164367844047556 7.733630526906645 2.2107962618917774 -0.7157784079314446 -0.4480080409858478 0.3578314826997515
Ni 6.142517211615257 6.221632832561291 6.062771106286363 0.06985713000245389 -1.2336356084999465 0.4527576398556912
Ni 8.694333416449972 3.987397712835139 8.14152341530849 -0.8598630290899061 0.8729581717109675 -0.40194904184425617
Ni 3.0576551194530963 0.3886279850962305 13.364079786115084 0.48378288459261193 0.9916420934081372 -0.801304097709091
Ni 9.328672813792105 7.9988129979088605 11.247752641695067 -0.7194990513161416 0.0435305762927831 -0.4390639444186826
Ni 0.48254704654482095 3.4240386540795504 1.2302358876800608 -0.6148770070286765 0.48533788778455766 0.10907545207312827
Ni 3.902143651563309 7.595275258961057 8.2581288209732 0.07382665617316318 1.4177520487693132 -0.6152444176704243
Ni 4.424373311208253 1.9362434247536764 11.820429372143986 -0.8369562996950618 0.04231470160781099 -0.2188186196372425
Ni 7.706414309558536 6.988327727108887 13.226663773496456 -0.7924517895247837 0.7409711051469885 -0.7876885638081853
Ni 8.456173025375923 8.794212496690793 4.897797747943591 0.38374254613855846 -0.29238996526648997 -0.08465794246071226
Ni 7.676840709253983 4.835824461178468 0.7518674179835231 -0.43895955763033434 0.5172211096463996 -0.21553429245901592
Ni 4.443537447948277 8.77258928596483 5.939034386062436 -0.06408886006010898 0.1290359543554552 0.396226280427866
Ni 1.456049138845776 0.8134727681146602 1.4640503739391144 0.02695827375639873 1.0044592997774635 -1.2643618339392095
Ni 0.5592720038338499 1.1058622118259414 6.304289150261511 0.35245222066570914 -2.268468635473261 -0.4541640332849146
Ni 1.769100350822351 2.505482073941805 2.9981751118383757 0.49428147013109064 -1.3287240022653632 0.16803984642247832
P 4.650950169559074 4.682659281482993 6.277769978697385 0.32632724144388314 -1.261881233609201 0.041789939452592545
P 8.422836856980107 2.48231500849535 6.5060423038490365 -1.7993148136477335 2.4630186123711257 0.3236923749241974
P 6.9128914725027135 2.3064449953056636 3.512738192323405 -1.2692291893338399 -1.96446448300661 0.36610297867992436
P 8.256461088089505 6.490540893098591 9.955836522307605 -1.137542684729415 -0.8625097226841338 0.3153889972648246
P 1.375805671936268 4.2364945118992745 8.93343491177879 0.8722968839778847 0.418506174871989 -0.6754367708896045
P 5.492739267068184 7.925863551205759 13.368557889268422 0.22864331903714813 0.6688891995790738 0.09887588583230714
P 6.179689905214696 3.59306763437603 9.200959049851072 -0.10019486175404681 0.060884494190198375 1.1549464820281594
P 2.5298694317421835 0.8575558294001427 5.215885439271815 1.007563392624084 0.1499665338605353 -0.5013879992688849
Ni 4.437408252261525 8.947007890824473 1.965584060154298 -0.7924137371979966 -0.9107780707722184 0.20164827850554304
Ni 2.1065019420431246 2.906486781791313 13.063649355362571 0.762356769911616 -0.21126137611527487 0.32216359698449676
Ni 2.3904510303064357 8.356978048424423 10.393412097754732 0.09504879877673308 1.1781416891977001 -0.24353334877510316
Ni 1.3900239267872843 3.0002644002625174 5.313642874851836 -0.362407274995892 0.8802896723753744 0.44252696326661856
Ni 2.8339533438452302 4.266742970854103 1.8122700417702 0.6431568278099762 -0.1470557879716435 -0.6842291723702538
Ni 6.578938131645678 7.087032738191009 1.7493538018224997 -0.6835784261601324 -0.32809436064663494 0.5297161567896168
Ni 0.39518798096247326 1.8849449226936694 8.7781859904426 1.68536300731891 -0.9373609634670694 -0.14372878048093957
Ni 7.140429773314202 -0.1226255146107338 3.0026402724970493 -2.526343854792333 -0.8316474858876386 -0.08194260041207822
Ni 3.290093078958368 7.526236294573938 3.846886595064287 -0.0020316857180481137 1.4027566038017454 -0.5944331373520279
Ni 6.46375917378559 1.2693628979735865 5.60665910509036 1.1430517874731023 0.9247936683250202 0.6072935382544637
Ni 1.277267064356954 5.8200826910081345 7.138808263625731 0.13220072523668203 -0.704502320796993 -1.5580939150558908
Ni 1.2709159973331252 9.21734887041373 3.5711901960763353 1.5430329069577102 -0.6857903462097866 1.8864986078540928
Ni 0.9215657101468517 6.8040728263055 9.071120867857527 0.08596534841822615 0.5681505495064151 1.3348956782937138
Ni 3.4023322416021857 2.915749910114277 9.238100311677758 -0.6320136667089631 0.9863276231737594 2.0149254678706394
Ni 5.528460552337578 5.679018743822399 8.486523175360244 0.5545126470080063 -0.36220004408109235 0.10589576879356602
Ni 7.158327394505078 8.351144681187106 9.420057919678495 -0.006335712410040701 -1.916790573969415 -0.13897763894919934
Ni 5.119080201513413 5.874727752402386 3.848929660293204 -0.22549088945109555 -0.14626491663923197 -0.4455127853678198
Ni 4.851179806632005 3.289381241751913 2.8687150355817663 0.1310460428069485 -0.6683546672318426 0.7646789902868895
Ni 8.471907401030299 3.81979240695157 3.4553289838547356 1.6917375433866866 -0.5434183368670576 -0.032092509659170536
Ni 0.794447300960309 8.334587532657737 13.56726678321847 -0.3100716988169692 -0.8410687792015384 -0.614292081059484
Ni 0.5350242400830494 1.1625226045319752 12.32115137905103 -0.9085877479891191 0.24567867725288015 -0.28078811936150355
Ni 3.9997947737943154 2.6640831013956667 5.3319629760470635 -0.12189677220751266 0.8561012480546288 0.494302038956381
Ni 7.2636238332261955 2.675250625361875 1.3707580990177666 -0.09030974142985092 -0.7920545540863649 0.09026886088958647
Ni 7.430729928601341 4.819942171299375 11.762465485332624 0.6032373659072192 0.2173770020947095 -0.35697864778115296
P 2.445031379227373 1.1899976717733414 11.14647762095847 0.8573618599346073 0.5494326613819377 0.5441991808971403
P 5.668590790979782 4.96064557756236 1.8478822402988644 0.043551145118073384 0.5957436286333352 -0.1266268306933303
P 8.320147406469644 0.5814785512835422 10.320591151534353 0.7001209038998459 1.886156651133642 0.9722464624903449
P 4.008771318306889 6.6864995069327895 10.441716261228105 0.8286125557160567 0.31889598197681857 -0.1618298609570245
P 8.37886010904364 0.8128006828560977 0.7326459644814206 0.022295578173406765 -0.6129041995730219 -0.31383579384509175
P 3.67316318706082 1.821267848952576 1.6881958922211344 -0.28110847881539974 -0.46698946718435697 -0.6675383419781342
P 3.36048176064604 4.649249155974818 12.65889871977208 -0.11759531661868133 0.6777474213006521 0.015531005756063575
P 8.907847599830387 3.340236001137766 12.726699826991092 -0.1828537715068593 -0.09817963109623092 -0.9743984758363411
Ni 1.3630480700543415 5.971482144646039 4.2394592676409655 -0.2891089805223731 -0.2641119442574032 -0.28365927026171145
Ni 8.094384076354771 2.9737045522865935 10.211521975619023 -0.8719983789008596 -0.6614885362396286 1.0078996929175805
Ni 3.824497928225411 0.6709518658154526 9.26944980714283 0.011178385214322684 -1.1977309241835372 0.6597728391001024
Ni 3.488649436364176 6.365118875176783 5.815704429956482 0.13866884945952893 -0.4662428188263196 1.0266407209705095
Ni 7.9633875410889035 6.3875093909434675 7.690418310619189 0.02106941907578952 -0.9269248557354102 0.8636032128586288
Ni 7.290424041817285 9.190520927905505 12.393823486582784 0.03782838370168324 0.5694088473935484 -0.15242939357873103
Ni 4.848166054303375 3.298117425649319 0.26987597424529897 -0.581042832088051 -0.5402574226405729 0.688494375404511
Ni 3.919588285440987 6.60308512883089 1.8155583598784617 0.43812137799975515 -1.304968037496346 -0.5220686675466879
Ni 6.143987109223391 1.2175929193222907 10.399649455718308 0.30867430424881037 0.4618542028403207 -0.7855460635438859
Ni 1.8542896996208666 8.023773523330021 5.7270390968770934 0.06211888081793173 0.7672786326932656 0.451311651437784
Ni 3.101058699768781 5.591610681653114 8.813594806912276 -0.1478399744358357 -0.9830975462722359 1.1660755020617852
Ni 6.4931386366702 3.7134328347402925 7.0281425385473515 0.9670487203394894 0.6923253191148271 0.029335001518691412
Ni 4.991809255782631 4.264145227282493 11.182292277082219 0.4414545561380462 0.35151813888721395 -0.7541881180578947
Ni 6.906512671561751 8.303257450934659 6.686105685309478 -0.005525300693603387 0.6886010761857044 -0.30825649998510135
Ni 1.3979188485316068 5.954481253442516 0.9618621672795539 2.165123143905374 0.1265394131858466 2.4915486014900186
Ni 2.8633882745641097 3.90172764280629 7.239921503179043 -0.2515495342113603 -0.43806661350241977 -1.3592229421851687
Ni 2.0380916131110554 6.511147193529616 11.488432196908844 -0.7171169242372101 -2.9836014394009065 0.22590046618468837
Ni 9.259707806517342 8.3744226823021 7.301363223199085 -0.8161930990057814 -0.15964133794613797 0.6829323079357013
Ni 7.568031307695814 1.0159118739193154 8.193142706343354 -0.4679875694315683 1.1918922060145731 -1.4928586000961643
Ni 8.848164210156678 1.3050472046868007 2.8748442312685176 -0.3580343427391769 1.5891685249735081 -0.23414136603724195
Ni 4.693114968242746 8.748812074341416 11.330586456464948 0.189621429247996 -0.40689610143688637 0.764195880002884
Ni 1.2710731561968882 3.1415409741462845 10.704897267877106 0.006798768089388291 -0.6033098710163673 1.3556169700014653
Ni 4.856088709964832 0.9552485525068509 3.970284961499172 -0.21141384253273912 -0.2359120847844195 -1.0702790264857502
Ni 6.673298162376709 2.5053988721904012 12.446118560731827 1.1847586802935854 0.4672206093585566 -0.027982601255855034
P 0.3307611669948404 6.231395171392677 12.883084914465899 -1.0995330382548612 0.221470969658425 -3.6084072755075214
P 5.601678093572982 -0.17665118518897863 8.130280085302113 -1.6911243352827197 1.2129883645632402 0.1366199373503002
P 5.979423289585586 7.783412908163292 4.623995575495935 -0.01566110357602464 1.511398310771565 -1.3907557226861273
P 1.5326224840544689 9.065783013273016 8.572780279968443 0.7726684362502693 0.5545800099108319 0.048627274089400124
P 9.02283242027053 5.475109740409609 2.323235108738964 0.21876642624306838 0.84373115652505 0.24664644048278817
P 2.5970132451251042 4.163702224059935 3.977929353525379 1.1733748639366761 1.0269623659759863 0.3001662667777992
P 2.1679418131353585 7.955085855226606 1.8392634633173282 0.6356857162439117 0.3083770847233657 0.1049010089804645
P 9.200098373955994 6.91646914781308 5.7321948320724205 -0.7758396348893992 -0.5733068968963739 -0.26188742580225866
