# total energy = -340860.1193240187 ev
CRYSTAL
PRIMVEC
9.36427460789161 0.00000000000000 0.00000000000000

0.00000000000000 9.36427460789161 0.00000000000000

0.00000000000000 0.00000000000000 13.70556244403367

PRIMCOORD
 96 1
Ni 6.373746528421867 1.401859965979826 2.9763962149110386 1.728734689436326 -1.0222891288700329 1.8351673045699683
Ni 3.024894728299589 3.934821268811534 8.004417856490189 -1.0353001964177202 2.480138559880864 0.9909895474258028
Ni 5.6236494228534015 4.032949499932504 11.238999289332863 -0.13779004639900141 -0.9179283086637546 -1.4399640660899782
Ni 8.692631154885934 2.350620152303267 9.301183507645362 -2.4181857723271514 0.33071122944419173 -2.3485921803987293
Ni 2.1893205262837316 8.020557183366511 1.3109572089625816 1.8548316157681153 4.245146115606295 -0.6006647200840365
Ni 5.185757224773545 3.793055519127369 13.66034780595111 0.7788717368475038 1.4626373393177778 -0.18454170073224346
Ni 4.295785952943611 5.477950677933926 9.450917318390777 0.24515057266355195 -0.6783081789001286 -0.9182440401319604
Ni 1.418537738632412 6.159229731158847 1.499690413175837 -0.7305612226675742 -4.53914096346606 -2.513275965864781
Ni 9.298349878221066 1.2582494542448133 5.034765791980269 0.14986677505787738 -0.4553698806675577 -1.8991841737415613
Ni 2.3394298444313746 8.434748403016444 7.056322533647003 -0.46288547231831245 1.308900796891849 2.4256892797930485
Ni 8.125661798892972 8.59554235822001 3.7047363654087473 -0.5627761725683791 0.769016698430295 -0.3388590553623067
Ni 1.4926466059948855 1.0475064595528167 9.030197326650232 0.4952440911546761 0.9088011495515059 -0.6243234971535571
Ni 5.504105096248734 5.294158064878169 6.675842701728294 1.4065016726664745 -0.16322751263549953 0.7474274022952934
Ni 3.359836093958035 6.455337451005798 3.106200976942678 0.30220283759185373 -0.34152991732625054 -0.626928795986888
Ni 3.507042487051045 4.0157847850126895 4.261141883485157 1.5384928529955115 0.44930979051640685 0.28419714504305255
Ni 0.7303038388330526 2.6654095995179374 10.82239115046809 1.9155937254478363 0.35082162704082165 1.1304497824383757
Ni 3.456166384400007 3.2458541463290205 10.21460479535211 0.1443371034888998 -0.760219154743323 1.3113073494508125
Ni 8.32372556608828 6.808145852161792 1.6552759589749302 1.3069197619060782 1.445232513577769 0.29763552993614545
Ni 0.8395352900742761 8.292682996552445 9.324634459949612 -0.96142751749797 -2.488312353940908 0.3967459003767619
Ni 6.7272010645093765 8.221945267963095 6.611261983537077 0.2943072368938609 0.34231847466581694 -0.25201361833197244
Ni 0.7758151486976416 5.883695322102312 10.318739272053861 2.378779759725703 0.08420851362811949 -0.6023513637578399
Ni 5.788647937249001 6.946849484127039 11.1019437696567 2.3190350355669027 -1.1316013795443156 -1.462476131149565
Ni 8.254991792214064 4.770985420112688 10.405385966370037 -1.4850316478525778 -1.4518104239056029 0.3872104500825009
Ni 2.0514315861886567 3.26540675121313 12.506215972714182 1.7944903956758966 0.18731977769801286 1.451702951793461
P 6.338162285816686 5.484636769833953 12.474967389142211 0.5518669818550431 0.07302652886937101 2.931912238556731
P 5.451487238564916 5.651592417572838 2.883307836255886 0.10641718851467478 0.1964410232729907 0.2548590582005675
P 0.34909733922324954 4.074995091852836 8.655911962227137 0.8902372705063893 1.2184419314786434 0.5995354915755997
P 6.91378423132733 0.7134640642338693 5.3036141091367766 -0.16170799066717959 0.024139830470997135 -0.5778451510863597
P 6.924684246693759 8.814319900321282 11.29831728532826 0.21715177345778083 0.5041064266413126 0.17754392925817164
P 4.4461293779504985 7.295200490683016 5.949022372960802 2.6460461904516883 -0.2902456652299776 0.762876389860512
P 7.641950206321761 4.531119532130662 6.084338010459059 0.1035547793652152 0.3557481178081615 0.09534036187522289
P 6.051624854375655 0.35218567691040437 8.647798754913154 -1.0783949707246654 -0.05959534306512962 -1.1856282273827323
Ni 6.215818041175455 3.1077966492952895 5.088477396910478 1.726305511169543 0.3024548057016598 0.775368865900568
Ni -0.18016489316490292 2.064635213050053 13.518371360093626 0.9505836328049306 0.5389592726544395 -1.7929963276288734
Ni 0.9724424362046252 7.351123937219368 3.1440560560825315 -0.9566452656179781 1.8687312565683427 3.4065113997675462
Ni 2.281474350356779 2.663536744643981 6.3347518170912105 0.3998543640987565 -0.6509151315991564 -1.0873426668362562
Ni 5.850143127035375 8.61506687028101 2.2475475843150505 0.1233144784906457 -1.0477937008990408 -0.3139023854169691
Ni 3.116973638177678 4.562836329421121 0.7200583862450715 -0.40799679070023276 0.14772093235946818 0.1374056664763892
Ni 0.29466000302938217 3.678558536408015 5.594555558813918 -0.7156519096559094 0.9622266163604977 -0.340551098352749
Ni 8.382963965751536 6.276610910384094 4.746098924547549 0.7309425172663927 -1.1550105024968753 0.0032611872497750284
Ni 8.50265812074612 7.438745452497441 10.852817550750395 -0.3897913234357997 -1.072619758803785 0.6178900828233874
Ni 0.31978528759095054 1.8648484193707038 2.144701631766583 -2.474994039565447 -0.20427697437764175 0.14095276039769916
Ni 6.298982161853508 7.103260958925547 4.3259688820923 -0.6364346785947943 -0.7731805999999973 0.17164890392997534
Ni 3.707241308802665 0.6768965728198616 2.551496011091822 -1.5262351186740812 -0.06599147639946054 -0.5445251967779913
Ni 4.74220900497434 0.44032035442394074 6.666084191407543 0.735634009204791 -0.39839320617219776 0.1916423163327667
Ni 5.824934500431915 6.392119234735383 0.8791030949963629 -0.8723429067244718 -1.7704297551822672 0.2130290095386589
Ni 5.345277638662822 3.3981640689535624 2.930810927278928 2.1478075354450623 1.9956074842683176 -1.3162554374847073
Ni 7.172818788944305 0.7048620417977856 13.118059867914589 -0.2592854694030373 1.7297772717682274 -1.4656604424148179
Ni 4.6044418004460725 7.533970758563778 8.07368633043092 -0.40399615418127194 0.5775723570409472 0.20505139064982106
Ni 7.372493211331217 4.859768105412613 1.6454078866440516 -0.7326001074744738 -1.9610518577806355 0.6927932598901811
Ni 4.49427111248556 1.7343385274790195 4.497850138149691 -0.22437554489972972 0.09307419154886551 0.7650453724873727
Ni 5.110674472876615 1.7758409914859037 0.9385456358408799 -1.3137110737962987 -1.3375493138664771 0.11689263412470191
Ni 6.125640078994431 3.1495332201614183 8.54922853004193 -0.41341359084042995 0.8969324231383778 -0.6176532842222331
Ni 3.8749273699423927 6.961588851985079 13.681714270780649 0.4092309202176501 0.7186595861339816 -0.33870710316547475
Ni 3.2331187331861133 5.427655160293815 6.192995431681416 -1.1389315946571417 0.06744414968558707 -0.40885528204578614
Ni 0.23922256233282188 8.14565452467246 5.45644468541628 0.3986606009009715 0.16061552893394918 1.4889098998610617
P 4.441906090209726 3.280942082392602 6.370331377559206 -0.074010232938879 -0.07756683994188576 0.4149446827729757
P 8.614879584793616 7.622837722333031 7.905231462365433 1.728416901085591 -0.5569341119653053 -1.9824758319823665
P -0.11102564621047416 6.8653802971099145 13.246123811340885 -0.29070126471015745 1.0006316985012573 0.2905855650678995
P 1.8247318679705478 1.0483679727948367 12.15794362606291 -0.2481050273061856 0.37161696651961806 0.021992959331323416
P 1.460527144906525 0.5571078386541432 3.4381364105284242 0.38592309872964503 -1.3041463129259991 -0.33021577786501194
P 2.8286663588807577 8.21085796710927 9.32892423403841 2.3101827273825957 0.03535961044621652 0.2877257270216012
P 4.372301438819119 8.993252454979121 0.6456021043034792 -0.36267209862150446 0.08266842283450924 0.07753007316667937
P 1.6952895033570188 5.120815982019091 4.528947956904308 -0.3786453341213092 0.8793463346254986 -0.07755886952208578
Ni 1.9848515954194903 1.294123989355457 0.6706777582108877 1.6749189291674509 -0.07838342230591017 -0.38767864796817103
Ni 1.9813774496283003 6.099363925112816 12.918615806677174 -0.05749038090698486 0.3163942986008874 -0.7191164711657422
Ni 0.16026206441936328 5.678486613562859 7.214292223700642 -0.8029930553757396 0.018401385325323146 -0.9249895863859102
Ni 6.857551763736775 7.323049842658755 8.905777958808654 -0.7182474382972276 0.576260065987427 0.8499807369791879
Ni 5.023895742291823 8.755231329047943 12.176267638149705 -0.5977732574688545 0.5518569545527141 2.931805023554906
Ni 6.413198216341768 1.6629078425863042 10.33333630294148 0.1701599780892747 -0.5909019842703178 1.13730460057668
Ni 8.933293006189393 0.3441988873004153 11.194524604641009 1.4433396674304306 0.9709814797349924 1.2842601155250333
Ni 4.204278263802078 0.33716819010358123 10.345464911105225 -0.865104994215136 0.36143771199377106 -1.742630730692128
Ni 8.381372039108673 0.1366041616515401 8.992164326297353 -2.4747204741890867 0.24048247776392132 -1.660598913000353
Ni 9.535921518982494 4.836825633206641 12.615600061627632 -1.8947107113512403 -1.199317294834051 -0.8786423665799384
Ni 3.747498324318368 1.9499134877458248 8.360146038394683 1.426659635671588 -2.2853060187455743 -0.7715574625742777
Ni 1.8910590233317304 8.28028469728685 11.808615925690164 -0.8788567965835896 0.6913426434865835 -0.33733361985671584
Ni 7.93465869457248 2.1287336711112266 6.779620399576555 -0.6239069784414286 0.4761919596192315 0.8118397071330921
Ni 2.6726013622339315 0.586732657050393 5.242486935333137 -1.643139322763009 -0.2961944266142447 -0.26665039440854077
Ni 0.0722257117867097 9.04711576115412 0.13009318168222905 0.15153053591354548 -0.8023317676426569 0.26839205968999585
Ni 2.646578043760301 7.559572684690768 5.1022381980968765 -2.3888268595490603 -1.1875763522480385 -2.468185758394362
Ni 7.28377607595188 2.444365903019178 0.9710059565163004 0.16113669154474186 0.8043431416457308 1.478457079958854
Ni 1.6490674450677631 2.8632486241283712 3.6462958019217973 0.555691754917772 -0.4815478246145061 0.6872021389556487
Ni 6.999944919803716 8.057546067127161 13.956374056611045 1.184496170660818 0.48037437313169523 -1.2067300423583542
Ni 9.56953926397002 4.7922797800295776 2.872302004589079 -0.15841826417231428 -0.18641629204713703 0.3293945675152973
Ni 4.55029756603998 8.593959795851516 4.199987553285843 -0.21538054048997096 0.6097887938724917 0.4846858560228556
Ni 2.1565174731663768 6.293878632321976 8.135881967940154 0.558266971844116 0.2793830114838608 1.4114237925584403
Ni 4.863579365081114 1.881423185005222 12.296000186669202 -0.5239615136940265 0.1469442020944437 -0.6629502083868196
Ni 3.6665254438428425 6.858450734076275 11.177722287139305 -2.280793732697517 0.9069288722294575 0.17454936540622196
P 3.5045609543430527 3.010801495373063 2.1531575715224984 -1.6089521353583387 -1.0740868302676148 -0.28492373879643185
P 6.434089912460757 5.304720966367286 9.387830201961538 -0.5038572867449839 -1.121492830355404 -0.7814179003081252
P 2.620639003755999 4.983554448306792 11.096749406663779 -0.18308285679852987 -0.49401998893958793 0.11569835670628462
P 0.6701833245241631 1.3840491161284962 6.966784151405436 0.46301814124143487 -0.42068569902181097 1.4919124341328112
P 0.768452956188117 3.794085589308045 0.7052206935061481 0.993401242191089 0.4189334922173947 1.155315435331804
P 7.93466805884685 0.28145450331311234 1.737823910399453 -0.4439040461198032 -0.08115250041061509 -0.8893718371823006
P 8.127422282474491 2.3975164383471466 11.639586091178373 -1.1799964830182517 0.8566380943947053 -0.28994973125611356
P 7.967508569061684 3.4417641304192785 3.3094684714052764 -1.0993931702428872 -0.8976980976598088 -0.24767308197508955
