# total energy = -340884.27278005006 ev
CRYSTAL
PRIMVEC
9.16055437517310 0.00000000000000 0.00000000000000
0.00000000000000 9.16055437517310 0.00000000000000
0.00000000000000 0.00000000000000 13.40739729109431
PRIMCOORD
 96 1
Ni 5.413255556781275 3.102093490993337 9.492597904448203 -1.235060770982247 -1.8790030708079963 -1.6837617242700613
Ni 4.709367719237608 0.3845353391236449 6.042539839503098 0.6408639180107414 0.5029072641268887 0.35595174917853534
Ni 2.744786067635528 1.671746209928472 5.100187198661816 -0.022785630435947855 1.3466062818624227 1.583341633879086
Ni 3.517378062984182 3.140970883756587 3.313048233450398 0.8966992240816493 1.11858954066568 -1.8356992658140385
Ni 5.6127999127100825 3.1460549914341556 0.343617890901306 -0.8802487918351098 -0.26356352795310095 -0.913140400356808
Ni 5.431228564463059 4.760089708806437 3.466348278788387 -2.7975065352489303 -0.42980591615552427 -0.5626681862356052
Ni 5.470994531000587 5.185927239436129 11.747534319599414 -1.4235840820700578 -1.3237054660048493 -0.7035096178664207
Ni 5.975457099822306 8.203771111851802 12.719691740151935 -0.4240245335870568 0.585401623277379 -0.21885872884655858
Ni 2.219886302005417 5.354050893862122 12.001350379916975 -0.4241083515501148 0.04722653708713157 -0.5541138689076909
Ni 0.5762254357321867 7.705052210622579 11.617777815058037 0.3928769043396589 -0.43645684581313865 0.07784194798014335
Ni 8.231610036594384 8.918129463044949 7.511306485612512 -0.4633840092212858 1.2868672141305773 -0.03379432284162567
Ni 8.62359931881215 2.8476132904836606 1.6039672681152575 0.3995527736979376 -0.31061857245937474 -0.45503769413911954
Ni 1.9557875194030419 1.594431131011925 2.848816987328404 -1.1148763534801507 -0.2865954700719 -1.3537853161093651
Ni 1.8293169057156193 6.994843590560854 0.6934732032758676 0.11118709909949238 -0.20440990041108023 -1.7521731229649242
Ni 7.5360125007591865 3.908936799146372 3.667888719515289 2.3403571940834467 0.08600828584101962 2.4337517450862087
Ni 7.53680030843535 4.182626682178324 12.724625614737771 1.5332421461195336 0.20168350261885268 0.3800684397210809
Ni 6.845554035927801 0.9000556131302188 9.323396968827828 0.4111368789911113 -0.05525892047330483 0.7221100065764273
Ni 6.932854119112007 1.0593081867004321 0.9023072773953476 -1.3836633346157203 -1.5443112594495016 -1.084668719548519
Ni 2.0058865912744395 6.504213458843871 9.724586195803402 -0.7506633927340878 0.39178392838579623 -0.7058372375583328
Ni 9.223120960372853 5.295789768043492 1.6288509980167871 0.0004890238212765772 -0.4547165633542749 -0.4498985731403413
Ni 6.50203324690286 2.055463511546519 7.2811823670724225 -0.18447305227783714 -0.6508421122693758 -0.6206244510354151
Ni 3.5399130267442187 4.561965238805599 0.5555464002883226 -0.28134219209276057 0.03151683966135862 0.7184454132406465
Ni 6.140090583031807 6.103933874917636 5.121880307474882 0.11080683294193819 1.3725862508659523 0.98975181836396
Ni 6.6747280179614785 2.2128693173549343 11.454234437819043 -1.326370414431522 0.5211466699530509 0.389374033392723
P 0.09549694723805897 5.904911670588145 12.838038774220497 0.9896993678594697 -0.6295914304207156 -0.31377897246522735
P 3.9539059605683304 6.52210402153629 13.074960940161532 -0.2737301840734576 -0.3372832262347546 0.14053161369988054
P 2.1078252403482938 9.446730092642154 1.0803838741486902 -0.6507140713319438 -0.305958447979544 -0.3851715652756012
P 6.552718594254193 8.150117744883293 6.200022593968255 -0.5624627550930185 -0.466227649317668 -1.2290119936850061
P 5.02874128693269 1.0550485289165228 12.929437289431629 0.36016167349482486 1.554043142025285 0.10068799934038145
P 4.030964543962406 6.648189891940005 8.658283009782984 0.04773792950591133 -2.16351491887799 -0.6369329583874513
P 4.5833917754863815 1.3976624230584385 3.795299206081484 0.5328320767107791 0.013656928661802285 0.9652569185463893
P 0.1836562904225452 6.236569541698759 3.687731396344807 -0.1322061245533207 0.3600269476891735 -0.7656812062991588
Ni 0.5562068762586879 0.6439136880570986 4.653922547833545 2.0391018080065266 -0.9400457093880842 -0.3818805532291552
Ni 2.0613354269002517 6.826994752766081 4.767429144970885 -2.212845389682002 0.3579119582286997 1.6581964742064472
Ni 8.516182658222645 7.393556719689137 9.443192286542917 -0.9531717052470808 -0.07981038456042383 0.7656884053880104
Ni 8.874415297572229 2.3724461745499874 10.401270851078042 0.98785640111346 1.463313796559512 -0.19197218886835968
Ni 3.030329708027433 4.589382778046977 4.922834285704019 1.9591525838753934 0.9549791907694649 1.0731087826250616
Ni 1.3084844262275637 1.1427791581563058 7.087177398373571 -0.36663828235810403 -0.6593257242603549 -0.2129696170556332
Ni 1.330872821117616 0.8688098782159474 11.90000350265568 0.5928151421326306 0.18815744310795982 0.27790874093117945
Ni 4.183002264907658 7.0661951485799275 1.8519636282390182 0.1402513634553004 0.2317911206375105 0.16164499863972806
Ni 5.748412759662756 8.250563223594186 8.151120825587245 -1.0649447587570307 -0.0405277849107173 0.1162873964405352
Ni 7.602838744917505 0.7503291000535264 5.180819314317188 -3.5707164458249667 -0.6377048035564694 1.7600792651858785
Ni 0.8115976358731402 7.418574193684526 7.548606430912559 0.8942206806341697 0.08502663865404067 -0.7292926403677956
Ni 5.015531767525384 4.796915137389911 7.491047919614415 0.3393437083082091 0.3297349815738515 -0.6297464679413413
Ni 0.8483781777401813 0.242583388544165 9.562115519481601 -1.0730344777437004 -0.9217790498684125 -0.39678343848291664
Ni 4.887119116310673 0.4634580953328285 10.756580357526884 -0.58462386457109 -0.1110246053796991 -0.2709024848166754
Ni 8.355350805078356 7.695525234073621 5.168981129899669 1.2028127095818186 -1.2043340313223518 -0.09032362538692186
Ni 7.654550074358726 6.357626267751148 7.265482092930826 -0.38805608591224783 -0.3729176876089126 0.3873852850974683
Ni 2.289039326974731 5.6820903459950065 2.6694130262462687 0.38671525561363723 -0.5769378087807419 0.10344756436338959
Ni 3.560551755748837 4.486161651360762 9.387377028742144 -0.9192130889134491 0.7708977175030917 0.7887419447733641
Ni 0.9590275979682712 4.019577974875525 4.050455455503962 0.10404611717933694 -1.2169478634316202 -2.0714599126222586
Ni -0.054656447672461715 0.44646618302449875 0.510863048162833 1.7717160780938583 -1.092178397662003 0.8144501481727457
Ni 2.294553980707878 5.450603136964066 7.139492408348039 0.21619198064767284 -0.48607116640615644 0.5199158828697433
Ni 5.131962413618905 3.0980994892862737 5.7310727462882145 -0.9365335824697676 -0.21082068903343046 -2.031305966111192
Ni 4.043477861237287 7.08812551575128 6.476751948941499 -0.01260791857199764 0.34604914535284276 -0.8144555474893845
Ni 1.1489350506956328 8.166524297767124 2.5726381816730366 0.05022444337319092 0.09296543388514311 1.0701491857761054
P 0.5195188559908241 5.392332850591062 8.390697720185866 -1.2269114024022354 0.8136831880997342 0.34938566592524345
P 8.57852939129208 1.9622273891279627 8.241540077535797 -0.03014849855892227 -3.663696277887813 -0.4452826716348847
P 2.1470324130690073 3.378119315390658 10.74277082180808 -0.29399767607324206 -0.03351535814862615 0.22231969081196548
P 3.9838060100450616 6.555631650545124 4.055831784866061 1.90767112816665 -0.47832340413993757 -0.42036791067107604
P 6.8884803937243575 4.183084709897024 10.303879501195441 1.9891768981516256 0.8138924758970628 1.9708171646975159
P 6.407038298044496 7.962857692370018 10.240998707806002 1.450418942874715 0.6153750297110175 1.6667317653709681
P 2.167460449323024 8.513232959714218 6.153566674571397 0.5204326746051617 0.8453110994176604 -0.2272443818070925
P 6.701220341211082 4.340069130204235 1.7461390719997134 0.4728268998017405 0.3208315084366346 -0.9791316196459524
Ni 3.1535208432489643 2.1565777107267134 0.18031177202059837 0.31297858805111906 -0.885497698938875 1.305253687057565
Ni 1.2093947095640225 3.1410899709634483 8.341881125926827 -1.2245601285612393 2.8819461910512496 0.5340960310248672
Ni 8.123414728883088 0.40257430279692263 11.405498456438497 0.02294529594226371 -2.3379565550617545 0.15413480630561197
Ni 2.6342456580044886 1.6644086058748992 9.229920839884674 1.6073935326219673 -0.4592046810326156 2.488194083195489
Ni 6.260973258551091 2.3652093365945284 2.567261852310937 -1.9114563062406953 -0.9323385705518138 1.5419702700211508
Ni 3.945230915576154 6.935501519326092 10.931225410611725 0.8538918991081359 0.9034013186921733 0.17901280049421428
Ni 7.377809726720233 6.456926677165291 11.85827992564843 0.7316999642577077 1.2284067560008394 -1.7110411288113048
Ni 7.758678095927966 3.826427685899768 8.192027281144336 0.30428825936597276 3.0523553090368525 0.6650060624745838
Ni 3.328789730086677 8.74905311096406 12.84275829183398 0.397052118763271 -0.6124694260284483 -0.31117213096999957
Ni -0.14232753330881384 5.173258192736889 10.550549413045847 0.18056600391394712 -0.8409692775091968 -0.08613349856497424
Ni 8.793417675797334 2.7036734996050225 5.807065957208592 -0.30498297144015213 0.5506148546154969 0.5313827458587622
Ni 4.22743095362155 2.9520252892384944 11.624615252842789 -0.6179260782676455 0.15017967831260587 -0.3917484471621705
Ni 1.218344571187419 3.1472000607309054 12.77750399880624 -1.3062407335611828 0.9520090523975476 0.20029793512523567
Ni 3.15635145455053 8.61337614013077 8.414750587805674 -0.7106583130960599 -0.6244196564117891 -0.7061030896252097
Ni 5.71091861060998 8.653297836092653 3.781529976801927 0.03870410143841721 -0.7584268387295906 0.015255897717805984
Ni 3.243101904472295 8.83442031717535 4.018478708350646 -0.44302498594895956 -1.5362948169029285 -0.1290953468384809
Ni 3.37938347189427 2.9401074079979224 7.431733330042775 0.9018324315431565 -0.03824541663444381 -0.9374643218141532
Ni 6.066659579169836 6.023082822012725 9.366957236987066 0.1077482486212725 -0.08770958480284248 0.260438609170874
Ni 8.002733585560033 8.592709929463028 2.95142435687156 -0.011239577469561288 1.0407277951911946 -0.5328104794442243
Ni 4.209897652549717 0.4135431506043484 1.8328849416442916 0.8281505284779737 0.433604206855692 -0.5937008871716937
Ni 6.044866620314093 5.997497393646147 0.43780762703019543 -0.5650323155924075 -0.271493581433455 1.13073774599244
Ni 8.155339260876474 7.3186966693448205 0.6962396906968152 0.815864254911453 0.9456658837883392 0.0019604661604804945
Ni 8.864192118890847 5.182382104893392 5.508483183720738 -0.7660568444710226 0.588881097185547 1.474304491243061
Ni 7.274167214532814 6.158503297323544 2.7911925200387664 -0.18961808681388634 1.5815225783924762 0.2915492145327495
P 8.211182000340367 1.7520018267990725 3.5223375871222653 0.6845328196536017 0.6206167377259312 -1.3093923918162869
P 1.6560450197314387 3.691172100567681 1.809274528800748 1.1071105934918029 -0.5616878246002068 -0.599826026232825
P 4.531918620458884 1.100539841937799 8.264279321658375 1.8835202419520591 1.4523143601252149 -0.5605197724340346
P 8.378829305938913 2.0617293307383338 12.809896635128137 0.17148435332765305 0.6691902757592604 -0.48658770103125887
P 6.27565762721261 7.966934139066447 1.5885885294321889 -0.1382037368976523 0.4457012472295421 0.739920552395287
P 1.6580786628024664 3.5230484461416878 6.139354074460138 -0.190185272171266 -0.8113427128920156 -0.08359916217889474
P 6.837959936351757 4.292535013557557 6.199044246761112 0.7226393967173361 0.12878964267260398 -0.17324530188281775
P 2.709637020502496 8.804199648295532 10.602114173617082 -1.1211878975204754 -0.05001695534807515 0.6868200730258817
