# total energy = -340896.99080779706 ev
CRYSTAL
PRIMVEC
8.98728584838843 0.00000000000000 0.00000000000000
0.00000000000000 8.98728584838843 0.00000000000000
0.00000000000000 0.00000000000000 13.15380128789979
PRIMCOORD
 96 1
Ni 6.338238430911172 1.9365084632791327 11.352493272825736 0.6618484906822085 0.17508955418040814 0.295531081998633
Ni 4.581709354678281 0.4689152357381658 6.025493464464184 -0.2868852333981769 -1.3466638745732358 -0.5666539103562306
Ni 2.8701436697063687 1.6702511317784852 4.684305514106215 -0.8284904283158957 -0.9153595194953138 1.5894711438155917
Ni 3.571529434405402 4.2742812665582965 4.979910827650181 -1.2022401249078003 0.9173948047577878 0.009674289864970435
Ni 5.118825508050479 4.2106962189525765 2.607911743551672 0.08875396690695683 1.2187859450816234 0.008983177335216785
Ni 7.158049661659756 6.085453040945644 2.6839675490454065 0.12134321369688778 -0.25008297696816284 -0.6686449447787516
Ni 4.979630424330704 4.739454196455753 11.210208360220186 0.06853326898470778 -0.8651816130893422 0.06850292996740459
Ni 5.577725312403229 7.868467648668862 12.31615410265169 0.3318543419096994 0.17412744737745495 0.5247328446424124
Ni 1.7420595459650163 6.49055495201672 0.5361913616550766 0.5720357434934341 0.06671138528462059 -1.1418839924172464
Ni 2.8484573488763187 1.5505404838479973 0.3732644508388124 -1.0132946386809065 0.2616326294789752 0.5289394265245922
Ni 0.3366026155458065 9.08920170255401 4.7694627440113 0.31144801033920555 0.2966618531689665 -0.020775541984454544
Ni 8.643791814308143 2.3596838062562306 1.424951252222965 0.13548839484901828 0.2098835219311418 -0.33612520137091145
Ni 6.837877602160987 0.627058214280151 4.827708445075317 -0.7721477878601088 -0.03143610702209424 -0.19082110598305202
Ni 0.8415065388645162 7.371920103761996 2.7632318155985396 -0.3549019677577823 0.3760397781776621 -0.2421557517012862
Ni 7.505102693227604 3.921440422883301 3.766682954932563 0.9744388421559734 -0.9791275058808943 -0.4372598013304082
Ni 7.8070215751027385 3.7618711620720537 12.423804711658912 -0.5552994045753598 -0.0036949323530839585 -0.2272857765679892
Ni 7.9384875929651395 8.649058363834214 6.845238189297253 -1.2381949457358545 0.6622544678713755 0.4985975810079414
Ni 6.882589349417306 0.6689910927421682 0.5574148372622723 -0.29376653389904245 -0.08406890272646167 -1.32631410727229
Ni 1.9603427454346625 6.509482176081406 9.111138768660133 -1.0143279650414272 0.737401385517859 0.6435059836192788
Ni 9.071227130792677 4.820115087234741 1.4589932936817565 -0.1277869124397025 -0.6230034927905529 -0.6314930183188028
Ni 6.156785128980499 2.130678774730949 6.81928560385965 0.7689974151565853 -0.9008829231456935 0.6500653820043514
Ni 3.349606384154086 4.497660257122281 0.40461390144775583 0.30619447524975013 -0.6793965268683009 -0.1289174264997199
Ni 6.073535899867879 5.574040525192156 4.806043693731381 -1.3485351234540195 0.8493880977005114 0.15972387035761523
Ni 4.96543051263925 2.7652800180507437 9.31361512972286 0.4506560201316561 0.843338806182638 0.08189297812106541
P 0.28591881682178355 5.47469506706726 12.368045792598076 0.2735244958205547 0.052189537519361735 0.10515503397279954
P 3.8758299470389144 6.208650755797831 12.38127867232877 -0.2780252119043857 0.43702711649431186 1.8176609202550889
P 2.2912546115608303 8.340785470841448 1.4435378581527731 0.9955900223122918 1.2920065922396715 -0.21583691130109922
P 6.089919722028336 7.617219084588927 5.879183146512686 1.0629812072727565 0.4150647532906077 -0.3366728463442653
P 4.794141831039613 1.1465440089402432 12.687302047665607 0.033955273899522166 -0.5728908924048778 -0.7513779023026091
P 3.9132709800177743 6.125967725695691 8.227203253152988 0.759739129783111 0.2577759747370464 -0.869018213226613
P 4.716994969039965 0.9332847022778902 3.7425323203140337 0.7787228699744653 0.3985682982974813 -0.26709210993164967
P 0.246500580949177 5.445962714106766 3.5240747674983033 -0.12989187459784726 0.2674181258125007 1.1497939912929425
Ni 1.4553741136576117 1.0608142889245584 2.649701724168186 -0.21709058120254224 -0.2956241559330715 -0.5473217856865219
Ni 1.8112167108167505 6.440603617091972 4.788180564314966 0.5939387142141125 -0.5866702055771574 -0.08707632209421778
Ni 5.932615257259017 5.655213691266342 9.317560548224474 0.18081642936185632 0.1545598096581725 -0.9904197909652619
Ni 8.602459286542954 2.2013817527541577 10.057107227501408 0.03804589902912802 0.5479861587433982 0.2820446174764239
Ni 2.194605339200135 5.18188030578924 7.0388881368965786 0.6263803796825858 0.21571709789378332 -0.4607774248363741
Ni 0.5879500397704274 0.0036497367961389683 8.88994368856515 -0.5451180931669838 -0.8716548795185117 0.5543596663699097
Ni 1.5772057610559371 1.0586843021708403 11.36850142643638 -1.1581161380053926 0.907722057554714 0.15481743419493338
Ni 4.1227196774667245 6.811553841816512 1.5132657156579297 0.22721789944453127 -0.2453943132432419 -0.06184428700030639
Ni 5.433946712884314 7.792632930407791 8.140334844016222 0.29078302579068627 0.6126794851567254 -0.24352589257593543
Ni 5.263709543732715 2.868957347970121 4.753941701295388 0.7564406615374972 -0.9055250499033953 -0.6766999538727442
Ni 0.7797225433492811 7.311318835068656 6.87051942447957 0.387016846014456 -0.2309387999395442 0.1212732796909008
Ni 5.16126347197899 4.393920016201739 7.125558825743969 -0.8326551012165466 0.6686017502456421 0.3234146957827785
Ni 8.082257205198173 7.057760538517392 9.17036947625667 0.8245718099877799 0.5047402035705695 -0.03975156886632509
Ni 4.548213740201034 0.45446188258487674 10.390411509129011 0.01691940146315796 -0.2706674859877338 -0.08507574672442123
Ni 8.155818140131435 7.025064792483524 4.8526346824653475 -0.3771674640242021 -0.015116029705832031 -0.264241527856732
Ni 7.212009326087283 6.140545103394134 7.121875835990072 -0.1087005852322128 -0.7926435938206156 -0.5889605442732309
Ni 2.332416380894286 5.238446283122159 2.5237799629655697 0.18641989159156283 -0.5193630956900669 0.8508166026169218
Ni 2.2520610578352405 5.187299639175282 11.232083414053731 1.117404004998011 0.28783731289880105 0.8990942066763871
Ni 1.2546880199423123 3.2537569802367696 3.7451763798201263 -1.1418117444184144 0.8014434515004327 0.04194857651764388
Ni 3.5055627560413045 2.521481913965883 2.692267307556203 0.673524127247924 0.6015509793437317 -1.1876038630518644
Ni 1.0614703607938472 3.2386763145290103 8.1179609958163 -0.9482832668065281 0.3768825857939316 -0.3835620546966362
Ni 3.3654150200181796 2.6213306601000963 7.077284518364553 1.3802936468125389 0.7033244984388081 0.031494728174171566
Ni 4.010028099809038 6.758088478112422 5.973417535157246 0.3992822936453704 -0.164604081268052 -0.4657972466484688
Ni 0.8934521525261848 7.35850208594216 11.338129792531252 -0.10008558986969215 0.3456683649746563 -0.08111239120129901
P 0.20892204249634305 5.5490378958721385 8.041260801924922 0.030217918344276992 -0.8314016884254197 0.037363271139806614
P 8.43200642253022 1.548868848674193 7.792746170209887 -0.00034684181645746714 0.09650532871760155 0.56470141461555
P 1.730313163318984 3.1237199408293956 10.236590516367038 0.7293160374065634 -0.2023411908075096 0.9543528700393757
P 4.067232174439485 5.981712800025102 3.7035319932348783 0.03778081829319945 0.28276401214095176 -0.13092777206152936
P 6.760470108870799 3.812173001146148 10.179674034884773 0.6359603100615371 0.09574736750565445 0.8992327891367804
P 6.384756622629505 7.7926059685501485 10.206389640893644 -1.6013221296169067 0.15765876029847042 0.05346737579052081
P 2.228649178116102 8.46917783693266 5.5191776385336215 0.9910967624276287 -0.15427107477316013 0.6975408018774955
P 6.9725341065110245 4.044197760727334 1.4264898755657354 -0.12992324205641495 -0.23354178478003007 0.4757528151992839
Ni 5.353195949246519 3.1300829392329077 0.3030953175969148 -0.016078393619101343 -0.8781461436698103 0.007102672483052284
Ni 1.5961060232629802 1.00480552331624 6.918321000621662 -1.4693327490600825 0.7732448775790296 -1.3821067887618779
Ni 6.663434383217235 0.9842066640777507 9.049486886247344 0.5644633304628149 -1.0189690633578645 -0.017323835990428228
Ni 2.4993462288418 1.4598587693120646 9.037279455835634 1.5320720370708325 0.4103195252961385 0.42305985568094234
Ni 6.369828740781717 1.8353206115487004 2.495460126426999 -0.09760781775316094 1.046135082249695 0.946609221538215
Ni 4.0550454147853 6.964840989797173 10.473871939459826 0.27785269088226344 0.5894701369197978 -2.010064540233912
Ni 8.226089728432372 6.981188862814106 0.579216195351595 0.28395134758083357 -0.2298964747179589 -0.6332033161416901
Ni 7.5388409644236285 3.6602968570487526 8.127141508343401 0.5647196694479951 0.5552911770452438 0.04429547948326565
Ni 3.1156583453944364 8.45397134922257 12.310195532112811 0.14274507641143158 -0.884556160961212 0.654987244786001
Ni 0.22468664065962146 4.773569933658766 10.212768816411742 -1.5737061676718511 -0.45797132284614683 -1.0027338324459247
Ni 8.48008840199179 2.381954300668524 5.720298716885546 0.8038651735680479 0.2853960504471601 0.577156095439135
Ni 3.7148766442020444 2.8077988675521803 11.500894932201664 -0.8445793634579584 -0.6382190241887268 -0.27210421843426036
Ni 1.286134533238767 3.300616688818569 12.457123276604309 -0.755978120078782 -0.17083077890405418 0.3989794176929709
Ni 3.009635333860205 8.210622609431743 7.646804330979496 0.18724058772064528 0.25527017759605714 0.8894998781197326
Ni 5.51147104089095 7.852245597654257 3.6067856581866713 0.9577169014156021 -0.6598623134901151 -0.03886813782010726
Ni 3.175154177924454 8.19844483706344 3.543712885876149 -0.6050047422202871 0.0070098556589298635 0.15294721375541404
Ni 3.2285386560556173 4.316782141487972 9.12723859258676 0.35224781796438687 -0.4443429334294347 0.14932632917337507
Ni 7.4425601707840405 6.169556062216928 11.410672467974235 -0.6754298289110691 -0.15347351857252922 -0.006566340363608045
Ni 0.4610927021076331 -0.021524549684198053 0.3865584441134954 0.46331510365656337 0.38294267594508247 -0.08110287811960226
Ni 4.515473057737764 0.232034645595655 1.5535161742030863 0.4233974415260192 -0.17068268336196413 0.19923195575456654
Ni 5.817425214126504 5.500227946254236 0.14454880991888777 0.8966097496916364 0.962844966670787 1.01604520484285
Ni 8.002926432729524 8.868905351047097 11.085603236399088 0.30623484156938224 0.06539960845173252 0.24720462697910328
Ni 9.09360547263554 4.851327931098299 5.785778284354912 -0.7925698031598867 -0.22561455951315337 -0.14060540436060948
Ni 7.97929885814925 8.816105046498176 2.6829412009978344 -0.5611309236554722 -0.028026824230229154 -0.3494270606861401
P 8.448929481843516 1.8007644973375345 3.6228854821132987 -0.45900207810350635 -0.894753156098872 -0.7442263788594924
P 1.839697419772585 3.2298238379365527 1.4811307762630161 -0.19323151519675755 -0.149348183550246 0.27983681119182774
P 4.693565114749066 1.0809008728678497 8.093836424326826 -0.8590701008749656 -1.1037018249205701 0.22370525830558247
P 8.466535574883745 1.56404837452664 12.37834522221732 0.30359251885052874 0.6558827600170769 -0.18380739366938023
P 6.4278776202849475 7.6768677009789155 1.3774004213569429 -1.6210980266922532 0.15411038082557973 0.35864240863682106
P 1.72783267241592 3.329915240789544 5.920565104350218 0.10732504504092484 -0.6288283270024461 -0.5359153436217933
P 6.9142605448607775 3.960885620613549 5.929930754966462 -0.07807514703687199 0.5538040509767559 0.19011250995180162
P 2.421471396685818 8.580665118282337 10.075759440618146 0.21942334310077696 -1.6585014070413757 0.218433725493998
