# total energy = -340863.1697096737 ev
CRYSTAL
PRIMVEC
9.36898450260347 0.00000000000000 0.00000000000000

0.00000000000000 9.36898450260347 0.00000000000000

0.00000000000000 0.00000000000000 13.71245585103040

PRIMCOORD
 96 1
Ni 1.1093533567041556 2.578485090115738 13.122189491424901 -0.8872817874224913 1.3111872789331804 -0.5142854240568433
Ni 9.03681659695429 6.08211056220004 0.5085690945576387 -1.702817712460248 -0.9081156934487069 0.6058714610959565
Ni 1.1481503218338518 2.782401039414901 2.9023643286228618 0.19095454623712274 0.8430528995111028 -0.43244335377837134
Ni 3.8458182647423604 8.514411385974643 7.020063967474902 -1.072489660983824 -0.5860410566335907 -0.585851566330604
Ni 3.387393849433009 0.7383050284501191 12.026920529234019 0.6269565639010299 -0.25091087218609687 0.692945212087013
Ni 5.93605746164297 2.919731615331608 13.369959783727944 -1.0081454903797993 -0.32871862449419514 -1.2000850262380107
Ni 1.2935850694088988 5.672817102007842 2.5453750986237447 -1.6541801539582028 -1.4291533486277193 -0.20543551346211716
Ni 8.75657153031351 3.3097718122198887 1.0047392749272455 0.338923590051655 -0.007753418693173743 -1.2167779135126593
Ni 0.9653989086921348 2.5543505858476636 7.291721422853213 0.6527113042676308 0.5606429282754603 0.5937852193553838
Ni 1.8854050871129882 4.246501628109109 5.081932108964449 -2.2280611781904915 1.0182131590284467 0.09348993893004544
Ni 8.298006580235517 8.929869638017927 6.237631958569735 -0.5074496320819326 2.8952724758465105 0.3438421103991949
Ni 3.406216139446426 7.42254055448952 12.259469969194708 2.04598593672087 0.3385728915804556 -0.6297575236849348
Ni 4.690703924831916 2.4846547095859375 10.195567924836016 0.7484285898662981 -2.3935101239573426 2.0064531687335703
Ni 3.096786685851046 6.423300873508453 3.563250626825162 0.6364935568571877 -0.5647739197246983 -0.4700655350065195
Ni 1.3009678292548783 7.265872394407709 12.841975342433223 -1.8752191782855319 0.471884076272497 0.4375518786495303
Ni 4.145494605394004 8.48197596137213 2.237585217329185 -0.4432964944427914 -0.14858945100735055 1.0211817547384672
Ni 2.8213385393132384 2.0722601154990437 5.219234577927428 -2.0846082770787584 -0.47222731854452865 1.4702048672523906
Ni 6.141612983242954 8.094062523982627 7.274691419589208 2.4050993714568385 1.3661009002519247 -0.4810827120526296
Ni 5.638067538215028 5.954626789072832 8.262207690170179 1.0309966839463598 0.5873577185624852 -0.5381406334078861
Ni 6.438469259537186 8.774728622422023 12.333997430802336 -0.19852515949552907 -2.5680834006229643 0.45352974213502534
Ni 0.31318922710577524 0.9308236080124367 9.058804666855977 -2.9973902656548828 0.3345784257090818 1.462713958191984
Ni 4.175625259790793 4.76260151246903 5.401514731144966 0.4155167532263618 1.6108357255342969 -1.3245367036568931
Ni 7.1244382032466635 0.5387353510958166 9.174634360068955 -0.4527126455503687 0.19317829336131892 0.41622432081634764
Ni 6.762823505562318 7.636996611436812 10.122672540341547 -1.1353670172343349 -0.16979642410226886 0.3903672505439277
P 2.602488428599747 8.78373221659967 13.737412295701668 0.441052435603621 -1.3038375234363286 0.3780305833554457
P 4.564147681177743 2.0865290790084683 1.2066933588561697 -0.6936337535136055 0.6827592726929467 -0.32021547211919044
P 4.588216602553785 3.518971868819981 7.128420021691513 0.9113581116454047 -0.8565339647166733 0.7072870826309818
P 5.627396264782832 7.485912366162367 0.7984801425855963 -0.4838667025556699 -0.6150065906280052 0.04663312647750679
P 3.125165340132101 3.700861335380695 3.4815924310566513 0.8722004676093366 0.7885930779003257 0.8587551407377082
P 8.225350104847738 1.873740701315724 10.600085076691313 0.4231220763774454 -0.17510215258589845 0.13246246353850089
P 5.630132008279058 1.2227555460134625 11.979996906883 -1.8893530465837527 1.5756905450917316 -1.0783466339852332
P 0.10189801314829416 0.6634262299208855 0.2763634963308941 0.05444876586718365 1.3761734539965784 -0.34244728693419735
Ni 6.650882877846886 8.162334314588783 4.713849064328753 0.010609657195046243 3.460815155416433 -0.6198220097387777
Ni 4.962292049724364 5.052590323068969 13.34001182453039 -1.240025056966058 1.9392530167379889 -0.014656573570910242
Ni 5.691648761005835 9.659235718283973 0.9798177759547771 1.2448672155497076 0.19022486715994982 -1.5190761390317966
Ni 7.6071845025156115 1.3882024446430932 12.817896115174147 1.06899064669163 -0.24387864792966385 0.9281391877584854
Ni 7.964423884402911 3.544549196712777 12.036258596161035 0.4617246192409919 0.9146704638480893 -0.2581485275851167
Ni 3.4982570439221887 1.570860167939049 3.028505526260313 0.10434333670478159 -0.5610167666751112 -0.3779084559552846
Ni 2.837706155367713 4.755490453175757 7.251077830863565 -1.1363070125501011 0.3375243957112832 1.9386981726757837
Ni 6.316700567001407 6.485670203831657 3.2573663969933846 0.04441632133184609 -0.32944804646105197 -0.777192806483184
Ni 7.841053095504617 5.479628640048332 10.299617993741444 -0.6659511999966724 -0.11818075680850615 -1.784305741833411
Ni 7.812355895747974 1.2527550346261858 1.7066664100652218 2.3782251727738135 -2.0645320751541734 -1.0669584467529494
Ni 3.1272171477542705 6.710300978028612 0.9642708829491705 1.1166308742774125 -1.3924876177755696 -0.8808368031280959
Ni 6.282672415020954 3.551051272008602 8.634390602456383 0.7060814923586549 -0.22962290934159807 -0.03070128573859874
Ni 6.615308843411373 4.236280065936566 6.27076068803088 -0.18403699318168304 -0.3012949810656037 -0.39593805976348584
Ni 4.534841497423652 0.5236531597251853 5.1177769070542105 0.5254784645591853 -2.4220694236522737 -0.035848377157176974
Ni 8.526450531154952 8.039450712888447 8.529586330292577 0.7657136021989909 -0.7877872941695787 0.010508869951123836
Ni 8.789812687589569 3.3470791088019824 5.858468215875867 0.47117342335871754 1.6082959898315785 -1.854995137929173
Ni 5.953174596463534 6.465358245270639 5.77435628304687 -1.2765802303822724 -2.6855388492296717 0.16719626747526045
Ni 2.2633124489751992 8.740335080043101 4.456822215264505 1.1143518484352486 -0.37675120242238985 1.4662163149182879
Ni 7.741901131735582 1.9265442983867131 7.285935137979004 0.5127000818475944 -0.4857528638347892 0.04550621196191518
Ni 1.479531306291071 7.973127671074123 10.365986006681734 0.40864445158656076 1.0213362780384603 -0.31365607373411786
Ni 1.6393942901133367 7.933993422499687 2.140185253675884 -1.1111469683447057 1.898489975888014 -0.04245791205389462
Ni 8.411708577051261 6.7801092821052515 5.827615212768259 -0.5274245325419625 -2.7450022947026276 0.5829318215806476
Ni 8.375385023849658 8.21082817875476 0.14888721839134586 -0.8316670262716644 0.9269040297998036 0.09967729868767995
Ni 6.486935016749433 3.01059202775078 1.8407740552877447 -0.7316030336685271 1.7725779118735216 2.373439321349396
P 1.743118318355516 3.9665282620210376 9.989332214955807 0.9807730119041174 0.33973657287125364 0.2697033223022517
P -0.10548727113940418 5.199093134885694 4.399723875663824 1.1469043284499731 0.2676096729980165 1.1639178322888344
P 5.0324938511532 8.572386662531647 8.899863591116 -0.04589830519401128 1.2005701934045454 0.9674796372293208
P 6.692565490226024 4.256507703636401 3.972731466708884 -1.094835632779192 0.16781770310934324 0.09115409170801721
P 6.837513050603114 4.81284737675074 0.5905477095986528 1.9086897992391516 0.3157489517074046 0.14420674855862262
P 4.214300428120999 7.475803231804738 4.861710378909015 1.3939487757021283 1.5855131876091082 1.2263519303543395
P 2.5126398665147955 6.902262103008651 7.974519902182133 -1.015633314116412 -0.39483865605172 0.0010680362531981606
P 3.0726428125983953 0.4349073271248426 9.867743406923891 -0.2326691523670896 -0.016289481188642915 -0.1769579748477146
Ni -0.0649823401214823 0.1770213421749643 11.715813090501056 0.5926837587610889 -0.48386078901839896 -0.10389236521029203
Ni 5.840081583645238 4.21846962625737 11.118634950517887 0.2953207657600398 0.9273195200706674 0.8843872394835156
Ni 0.32178620735281915 5.343675304864314 11.789188167005824 0.1381500008415814 -0.33566034591935096 0.16921509767750212
Ni 1.6275612625937026 1.872860016765569 10.927675369989034 -0.1493327569312783 1.0967459624280274 -1.2418500259899388
Ni 0.7849981737805655 5.9404983603320485 9.325786062032348 0.8183124593416294 -0.10404380318649177 1.4983237369757938
Ni 7.148216686100846 6.127493923486747 12.420344803351194 -0.10658790976458417 0.5202118168436073 0.7779335413039506
Ni 2.7315180841820155 5.1179015145490725 11.764930929039801 -0.3941621988099857 1.052825092675361 -0.926530962731101
Ni -0.12663306932769777 8.01155924580535 4.145577052458274 1.3120434562858887 0.2646130522635378 -0.6080561274521011
Ni 6.133387014785123 1.067258509003667 3.1482561395183963 -0.8266189223247957 -0.7923600011419257 2.1059587177300765
Ni 0.35856977769710785 5.3973221105471545 7.286785841778515 0.5908755019077565 -0.5679055233751445 -2.0550457329302927
Ni 2.883445538068311 4.051701700802507 1.3757847924859092 0.6909857743677972 -0.7709493966766336 -1.1076878061515116
Ni 4.994024800483668 2.7283045224724076 4.819283869154531 2.1443072356012873 0.3871821679477267 -0.6766984112108475
Ni 4.812407034475662 4.909216752100667 2.5553296447358678 -0.03188219342057735 -0.7594208272117438 0.09043443993317328
Ni 8.79521859168999 1.581062992142439 3.94131632452671 -0.5789828642352286 -0.8755269608794083 0.8011179498402139
Ni 9.02192928046284 3.5920218415599563 9.480120408056248 0.21649614215165294 -0.5971459082975007 -0.6076529784764115
Ni 8.25424405328048 4.932264454157912 2.566231395188636 -1.0467719445027455 0.286849495064235 -0.1257778524294737
Ni 4.28453970548814 4.637431878532121 9.48404226499981 -2.462009197270005 -0.21626371442587272 -0.0012783524917913468
Ni 3.469840913702829 3.281608644584084 12.641732971986356 0.6486332775435152 -2.1502673098394647 0.5283786689251159
Ni 3.7819405279024023 7.0350018764830615 9.864246901880083 -1.1967564760854097 0.4579857210238499 -1.314426868916401
Ni 3.2039210244789316 2.3718146593511973 8.54620597203215 -0.9693755687004532 1.0380163097973025 -0.5805805477396516
Ni 5.449872745034588 1.3448708909785574 7.495078043773182 -0.9545277050543431 -0.14422783160454516 -0.16376153076209862
Ni 2.181483737687403 1.2717272283928205 0.8942808205717543 0.6457297307434751 -0.38598043433014173 1.3804193737571258
Ni 1.9943101638257594 0.45603251354706875 7.932422243786272 2.2235380935091578 -0.3665786327647622 -1.0594449119847238
Ni 0.9606582024966203 8.173905010540286 6.775680563096122 1.28345741711808 -0.9786310258604503 -0.08911777800427878
P 7.678697961785104 8.198170680592426 2.7843825796527493 -0.521251056741399 0.9175205317023747 -1.6091164288503446
P 6.6900171264213215 0.9677224168670117 5.483570171859504 -0.45253421099097546 0.4742039826549253 -0.10135468639010285
P 1.2095078018228347 4.795739610914752 14.009056634501574 0.7290980078584862 -0.9363829158245164 -1.258244665297878
P 8.793710185173234 7.471727723514128 11.067871918287574 0.240695879326308 -0.8573207222840268 0.009497140857157837
P 7.733600211401144 5.315380971444444 7.8904351394084085 -0.5661366044001799 -0.24648548942489162 0.9469270098889497
P 1.398114830324624 0.6424115975166577 3.1168278807578154 -0.9435925461990782 0.41695040034909475 -1.123125995083453
P 5.092492828378647 6.378292271604793 11.298268365592671 1.6635613380627863 -1.55514126018547 1.282542361502978
P 0.6970140396262611 1.0636046050189818 5.794910898308411 0.21629379633285975 -0.6848056136990143 0.17991577192445787
