# total energy = -340862.4617157248 ev
CRYSTAL
PRIMVEC
9.29107193918384 0.00000000000000 0.00000000000000

0.00000000000000 9.29107193918384 0.00000000000000

0.00000000000000 0.00000000000000 13.59842293893814

PRIMCOORD
 96 1
Ni 0.5879232222921718 3.39304363805234 8.141851607711889 -1.7179142017820546 1.159045077577565 -1.1561338174680411
Ni 3.2296880154401495 4.170093128528277 11.779606279494558 1.3185411481950906 0.9006206706232426 -0.6887468577349494
Ni 6.042262658024442 6.489023840671876 3.25977343470875 0.5807245295166837 1.1588522448404688 1.1904379900665498
Ni 8.216001792727438 4.706587481644857 6.4151914103084335 -0.0737340964593569 -0.47394995766259024 -0.4329046096855061
Ni 2.253363619163606 8.670660386319039 6.7740674166476555 1.1512692902868882 1.6161563664162617 -0.816871870240361
Ni 6.0207631181129075 8.2732998318953 10.974267333909442 -0.37594721846385576 1.244793681999295 -0.03440264584958591
Ni 5.74793079767115 3.482656024589399 5.9514851710963255 1.2419397574902677 -1.280592693975775 1.8572790488673432
Ni 7.279805535118966 4.356351242878555 11.996351187410834 1.3333890118412004 1.3761045484318557 0.2849566489168963
Ni 2.6449079627037566 4.332045799313915 2.9760148139489444 0.9948749985231384 -0.04584225514509524 0.8331844913574553
Ni 7.585333136869578 8.497725668785156 9.23827890052017 0.6560187713743089 1.5522809079185396 -2.012592963082721
Ni 5.11025667375223 7.284283831677894 1.1698379085165864 -0.3087768912649456 0.6990577527426541 1.1698794491889077
Ni 1.6448634603796122 6.554358656859393 3.1013653077762884 -0.7191290695712325 0.21105594497268815 -0.8299940094446158
Ni 5.253264849343564 1.3206793866573652 11.908967728974371 2.5912570105259505 0.16606395364303012 -0.7521350921836079
Ni 3.913083503189953 2.7292151473006747 4.411559720021308 0.10216998320254661 -2.529113190007354 -0.3593954847527617
Ni 8.180574936339069 6.4015484006255905 4.467150060210892 -0.1706477163589706 -0.1056204036449923 -0.06186768403907408
Ni 6.880976991366783 5.065482999234646 8.675086652876452 0.14267848483955425 -0.7205565460463783 -1.0882404960601773
Ni 2.5996325703144265 6.236650460111363 6.9903914390159665 -1.1800597321560191 -1.0733993172822869 -0.2821171225855722
Ni 3.44173814482691 7.411311363946911 10.95338007562287 -0.41146752285765265 0.629905876337341 1.3729978844820743
Ni 6.645373995223004 5.546918461462827 0.7757292291875062 0.14057917910836434 1.1479307128319585 -0.607369900018354
Ni 0.7856195750111143 3.8824694219416784 1.7570252779301958 -1.4673635411488537 1.0701072767945763 2.136034454069534
Ni 9.040751645306148 2.5337774541117644 11.673538475871363 -1.0561988942436003 -1.9905202995533975 -0.6311245792357905
Ni 8.005624056246502 3.8837794630512406 1.1386561427875017 -0.6029938824378455 -0.7495470197414575 -1.1268299262976011
Ni 3.762530977379014 9.012237346261854 2.4469412397983725 -0.48547827001716387 0.39297332070820706 1.5021551949067418
Ni 8.827326437307933 8.171841328941989 11.39742269069117 -0.8544482858322381 -0.18173148497695799 0.303075212894478
P 7.552331250194655 2.9070369685482413 7.499312678651361 -0.37086671861715487 0.4461470765177091 0.6275959972572418
P 8.63352397273805 5.897935150251848 1.995948903099205 0.35882469985095616 -0.6867894768982624 0.8749556617569707
P 7.580771220665359 0.9261256649939019 10.988681502543304 -0.253788193733892 -1.145252651779163 -0.7909672345594572
P 4.136440866834422 9.034377970120621 12.350944009696807 -0.8513313374698112 -2.478232343997087 0.6696204213181435
P 4.554817825441346 2.8431143952589757 1.4375434155948235 0.16100016596687755 -0.6425999268652417 0.8299323029687448
P 9.133885348017138 4.569925108023955 10.822549707707445 0.3261187249775029 1.0440288345399695 -1.4681271587877553
P 5.75770500509852 7.413206742573512 8.647617599398297 0.41127443301024014 -0.417670566344571 -0.489101468592048
P 7.571415111464445 0.0726989196161611 4.5357265313141975 1.1549539382273268 -0.5699392659757216 1.1458432341753106
Ni 8.86220512046606 7.968812830174979 2.5694087140775106 0.07452728178461358 0.703224482525834 0.3573848820806361
Ni 0.3984095164185572 8.01236937429999 7.682578138807384 -0.7381305503743997 0.7628414228575184 2.1155990690333177
Ni 0.5921896824163623 0.5797238515177856 10.150855395655388 -0.5024339240348961 0.35463971523533117 -1.1627035002657589
Ni 5.69126455137882 0.2201528730154767 3.5782072641564726 0.803015681083559 -0.6145610184501544 -1.4260047756964085
Ni 5.144531437249919 3.4244474603950317 8.393422239677605 3.425801872566042 -0.724748729750855 2.0748794798267687
Ni 4.5619254952910975 9.033829796890378 7.026590383462523 1.114380644790655 -0.8885783947467277 -0.09528122650251333
Ni 5.817985478281771 3.108801881564185 13.151809304258846 -2.6544629537604734 1.631490425670171 1.3181351710059235
Ni 1.6564308446448934 5.121582490153337 5.018035354282086 -1.7907293859715676 -0.4187730553801304 0.0896872773545036
Ni 3.823071600569836 4.707209983448692 5.456163273106788 0.16360160814546665 1.1235949643000713 0.2427720451290464
Ni 1.2736665638603182 6.38703574663172 12.052920806557495 0.4503364320087083 -0.533289733073488 -1.333657949231871
Ni 1.4775033858651436 9.207164030507316 3.577840266824361 0.5579977773431293 0.5002160904479708 -0.46673827040549937
Ni 3.960282147420981 1.9719556395436526 7.151016415655815 -0.310469191365704 -0.21587213541440886 -1.7572741916369155
Ni 0.21500933572289857 5.8843608944995776 8.838390245487128 0.33939255926827355 -0.29160423614040104 0.3552783772605946
Ni 0.3744692119716893 2.130609979876138 0.18748546492171822 0.7578647955785335 -1.775832414255077 1.5929344197738438
Ni 4.682179836291528 5.4969139135786955 7.578727184891575 0.9508168318616592 1.3757903596255467 0.044596812773768355
Ni 1.818049036849367 1.5429311127696508 8.056929354168496 -0.16708699559090578 -1.6142120982056973 0.4850776921446356
Ni -0.012969406984663662 0.95243705093836 5.654482127629565 0.28207984158973354 -0.688440382238124 0.045221847952276954
Ni 3.6542156635118253 1.9961774634630012 10.53403127091623 -0.6916375490191831 0.43845716407261903 -1.6424204423191133
Ni 1.4323766506229978 3.120889565844611 10.23675692815586 1.5033898386447915 0.5798421269117304 -0.8242823037718192
Ni 0.9188879201403644 7.602447290939176 5.024971139305405 -0.11297041625216028 0.6929446978663808 0.3208880727061828
Ni 2.5561875190498036 3.3459379045383026 0.7036453785178203 2.764268342021091 1.3855474390123106 -2.4726409659522384
Ni 5.136401749513276 6.697924296752667 12.50364091485588 0.34579923412556574 -0.11363838885346235 1.4294317991000867
Ni 6.871490807162083 2.115586316938821 4.214994090728136 0.6368666239258903 0.31951407517679165 1.517473056210735
Ni 2.950482019812864 8.069964727762223 0.622643028124244 -1.6155434154226112 -1.0164054163957463 -1.8561446781525839
P 5.530380353838569 4.084605977825583 10.838568444423728 -0.7019355885110815 -1.628955575063459 -0.7894844793663436
P 7.099716692376839 8.928496917038576 1.759636069077621 -0.16541654986701834 0.11552480724289782 1.2564513208428811
P 3.688443971651019 6.81569792160946 2.8780246680608776 1.152402118339751 0.25919856611618586 -0.03621090270291829
P 8.754763167338579 0.6300034151242087 7.93757624712287 1.0823979212364712 0.7790851384098905 -0.06991112316884088
P 7.5432445820730125 2.107967638145624 13.331458679309609 1.1890300539754297 -0.9913091355487509 0.48622260438235615
P 0.9965603504370114 2.8987493325927143 3.7703800747503475 0.9457779838861712 0.7094838331719845 1.8725665711540331
P 3.6517442384398855 0.3482154306717652 8.830339531859925 -0.42312001949491646 1.0834207060740308 0.5410385237809715
P 7.8332468030145606 6.469726284753008 12.797448758765348 0.33184020084231236 1.0908758768004954 -0.9995166110602077
Ni 2.3390273002285813 1.755408631454566 2.3854492108655707 -0.01377494229690531 0.5566813725245511 0.8312934449823297
Ni 6.7001727361038315 8.365550882794881 13.421425055678402 2.5721719688700406 -2.2758644137167 -2.9852942537222975
Ni 7.6211966736278 2.9189759956814836 9.834814017170164 -0.42334113436678705 0.7250068685082481 -1.0204209653130427
Ni 1.875560770666308 2.67345013496315 5.87816282056916 -0.13262752836145544 0.4521300335740213 -0.6998180279474464
Ni 5.108909468355871 6.1016790615396825 10.36678454747649 0.7529071944629421 -1.5005803942204543 -2.616333236768287
Ni 1.9278602132600984 8.827911774824972 11.930331619239098 -0.5295693467991073 1.262569517925477 0.8192203158678794
Ni 0.35585547892987035 7.844488999770377 0.02729716865172422 -0.8626598751087531 -0.3191667191397019 1.0715095564587418
Ni 7.611441048343828 6.504679296484726 10.197294030221435 0.04860799081569048 -1.4459025430616002 2.3732698856510672
Ni 5.761151992698858 7.878810218626561 5.519218989406536 1.5530766643469576 -0.47485884263010475 -1.3133866005773445
Ni 1.733853345112837 5.867209576143184 0.7695255806140698 -0.7174460254418547 0.21104128968466881 1.0086715380865985
Ni 5.906566555860238 1.0709353793876761 9.323023694594111 -0.7459161078570896 0.009593557225706059 -0.011298969952586993
Ni 2.6726882670838297 5.515616840908825 9.638970304148007 -0.6599461314531732 -2.066744766534776 -0.057500408209313875
Ni 5.540916429145259 0.6257053653562413 0.6400898025606659 -2.397424371410084 2.034372777961974 1.0899885890995358
Ni 3.340762777601948 7.415027792626521 8.69761935996092 0.9345016396414035 2.3628931704024336 -0.32164474836654927
Ni 6.967811347465835 0.8364231550613621 6.710386411222564 -0.4022951123297652 0.10806192320694936 -0.03609546017097655
Ni 7.558667761093387 6.959830316876376 6.862130981532489 -0.7987929012514631 0.26199952590009074 0.9234813772714998
Ni 6.846126181423755 2.13657484790691 1.9514957705552383 -1.6984915742810685 -0.07573955692515988 -0.4466376430008823
Ni 8.918620507822515 1.5992257161940202 2.8224203912637456 0.5418700185433313 -0.9865600508995397 -0.19816391950136839
Ni 0.7442157721987661 4.203624606290044 12.887646482819445 0.05982725657027761 1.3661803473396086 -0.37698028771406045
Ni 3.4999838733080737 7.289997840772792 5.128984686975946 -0.1595328373927317 0.44605374547295434 -1.4292348525979321
Ni 3.1843661676923243 1.0951107479485291 0.3060479017657576 -0.48061297150506266 0.2572537836849892 -1.2401338146297802
Ni 4.805332991662054 5.04020199314161 2.1075244540255804 -2.522688260317617 -0.5655169685383098 -3.4696759482411728
Ni 8.332911347916221 4.060328407476041 3.6130060440979865 0.048271176301562024 0.016735567587126014 0.005404973065655207
Ni 5.68737159233693 4.134629107853113 3.7480517712432593 1.4365159596403776 -0.6832668084569845 0.7681085847937287
P 1.325408542152167 7.574927136566675 10.044488419523484 0.010631768682233304 0.2721265870317636 0.02212202871001997
P 3.1604602402107425 3.4947344177981265 8.533133013922958 -3.5052127076952018 0.4744862897820345 0.7824435133591622
P 0.9627687226676716 0.2517127853627118 1.1635896627989948 0.9754091764890426 -0.1817811072679708 1.4979848655791363
P 6.026179812913437 5.534031745016285 5.45245056085586 0.7265857829595939 1.5764883584026783 -0.0535175123021659
P 4.022411543872336 0.4480637908996361 4.788752145107981 -1.6741465697778006 -0.1840616757720314 1.3172676807993056
P 0.5309317884903759 6.298612617272136 6.551529525527041 -1.8954553028267487 -2.7199772334131995 0.07275116372079728
P 3.4300964319880363 5.678201304569996 13.237302958711728 0.21463157813908842 0.643722213395143 0.24339090965996793
P 2.1679229238194075 2.430126258237484 12.196302483231129 -1.0181938757547369 -1.670614388254826 1.0668358051321563
