# total energy = -340865.747637132 ev
CRYSTAL
PRIMVEC
9.39142949604903 0.00000000000000 0.00000000000000
0.00000000000000 9.39142949604903 0.00000000000000
0.00000000000000 0.00000000000000 13.74530636771123
PRIMCOORD
 96 1
Ni 7.021201835183677 4.44517964553374 5.326525872061566 -0.03207965414336411 -0.8332788508434746 0.5695530862808965
Ni 1.3300236552631792 6.4051991830627175 11.413456079052159 -0.1151802794192855 -0.6324906063453817 0.4363282906550744
Ni 4.2816748557205635 4.676866214441901 8.876856293549194 0.5407060801422172 -0.6594573647422127 0.49122211447947656
Ni 9.105901992446126 8.864983648214224 7.638225335705136 -0.05181929866413656 0.550480900140794 -0.2842917616393878
Ni 0.6283608343676664 7.677399806109944 9.610278112015713 -0.047571579131376135 1.3296567984922776 -0.6376472108456567
Ni 3.350740002474096 4.932989283240578 11.268168784430227 -1.565988487312619 -0.04938677796324398 0.9131601978511499
Ni 0.5886379044726178 8.238274766318018 12.790337333298329 -1.218890588980288 1.6000571468615539 0.535620952309826
Ni 6.564196086654738 4.580172054998106 10.353720585894676 0.2917348481809943 0.9448873537511018 -0.09447981364714052
Ni 3.7326894454207884 7.912251286802542 9.456042663244787 0.09595948351646055 -0.44442109496553783 0.30307109912942
Ni 4.911511083682695 0.15309720750008332 10.888413179444498 -0.8419347267462597 1.8034825718721779 0.10962566814964346
Ni 6.316572261668866 8.342857726648836 12.573312664324476 -0.30039175252504396 1.2944961914307447 0.6860713677853153
Ni 8.887081682127516 5.661792396616337 4.98404860783887 2.2140586932638127 -0.806368656716192 -2.015227315381775
Ni 3.643771389708487 0.5627663941350336 12.847806308617328 -0.8546984541698313 1.2777390265770638 -0.14311788636981804
Ni 0.7767923796288533 2.4265106299815984 4.98400728554851 -0.6673861326709861 1.0531035431477285 -0.33989006772998237
Ni 5.752701435409649 7.621614714123139 7.4413518572828155 -1.9821960959584182 -0.19949292272543706 0.46784718719896207
Ni 8.359489948518975 2.9638318846841325 9.476963011882802 -0.2601262201367778 -0.059574260019207084 -0.4414095618327236
Ni 8.226187996387543 1.188344547904099 5.855665313272702 -0.22386775202537576 -0.5600878271029387 -0.3172887853906987
Ni 3.0296000663648717 1.5013515059559874 4.449149402837246 -0.6346197368732425 -0.8454013451386215 -0.2769183519934521
Ni 5.040014015274522 0.5542737243229684 5.059014755696694 2.2031564445290126 0.6750590758352115 0.3877611803796483
Ni 6.138679801666499 4.013079968376688 3.1998657463668203 0.4536531550867671 -0.9866055594254944 -0.5197443902888855
Ni 8.35654103961597 2.0208196529368183 3.3531808350342596 0.044651320160787614 0.6974071045131086 0.1812702290698233
Ni 0.2685253907646322 6.439844166958226 0.7660523407069492 1.981420908355291 -0.19637288903921665 0.196389601209765
Ni 8.902032838094348 9.205939500837278 2.4140472637230648 -0.6447961631856122 -0.4728999191315211 0.4574568451035735
Ni 7.785955341173156 7.175287021080564 6.069226422999965 -0.9036512299194501 0.9745110901548054 2.1258194612097454
P 4.8815524231712635 6.01000782434138 10.465965074515534 0.16216564702988845 1.2322035040391102 0.060569019832308585
P 0.14460735511690626 4.868601641715067 2.6406934523501957 1.8064455111552438 0.7692650669956751 1.1855271830284937
P 6.598596893379935 2.344016312134445 4.7082627028292885 -0.7405628139649761 -0.38514842534714955 0.9787315559940563
P 4.629063837638393 6.780311665240657 2.797389455683502 0.4531888138558389 0.05106262300377012 0.27131746086690695
P 5.616985885863973 5.9747054403719515 6.092387566747079 -0.45193565817502807 -0.7013982279503727 -0.7758548043980509
P 0.9205131837889321 6.602024765193939 7.470876633745461 0.0935614155979292 0.3345128625784691 0.26050314386022233
P 4.105266241599327 3.671692109990772 2.4584583952881154 1.0208009743602808 0.6733793741399435 -1.2700092620329742
P 2.0527786879588885 2.786521693318665 13.075002835020623 -0.8856578786658232 0.7272043903801991 2.6429258996551517
Ni 7.953864711481588 6.849789461624222 2.2023832227805387 -0.3448137302838449 -0.13263189923682964 1.2568195028155775
Ni 6.700831996303901 6.433166860493139 4.1201281789847 -1.9229951601182298 0.5119367213190086 -0.819601096246066
Ni 0.3013672201716788 2.4390012313860514 11.210905481420069 0.47523628057418155 -0.3192052856871212 1.2509866981838842
Ni 8.18641529191547 3.26691210161985 7.083891506232552 -0.49636149258857093 -0.20696763383592742 0.22490004994463203
Ni 5.219446669735784 2.4421943174593705 10.227319456253463 2.5778309669280315 0.40299316683805436 0.9385004763881514
Ni 5.983392512777305 5.506110667682791 1.4558894734156298 -2.0735448201757447 1.0153903448676707 -0.5584451492931931
Ni 4.822593027970394 0.7344745977277517 8.462778769847137 -2.064369838544696 -2.2815174982374193 1.6587402625250596
Ni 3.952693075872453 7.669125956608198 12.05365762789406 -1.1484310495071448 -1.1620699804468182 -0.2420536789057831
Ni 8.20497275685923 7.8126176098853675 11.200803120569866 0.6293584884743032 -0.1464286959106059 -0.37522550980648284
Ni 5.307388016766835 5.817830999875725 12.669475268851361 0.9921079773009625 -0.4880275188015789 -0.04432479005930431
Ni 6.089017921796765 0.7256194187320686 0.689437057806553 0.5139115856571924 -0.43893667481219895 -0.02250743707389672
Ni 0.30136534188575326 4.620301633796021 12.850542032067791 1.3800447640265265 -0.7933606744922982 0.17415084441622267
Ni 1.807962900431611 8.636508948238635 1.5740026664106546 0.28157924780423116 0.042227541210643406 -0.0991939312933582
Ni 7.50388375231395 4.214310131003164 12.506744332839483 -1.312238088795198 0.1200250091060965 -0.3305086265150824
Ni 5.131495931275106 1.690729684392674 2.8238216343698426 0.9380875572204488 0.19997834700228784 0.27661393337915585
Ni 8.369604518227694 2.2810092107641626 13.508461452044761 -1.153218186483143 -0.3416541016089406 -0.9538214230159379
Ni 3.9795525646068404 5.054401685463712 4.210118735960452 -0.038363173159230705 0.5045774527404601 0.5879117912937424
Ni 4.7702451992272215 7.457433741376789 0.5608974996391793 0.041703550386373335 -0.5868702374031054 0.860702494272066
Ni 2.3052297077732486 0.43149299080312153 8.744929246715213 -0.3422822221112428 0.3530705709759984 -0.334186846697618
Ni 5.037440763556612 3.8390286030919314 6.659642125101051 0.7888964680733574 1.13928769244498 -0.7818192495116019
Ni 8.002897365566286 4.672386502509627 1.3175950372942673 0.4358590643281397 -2.491332885934787 -1.5616564355961686
Ni 2.188137363178723 6.041262502141394 9.257243941748847 0.7430454711775138 -0.945941506047229 -0.6343271453334881
Ni 0.6886941957230249 2.717025114075844 1.1087690863851436 0.8976006528499961 0.6133091483209244 1.1077572259368664
Ni 3.818376849341261 9.054202172347244 3.2261748973250413 -0.5755373288887894 -1.2256312501382312 -1.0561076200813746
P 3.500026167831377 2.3418281090312583 9.254934589203467 -2.6998884330831245 -0.05684246291034081 -2.5154112670402293
P 7.438791753566384 8.687786154004286 4.502742535149014 -0.5346670730369889 0.3084182223739463 -0.5214132933508762
P 6.722375935869175 9.229568337779838 8.184051469078252 3.3044573733175735 1.1462597528874388 1.1662655065854044
P 1.9235807905746336 7.776385474382828 3.6017372289821337 -0.27037617999956015 1.4577756403501023 -1.1051966642985416
P 0.26902783224969856 0.2597481606348565 11.031543262681014 -0.9673189432817404 -0.22223895817270115 -0.10287883634411314
P 2.120274892691071 6.98952454305043 13.411227285397391 1.909952468001659 -1.2288453862001545 0.788657612589674
P 3.798711195701468 9.179812543613828 6.682239783070521 -1.172604818539871 0.10197020848691471 0.5108555724396879
P 5.6684884859406806 1.3704068026610345 12.489150428575496 0.4810600863448102 1.1246329186462825 -1.5133778030954388
Ni 2.8444292484012643 4.6272888574388125 7.0754514284264 0.10107006527014852 0.3343753085593403 -0.08530766022956922
Ni 2.1370573774352497 6.010214435793182 2.4532076469834316 0.2240724118370141 -0.7675501411870975 -0.10938861243817291
Ni 6.150390914411878 1.7351887122488248 7.13408869759105 1.7132785027822557 1.1302926880352213 -2.04459856945504
Ni 1.8656732354920345 7.154813704492814 5.508101650763802 -0.03513155359581046 -1.187307157747052 1.3384880236306624
Ni 6.240689510279408 8.710654285147024 2.6499299233887514 0.237762507729597 -1.0144745179216206 0.5052063445737106
Ni 1.5604987297494044 0.830153543628824 6.329521164839137 0.09432400479556659 -1.5834051401271698 0.8190922749304476
Ni 6.948183469830579 5.455951042042804 7.774304333577393 -0.6780117307056323 -1.3807091370834028 -0.4033726616646602
Ni 2.7595495074287486 2.617983097225197 11.2072221627202 0.44341425096757825 -0.8736035186044502 -1.0903719405808834
Ni 5.03382506315006 3.515831943894305 12.285239012790395 0.28215466069172696 -0.7219719383366663 0.5723818139789433
Ni 7.694041419409712 6.607734754407403 13.21689606697521 0.029718353000039142 -1.5814909538235924 -0.05246156023382578
Ni 2.873599028823994 4.673494691205661 0.40599056364989455 0.19620679577499758 -0.1357123379343663 -0.5183490526032557
Ni 2.3116064884902587 9.12614052329319 11.055831377983417 -0.23645150222765732 0.01674379511724213 -0.3035511240896321
Ni 7.741364833302221 7.28216149024047 8.843826635549597 0.6350748221327902 0.569160221717852 -0.08395011776041027
Ni 2.1650532291545534 3.355632937309976 3.2171027763049653 -1.1097050936918567 1.2131709128876913 -0.881482921352527
Ni 9.220561956767153 5.129504948194095 8.718785384918434 -0.689401974820445 1.2150385622240494 1.0950809160207784
Ni 0.6928151550435317 4.409219861490394 6.570476135646587 -0.2553401116020441 0.5875850040819428 -0.6170989543806599
Ni 4.443639451074845 7.656541440907471 5.214172442857031 -0.20048922520043536 -1.2863478512919977 -0.9734109151120913
Ni 3.333506729107802 2.0350664516815966 1.2761638063499932 -1.374397593043078 0.13966258083136593 -0.9822030594824245
Ni 0.0355625265701067 8.56178134269335 5.1657333271247845 1.0479227702777372 0.35170068721166525 -1.1648102621961167
Ni 1.5387293958730721 3.5643386779198685 8.901034529124955 0.7448706973117107 -1.4436605411049588 0.0721145585780629
Ni 7.553479892176293 0.7686208967100453 10.380827069228264 -0.3087853759053779 -0.645947760291552 -0.11032397976824872
Ni 5.992633679530674 7.79858681402202 10.283193766821729 0.8561434141464739 -1.2608646194192283 -0.8620546374245862
Ni 3.337488695269823 6.969239055055228 7.314179691269192 0.2716758726475902 0.11614238622223867 0.17368367497181703
Ni 3.4958657645064353 2.115372566425564 6.99725462877675 -0.28809545165619416 -0.23426992119530624 0.024687218334034904
P 7.770271653695384 8.321295004224305 0.7297497694822027 -0.3890508457253493 1.1133426904444441 -0.908827631914067
P 7.240613805568816 2.3194858979476543 1.584861037345864 -0.2882615449204132 1.3113094063333417 0.21455187394108854
P 0.21128180975669092 1.7267458170137846 7.837216581508438 0.1361810500406687 0.03320322622484605 0.3070249415708454
P 1.0469190091449585 1.3188478540065636 2.911558248235015 1.0066923028730403 0.2844830517145875 -0.012568323583313838
P 2.8327463099447683 3.411906383637406 5.318072646253936 -0.3849136836285242 1.058485633395248 0.6704084644370776
P 8.627023604314955 5.526198935655818 10.9844518171003 0.15776031887334122 -0.004930090311765703 0.12027312056116062
P 6.320413356386476 3.45722003158965 8.516495869029987 0.531248277163427 -0.42575282913207324 -0.5311328346314853
P 4.00680649338558 -0.06810946508685262 1.0117715837643833 -0.6834035911451649 0.9438288305796003 2.446573579441225
