# total energy = -340886.9290017347 ev
CRYSTAL
PRIMVEC
9.16699009675297 0.00000000000000 0.00000000000000

0.00000000000000 9.16699009675297 0.00000000000000

0.00000000000000 0.00000000000000 13.41681662016165

PRIMCOORD
 96 1
Ni 6.510368958391332 2.466644563346482 11.668980871470986 0.5913676110528266 -0.5922497565474638 0.4123548105586125
Ni 4.937835953845657 0.40892018335620217 6.253914156494028 0.5318884818505872 0.29757716589438427 -0.7835781411842376
Ni 2.9471965250370977 1.667365518446125 4.815617973340451 0.6059498797423758 0.6195183624554298 -1.0794853755753668
Ni 3.9485252015353116 4.954593211980992 4.8684794224856365 -0.9249541051622845 -0.19917899102944406 -0.16792466100085274
Ni 3.5856682273717992 3.0405256525402864 2.7002148908405883 0.032698775784601744 -0.45838321357258477 0.27506175840068753
Ni 5.1126687914589395 4.797489333467127 2.339664331418241 -0.013397761463144668 0.3801771973848033 0.18586993262536375
Ni 5.700722047544005 2.7363374158308953 0.6857577880237002 -1.0306387863863087 1.5477102578287216 -0.35752577853387457
Ni 5.724950402714512 8.286986666365303 12.149759257820213 1.1130315869619283 0.5699896595976829 1.5820162301994432
Ni 2.20501866226201 6.889460672247227 0.06465478207248702 -0.5701187289763794 -1.0971329134538006 -0.045513668161082904
Ni 0.6401391778570302 0.2884136799264145 13.226968612623152 0.5301193057653064 -0.021868775048633302 1.252260165579669
Ni 8.197067659226636 9.200724751242559 6.860917414776774 -0.04390929978844051 -0.059261613874794714 -0.7390538335196175
Ni 8.567249058581686 2.612033028349976 1.157250013272768 1.5799688607521112 -0.41045682220495117 0.5972757490071455
Ni 6.937899048607787 0.9671083019800523 4.574221786289378 0.3592826133239812 -0.5249115363121218 0.8979523797624599
Ni 0.9470050924117885 7.457511555656529 2.149414449640844 0.4266146629117362 0.24236555371924712 0.9214026403656003
Ni 7.845449415081678 4.076065536566435 3.978743268120275 1.6326911308464915 0.4533567068922708 -1.92615376035187
Ni 7.8661759799853925 4.155845852513813 12.970237884320007 -0.8208118287247155 0.17883847969987912 -1.1800630745901288
Ni 8.672706114155469 7.895565350653816 8.968403884516421 -0.8643799431236533 -1.09535113896303 0.5379989656236992
Ni 7.095992962066189 0.9435033021449957 0.21944582895202683 -0.10645961171683602 -1.6560074369749287 -0.39235085663285973
Ni 1.8602848277776847 6.916338287593397 9.05702209574185 1.4302512096775883 0.34469340265589665 0.17138613718689194
Ni 0.23991021793524248 5.096846566326781 1.0173699926968025 0.8511115081495213 0.3227109848475346 0.45486491600668116
Ni 6.833688703704904 2.194669130295494 6.782549732023409 -2.5123701662210602 -0.40684133693955093 1.8125616513553107
Ni 3.8419314391733552 4.352156948229439 0.23990746783817432 -0.0700659035791503 1.139124427394238 -0.28292033521315796
Ni 6.594980278188448 6.048370984920583 4.58013907848104 -1.3924490512281504 -0.683919611549635 0.6073752993349928
Ni 5.81883871662156 3.079347856152506 9.485421216631844 -0.5531936710862666 0.4552472390467644 -0.8638760069040412
P 0.5520838198315533 5.79206193816789 12.061275801351126 0.2845445010801422 -0.3036506257819738 2.0223978649882843
P 4.205650110418225 6.5377690921804525 12.770649589598156 0.6965175028193037 -0.611728691207682 -1.3439439045389112
P 2.4168861403932054 8.719081917714906 1.1993870005511453 0.31717848506507956 0.9622484707373686 -1.0257416061950078
P 6.653823188456886 7.89161437786589 5.842312628496368 -0.4754267993184328 1.0671265968996977 0.14514597254344033
P 4.867589307734575 1.2452622864441771 12.718618669767555 -0.0783980775939295 -0.06397316041785112 -0.5090923098916781
P 3.974641956692623 6.3422371906341395 8.196347133794777 1.2506856220036977 1.3765295517844163 1.4592463113583578
P 4.921986227742818 1.439162463730048 3.439226475191199 0.13587508876447568 -0.47656785490141146 1.0318536326300165
P 0.5197875965620823 5.772747089759166 3.7905596259400904 -2.1447584642060935 0.40525265229619234 -1.4224437978180275
Ni 0.8600433563204174 0.21300876841448246 4.64168166737139 -0.14172460556671723 0.35490736707442105 -0.21123437953208135
Ni 1.9405326602266497 7.0232528946133055 4.507956364033971 1.7854038599935962 0.6719994630732813 0.9424432630859835
Ni 6.215072702202332 5.606971238490365 9.385988707035379 -0.11905724587618853 0.4118189926598005 -0.3745490525647485
Ni 9.032904661153092 2.394014499776325 10.022818601420388 -0.10565768464083093 1.4948625179000707 0.39351093837923196
Ni 2.5480657705445293 5.419258779607858 6.931959755639579 -0.6423433307697454 0.6249765573565237 -0.11011366352965553
Ni 1.0600432489034712 0.3822992437363947 8.695156989920921 -0.354059417251829 -0.5199022560229885 1.4009308634469162
Ni 1.522297898100583 1.3651298506551286 11.32929438180576 0.9682784789815323 -0.7682124573614447 -0.6588351577771814
Ni 4.548440542974383 7.23131607180021 1.4053976886261783 -0.7896904247295626 -0.1733355476037789 0.544608757630733
Ni 5.839180267935731 7.889056787592499 8.038431059946783 -0.5295233240525203 0.8924571609758437 0.8262417414910351
Ni 5.076184170354657 2.962817076384258 5.053041186827052 0.7580761402583912 -0.6959639443086788 -0.5669740126998106
Ni 0.8688134158707858 7.689271402580762 6.744982489373295 0.41182773441054876 -0.4695454008369913 0.08664514809407013
Ni 5.228090365409695 4.809828102312947 7.049544739283957 0.3764719806190742 -0.2761243953372471 0.4422528836696255
Ni 0.8887470361198462 7.721080858669168 11.27941037108637 0.48217543089617604 0.878545693101074 -0.2707587601499595
Ni 5.081079343135986 0.8107478663736147 10.386360349753874 -0.020645958385125732 -1.1596366884149771 0.340735189339097
Ni 8.44835319533482 7.616522168137652 4.598600480099611 0.4289970471009838 0.10933667615431492 0.3800429857997842
Ni 7.4901552078556115 6.394910716479668 7.322589960094459 0.6580054627870345 -0.4207522905936883 -1.3153876901677735
Ni 2.630467845696888 5.565334768878394 2.6223440589575375 0.26490461536202764 0.6140167159109103 -1.1006231859952464
Ni 2.844801244199202 5.509324458590162 11.19395843828542 -1.066421343302557 -0.36959916475864085 0.9135461204356589
Ni 1.508437408877047 3.916229894964863 3.789928937012459 -0.4647286961746383 -2.127690710090529 0.7010285033157797
Ni 1.4734745081504816 1.2774934240830351 2.210944204744876 -0.4700747909779001 0.6600330347400246 0.6573547165769131
Ni 1.534544997044131 3.6071281514936895 8.411458809767382 -0.8624868398659986 -0.8718371707326469 -0.9560037753792375
Ni 3.981709706157799 2.7456694118821914 7.220488022943834 -0.4636457475231047 0.08470036566287348 -0.20955159251301975
Ni 4.505016510268106 6.980773061900431 6.163578051300022 0.044472885601394375 0.7334881665063819 -1.4415355243421561
Ni 8.809422606404027 7.3822964008423 0.1666512988354995 -1.0189227835009613 -0.23599975940221937 -0.41161844661322017
P 0.3883127893254421 5.7658443461180795 8.00648501570399 -0.6057575612259116 0.8758347219278142 -1.8066946510515722
P 8.855175054628013 1.911986652659129 7.856418635587553 0.9093372245606339 0.9678362492377911 -0.8023009144047214
P 2.1240466375850953 3.371921516244027 10.60493348123627 -0.7461878734612375 0.2549511036937416 -1.0078043049902965
P 4.452654662090303 6.511881511778822 3.545367388235931 -0.09088078344197252 0.716478776432579 0.11781925970402934
P 7.339807401139199 4.222902386025828 10.680201804593816 0.3929748633701039 0.6231464461263204 -0.8894088610678231
P 6.739021195628543 7.998538151876026 10.06803294731804 -0.19206166325837246 -0.4751349791096269 0.5835404016989241
P 2.836459283092444 8.699785403286638 5.499311355164985 -0.11173114452842049 1.0992995820878164 0.7947884080777603
P 7.04738957988154 4.328331940628929 1.7663240946478413 1.6584888086358858 0.7951527333957145 -1.2810305528441421
Ni 2.933391037754925 2.0613535914212306 0.2783868260158961 0.9402100028800904 -1.6856658832713098 0.2651763809661756
Ni 1.8879049693322576 1.3385547459864573 6.858381825279929 -0.5933589304512425 0.9945842067555969 -0.5647181267860985
Ni 7.4140416879991164 0.9803637698485927 9.070036471767414 -2.1044281400181624 -0.9450426483820433 0.08820195105822874
Ni 3.0610413766687747 1.6747449455790262 9.264298745167261 0.39865365892243604 0.3451526016805023 -0.012992555604926011
Ni 6.812558791231193 2.342450179748289 2.6668607968988978 -0.3783949086733999 -0.7019024212803009 0.6160422309813713
Ni 4.658875274241539 7.049507154624025 10.542478776818312 -0.8574490203317748 0.36063912735187564 -1.528876155841354
Ni 7.589516214928302 6.307970981164842 11.64799763084091 0.4671496469113052 0.41686066884876594 -1.9460502421654808
Ni 7.9000755098456015 4.174234834909589 8.120743298594915 0.445808976452 -1.0521792315612462 0.09758159250091582
Ni 3.255445738417142 8.793939559910275 12.328807077539963 -0.08511071372741472 0.3177870651833559 -0.07150186469472848
Ni 0.4190322902758336 5.07509329851762 9.96022914224609 -0.6756702270566493 -0.5444359794982946 2.1905392699856336
Ni 8.678242976252701 2.6526794630174093 5.712706053868032 2.3899262632608256 -0.2729413696235751 -0.5041889590527897
Ni 3.98971248862615 2.9807568762589005 11.48302389121699 0.32538956012096215 -0.48358722364203816 0.18602934102136348
Ni 1.1866027159802832 3.244637856939265 12.787594771033145 -0.8913906673845422 1.2260495686225723 -0.6653349065689123
Ni 3.2654194237843424 8.586362233205412 7.633699274425391 -0.2913589528988143 -0.3947790064583782 1.441255274097576
Ni 6.063102338215703 8.104050209391172 3.5497547097586724 -0.9332119742957026 0.5856440783054881 -0.66791783680474
Ni 3.3636895590199956 8.894217266005686 3.1184973213158362 -0.10271222885926183 -0.5618495469890517 1.5632222374213915
Ni 3.628230562996719 4.437703301029729 9.104195427451055 0.877309763811444 -0.25831667773186484 0.5991318283792778
Ni 5.404169913693877 4.939504346067009 11.724634585839379 0.08773092495908116 -0.38752798132291966 -0.27264980652508525
Ni 8.284548246964867 -0.045394018906103575 2.30712884970384 0.20479145212021502 0.5795647048806277 0.41577103532901294
Ni 4.92670722770983 0.4626763307475635 1.4972096792467646 0.2521871677953592 0.4648531375676446 -0.9729185488567051
Ni 6.391418093203101 6.185243316003002 0.19165793147629592 -0.06225360662358311 -0.20084558009858958 1.4323428020992943
Ni 8.127728545148047 0.15024605312489084 11.222966462160393 -0.042101814266056525 -1.111639334600092 -0.10783900856286589
Ni 0.32712679635493 5.016149551356683 5.880523393860432 -0.47466806677553736 0.18290750756293014 0.10314803084509978
Ni 7.9716972044907655 6.579460563733787 2.500962107961052 -1.0337109975537295 -1.514559996328998 -0.431954844177727
P 8.925953386172274 1.899427876047856 3.6090293852668123 -0.5240844124251361 -0.21839104518152064 -0.6221267466125543
P 2.0312216945444033 3.8046951248704426 1.3631616978533476 -0.40309755362640254 -0.4961671171895777 0.1722816524179678
P 5.270487695210525 1.3187907150566 8.282858770665992 -0.20821770419294466 -0.3931424992962197 -0.7669086509483566
P 8.606822955392536 1.8765104004798399 12.295908583012565 0.4727091432769537 1.3391721941818806 0.9002743430274173
P 6.621628718778937 8.12840690242486 1.2627804047683686 0.8879672435252901 -0.2175029861496125 -0.21228827471789247
P 2.0263540227337566 3.552437887798176 6.084405506804708 0.7071158471604403 -2.0283471405931843 -1.0801705745678494
P 6.809854529114167 4.1582109359924315 5.7691774637646915 0.48597706403045343 0.2039231905826488 1.3816529890539109
P 2.7667168214438576 8.765549391176616 10.021328965508467 -0.39396422386656665 0.4505950849867337 1.017362638102693
