# total energy = -340858.50983080023 ev
CRYSTAL
PRIMVEC
9.32890258344173 0.00000000000000 0.00000000000000
0.00000000000000 9.32890258344173 0.00000000000000
0.00000000000000 0.00000000000000 13.65379191079169
PRIMCOORD
 96 1
Ni 6.455059507381786 1.8611067353378739 10.581961704766092 -0.7974106761919558 0.6852383303610585 0.1449395129595891
Ni 4.067448168366707 2.0405015319060134 1.4241316096983399 1.0976893001779031 0.5668763107796817 -0.7417696897888838
Ni 1.79952664942283 0.30477711299222254 11.337986231451389 -0.3409856147870063 0.09456466005146294 -0.2313884858824531
Ni 3.586477938170993 4.730929048591494 1.8392752375256656 1.963754344313463 -1.3097076090638606 0.9009909094784676
Ni 3.309055033316945 1.5707912871215186 12.670595709521471 -0.11915674756853029 -1.163554021191512 1.6611861529623908
Ni 4.3803862053338545 6.539626009248151 12.47444527103362 2.754137681344992 -1.2223973165819657 1.1637771929459118
Ni 6.743369241543948 5.207934495191709 8.576766337555439 -0.26155961014919465 -0.3321222508591054 -0.12883772230172005
Ni 1.2137461987672589 5.3925161615930195 5.655359857498722 0.0844867069901706 3.3366339580501183 0.7967455318041311
Ni 2.249580896476224 7.7606300942208195 5.266663668479024 0.02218836317158114 -1.1054175220600961 -1.164139718491653
Ni 5.695183076822179 5.188605009050825 3.7486898290813655 0.6855661460141225 -0.5746096748681975 -0.02242953264810976
Ni 2.5999278327797337 9.355023504863782 0.9075445623514298 0.24600263625120214 0.1647526910307743 -0.24789419684696018
Ni 8.532652755936521 0.5947427273619159 5.071427462443783 -0.15579831005096395 -0.42515813297086774 -1.8125675648925816
Ni 2.053599311125029 1.6642389042418022 2.684690241600228 0.8739202785139207 0.3542059701320222 0.37586442894206235
Ni 7.085077614060557 1.152987056279048 6.768744789445404 -0.4357701041587592 1.2049379834549376 -1.3317699881805387
Ni 2.563796993096509 7.615201831937889 12.321850545790545 -2.6290882224411107 1.6099826335053822 0.8482771240245197
Ni 0.16877197520297382 2.078768690279519 6.4052804832274655 0.5446630079074362 1.7365104767270028 1.2264144081611588
Ni 6.415775498627317 7.588427881540045 12.589683338794773 1.1441653322522551 0.029707811477077864 -0.0005815835350828694
Ni 5.927146239415356 0.2888452131701181 0.3375122321371837 0.6587225434587172 1.2054385772404401 -0.5217601351673337
Ni 9.09220033254375 0.19375291052539526 7.729957595435775 -0.2994574136362327 -0.48187049806124754 -0.08081671433775114
Ni 7.810810261185978 7.4197333362284645 7.976231294583061 4.305165433582721 -2.032321294749584 3.011303533301865
Ni 8.112059183223336 6.122624064027358 10.32385056113803 0.7245700380811457 0.43454960148809674 0.3438009727486144
Ni 5.574084592461752 6.289023699304836 1.6660627046957321 -0.42890371605622907 0.3984685394948234 -1.1962885353100559
Ni 5.987168398599932 7.449753744723331 4.36899468239629 -0.04407410750107894 0.6004636598168239 1.093612559005368
Ni 0.1563524072013532 7.48221832569354 4.845962813386194 -2.4202909915956123 0.17615347666854825 -0.8907008404063692
P 1.1264836440559547 1.93401210898218 13.241556265542192 1.5750495690736228 -1.396379239520492 -1.8933135738933973
P 5.798911144583029 3.16341220627473 2.822799046920736 -0.5252432086199276 0.5535978485032208 -0.9113560547628757
P 2.2282643540863023 2.0625830443073023 7.078152769677169 0.654419288097673 0.06292363610741422 -0.07249122519119128
P 3.678582193320095 1.4410169233638799 10.414334385909394 0.21316116424114903 -0.18100874787832053 0.7153166378036778
P 5.6121931594914365 0.5284291562789745 4.60254282553741 0.8050843906871297 0.04201054010383087 0.44757378166190653
P 4.934821543328533 4.337659831528234 7.6685706178040896 0.5539804286536201 -0.9752772788968688 -1.0786507954892133
P 7.260834138623414 5.13852746001402 0.854411797720445 0.01731432290873147 1.511878849952409 1.2841960950563172
P 6.924359280452865 0.2944061719966531 8.709576326211842 0.5704768836467465 1.2907745196047835 1.7315891281659854
Ni 6.294079964501921 2.700428100248718 8.281393691251742 -2.3060769327443382 0.7661231789325837 -0.5899244508483968
Ni 3.0681547820543824 7.525980207685279 9.98953720969472 1.2296126033834822 0.40952016932329466 -0.4860752801712145
Ni 6.8418544660561595 3.1129055277193522 0.6701678375924446 -3.3877487744480623 -1.6731962900493895 3.156301924523848
Ni 8.045031018202945 3.5343387016645273 2.568059368684236 1.046658558853333 1.3287893082856599 0.7196720865588961
Ni 4.586172467294156 9.014434600656491 11.42602588374741 -0.5029376031441919 0.9132450442554725 1.0236379295884435
Ni 3.1031754823308675 3.33598757505861 11.346150886987346 0.2704949649656116 -0.9096529560288399 -0.6013319213543902
Ni 5.341197868513388 3.9945894392352885 10.854205202909029 0.22068292653949087 1.4558483414204024 -0.9713758869599337
Ni 2.748070805712758 4.873390719854732 7.210540159046807 -0.9424520048367317 -0.7337959275547878 0.9354033255200664
Ni 4.126154952287836 2.2782672719024863 3.8277037681335147 0.5800015353077302 0.1134455561163659 0.9636697765649275
Ni 7.363368106854326 6.018914654071664 6.182737646457196 -0.775723163916193 1.2649236199799505 -0.4592838710099832
Ni 8.31077413702978 2.5222833766259827 9.042920404677336 1.528744001138864 -1.3719455319581597 -0.14657473457016693
Ni 4.2929557303761525 0.19373425272024 8.707214248079183 0.45514670891315806 2.8299839390513455 -0.004159016473696063
Ni 6.913388491021553 3.2927387827086414 4.854332704778859 -1.3660430504307959 -1.1572442769234004 -0.1438233970772749
Ni 3.995550316200786 9.24892589584821 3.2804330273184683 -0.30869153063999094 0.17308537926618578 -0.5679487179082541
Ni 5.470496458239566 2.6368982736949462 12.763564753939521 -1.9640734182157784 -0.4045533122363227 -1.4786722812934534
Ni 4.4986673611158325 1.750671186623696 6.2917766584554995 -0.19123222537854162 -0.11266548341723176 0.060810446419153334
Ni 1.5944587129610075 5.6045621171829225 9.49757753226254 -0.2615794076435366 -1.4360593317189332 -0.1459872374978131
Ni 0.4138590379423838 4.184460593398125 8.030873475651111 -0.7255210891405053 0.31929990228345656 -1.7915989330607147
Ni 0.9288732323147028 7.829449408536116 1.4655295477769035 0.5102750173458697 -0.9169823998107175 0.6918766616131826
Ni 9.18193504643813 5.8763690226852265 0.3910647973841626 -0.7726244703862113 1.3506585975549255 -0.7536124480600829
Ni 0.9262611395929617 7.723015959027749 9.091172287479694 -0.8204665295701548 2.4672359928865832 -2.7787395390540723
Ni 8.665906800355621 8.888326495611867 2.9200957692445573 0.8422815685627171 -0.12887731729040386 -0.14888435653995005
Ni 5.688904725387423 8.009571859505312 9.745052794061825 0.9679375507023459 0.3685768941417136 -1.5791206538192029
Ni 2.154789917384759 3.660194926339554 4.595866129962587 0.13696060851917058 -1.8800677646270845 -1.0303621356861543
P 7.856419265888092 4.09458594596508 6.5672414266585 0.33001934558348966 -2.0846869528354937 3.3443030445596014
P 0.16902198979205477 2.138594942509965 3.5653330475884997 -1.0683005626031408 -0.16873224450381263 1.2975329213745395
P 0.5167316453368637 7.428735727215893 6.9616039911038605 0.187176053031297 -0.44313271517141745 -0.5060676641327413
P 8.089856395088537 8.855647349882371 0.7224591352109259 -1.7284225575125458 0.30440190212570156 1.7013580971955862
P 0.7981305284695043 0.6829736221607797 9.499270728080383 -0.46275074651266107 1.2725973344751242 0.3827593562896827
P 7.865832128588937 6.209830645323196 4.131022773652851 -1.3171892621528865 0.00532064088196503 -0.7788640235380199
P 7.479326365894471 1.6731759929111876 12.79870952862029 -0.8764523009071551 -0.6804329385526152 -1.0729486028981134
P 4.057438255900892 7.7357778977539695 7.799250818002017 -0.3827940661823601 -1.5588768159685025 0.18908586845950018
Ni 9.177960933940055 3.9031848517795096 4.97564668678883 -0.6205059231796798 -0.6647993457804164 -2.3470415480821574
Ni 4.189684778841607 4.199648046794533 5.5224668416093765 1.7695828338009394 -3.2744708542578116 0.5714526172964546
Ni 0.054649644190110216 1.4951152294116512 1.306079012029514 -1.1324588424486044 -1.6141539912742524 1.2089327064366275
Ni 1.868252674712351 3.2550313584897945 0.9652205025377286 0.6855437774166193 1.4403129647889645 -0.028021939134222712
Ni 2.7693127168820584 5.413907335203563 11.485692611743778 0.17642961314807035 1.7105487625559184 -0.9301330782600626
Ni 3.282150478283013 7.159830110415236 2.4254325758453734 -0.11645786058012846 -0.1527114435955241 0.02560844459672364
Ni 3.909957635050881 5.309544902067434 9.18879738717425 0.6314374824905189 0.9958185933833301 1.538975706169201
Ni 9.228644861644408 2.152522994058391 11.4911677446666 -0.793758167041033 -1.4661517802289397 0.6218974042105677
Ni 6.295348695252481 8.367008761767833 7.143158428618726 -5.103943422435849 0.6449576284641408 -2.881265362934141
Ni 6.528347366031777 8.320914654131682 2.3522893151853372 -0.9599393629882177 0.5294045390864689 -1.1908136282384136
Ni 9.257424526096447 5.852953477215334 2.592500160547411 0.5320638310861868 -0.2520799527935336 1.2767591791622979
Ni 7.0569416438863755 1.3864708299923816 2.772266247438141 -0.5323145136444123 -0.6894965914167803 0.6877114744918994
Ni 7.155883984624893 4.767936805117018 12.443820349651723 -0.1139788029120166 0.46766798130862036 -1.7791061999103426
Ni 0.9739747447165918 4.743569711584205 12.568233393097989 -0.5838301650252009 -1.6735351614460465 -1.9513739683712397
Ni 2.334231358465787 5.866583003881276 0.32445083563822097 0.16522937355687672 0.8029434330847268 0.15225687255660877
Ni 2.0292975199102603 1.050844901956398 5.0403519550673845 0.34824923832795507 -0.1288922296887393 0.6306008455218366
Ni 7.511333830638375 -0.047433738046300744 10.920780916154403 1.153682013493439 -1.132271923248779 0.41268956819021185
Ni 0.1501561501092805 8.31914216264193 13.037159077175703 0.9756837703066681 -0.7494158934802319 -2.700015702689608
Ni 4.740118017630476 6.1951376237634035 6.477686760583868 0.6507014729264535 1.1127446518491286 -0.04100163922334229
Ni 2.2876148322852883 9.0012435324117 7.265278427811405 -0.6355391633637184 0.8507515537069413 0.5505703745308066
Ni 3.7038075458900512 2.7945194116468595 8.636610314700782 -0.6760008709231906 -0.37014449573914965 0.08634355769325129
Ni 1.1928961015062194 3.098268479575025 9.91983444830532 1.3154882203013796 0.07822555657180723 -0.6646751614977262
Ni 8.80793001319771 3.395263422036975 0.07441479008136957 2.7263330004278985 0.6591064091606971 -1.240090877206987
Ni 4.177547876588089 8.481026609071826 5.698409944223787 2.358091378138416 1.4504361692658956 0.5791687549937896
P 0.7319624882667741 7.069451702242999 10.938148534083208 0.5185071754476747 -0.5631052737730238 4.206989659141232
P 5.943509134536548 6.2561113310109 10.621830635712179 -0.20205117037091655 -2.9227832796722697 2.0686874920834435
P 1.5203032663712965 9.021748460277367 3.318076082109529 0.6498550657657582 -1.9005000643395076 0.14030098574631322
P 3.652526568420729 5.700034106162555 4.316673532289561 1.4761749687928962 2.919045152786076 0.8778134429207398
P 4.41944632042646 8.186130669689847 0.6844354611946969 -0.025537996370104406 -1.285079268992219 -0.14901265458769822
P 3.9247812612467605 4.18618644037499 13.36565585786185 -0.5766493310060455 -0.0062590935358343815 -0.3616338871649772
P 2.0173098800979843 5.338399197740093 3.13829693475519 -3.3449831013457616 -0.33472934946464933 -1.3632734581054586
P 8.468908364623465 3.9684218675049903 10.57628226887682 0.1032048522249642 0.9766160523129505 0.14081212105477686
