# total energy = -340897.8022885435 ev
CRYSTAL
PRIMVEC
9.02826448159137 0.00000000000000 0.00000000000000

0.00000000000000 9.02826448159137 0.00000000000000

0.00000000000000 0.00000000000000 13.21377765977392

PRIMCOORD
 96 1
Ni 6.272648445791292 2.1207031722642613 11.267572688597507 1.1829848762226145 -0.9054600009934148 1.3666860833314334
Ni 4.677832641048066 0.2889793923642215 6.108954277192103 -1.330120625502574 -0.577173836050948 -0.9865268836687591
Ni 2.558592047601267 1.5340646142326766 4.71549494842417 0.5723149652967497 -0.7586662084339062 0.3517737065414458
Ni 3.3208122898428654 4.332727237976913 4.987910184267407 0.20840462339277013 0.16403072526308524 -0.7925271228474092
Ni 4.97327356217561 4.524261865214441 2.5823950664422637 -0.8084630773513753 0.8961145552227727 0.9626847869438389
Ni 7.165363220302098 6.0924533185212555 2.6534186160794153 0.13835517487385204 -0.15388849462276077 -0.5367062149542047
Ni 5.124316424003743 4.560934674822682 11.548088083175484 0.02200581484712984 0.17258041460530923 -0.5989338534358588
Ni 5.542388259190554 7.8184588318852 12.160996181856282 1.3775762478813758 0.3602130955580506 1.434669650460258
Ni 2.0423378380940167 6.6340588941978655 0.47739565711068893 0.06667744672289162 -0.49076908610245806 -1.3692268474754163
Ni 2.950942357782199 1.6278411955721155 0.32954518954092 -0.6417486346085399 -0.2997548902719934 0.4232472891014001
Ni 0.5268136674387613 8.92698523635056 4.461671617264895 0.9159539585462032 0.31740422792264045 0.6645419783539717
Ni 8.489981130915476 2.389754476827333 1.4396407063425454 0.5170388184322644 0.3115547111203989 0.20801098749877725
Ni 6.662895170389083 0.7336159924430288 4.917864395654522 0.9952529506878472 0.10027508017267893 -0.9687559328385832
Ni 0.7939022273418547 7.38237560940926 2.299368911560975 -0.49039910435754897 -0.054427682821261106 1.163789020020454
Ni 7.623565690326091 3.8903061739586327 3.8228776791678625 0.7302100099757424 -0.272977107957517 -0.5040038396251771
Ni 7.652275570817032 4.008522266772594 12.790262592631903 -0.2116634966497 -1.0426003296235593 -0.2293272324780502
Ni 7.983360079422011 8.801853493078717 6.740651999545149 0.004429239415947211 0.20356015081627524 0.45326311873720004
Ni 6.8595488234877315 0.7340276812953517 0.4418902020771266 -0.5339921584571514 -0.6309181196519392 -0.6476796553809943
Ni 1.853773509812942 6.308662192105244 9.243169497546024 0.21623980316647276 0.6843021917000344 -0.06324039601688464
Ni 0.06108704194270846 4.971919322529811 1.4584574148077096 0.11459663900167362 -0.5605935630947636 0.17390376140242306
Ni 6.223218698719623 2.07272697574575 6.8735164511945035 0.7222730145168529 0.22647973572692606 0.5111779887761132
Ni 3.385319238304432 4.338929655554673 0.6171983298786888 0.843804947185779 0.04070776213200731 -1.2199018038536216
Ni 6.159045796037353 5.648461336513849 4.864044203651172 -1.527448165145576 0.31212086803651407 -0.9667463586077221
Ni 5.316555255857086 2.818064363736386 9.297702922429496 -0.5447337132443715 0.5899912995305904 -0.8463050878998134
P 0.3223920957318089 5.634720318241141 12.508346914260168 0.2330530180690696 -0.49861249340627684 -0.4506313375413078
P 3.991494960292746 6.259828310477726 12.587470622632061 -0.5104148853578436 -0.823710233318433 0.5599039932269066
P 2.4813462182048824 8.634975055659039 1.2700935139942129 0.17027593484184866 -0.17165044659187212 0.24188604297966732
P 6.2574448487011205 7.651029670342897 5.794254262648434 0.6567165687722819 0.5890235363006823 0.3352749375554742
P 4.8703964904164 0.9294507819691841 12.525009478862081 -0.1955035990603859 -0.0496837403783725 0.13812994623692343
P 3.9171201189454563 6.192125356452074 8.271771593961427 0.15535042388026796 -0.42697847400905825 -0.7336920549870719
P 4.690463182811218 1.1398183685476253 3.9405728411314063 -0.5534068155383373 -0.47733018698873275 -0.47946240284038716
P 0.34736698327963694 5.466957110919541 3.674738307140323 -0.6034715934052123 1.1532577814718268 -0.7561429277914203
Ni 1.4672915714304726 1.0558103691865508 2.477702410731253 -0.7449748269897428 1.0715090422381095 -0.2729231147911299
Ni 1.9224786011764858 6.533023588356944 4.786188966414178 0.020808194994602874 0.05437009011044829 0.062220439392802515
Ni 6.067354743752444 5.742219861324678 9.15007816146736 -0.4927349515795772 -0.6011159486888422 0.5882660893093675
Ni 8.561611379913947 2.2805395635257835 10.196081127139035 -0.10637425109188131 0.0931981187212395 0.15202521616177686
Ni 2.206444598371959 5.116218070921864 6.968047795429868 0.43117631414048974 0.0071882902183231035 0.8114147037805315
Ni 0.5961886560137607 8.836594254125618 9.070637561018351 -0.12126530927110084 0.34126997879664456 0.14650531478481219
Ni 1.400328935077857 1.1109008379776608 11.306341861177446 0.4162598020399735 0.20636008215891555 0.31895331757731515
Ni 4.1485055048267006 6.986016749876762 1.7457647726225842 0.13738484054078273 -0.28818569737715527 -0.06203943373024799
Ni 5.602290792856403 7.8288955054221585 7.940013576839271 -0.16999234216315887 0.36159017841123536 0.37673320470026084
Ni 5.335938939320625 3.0900679107272997 4.709337672167937 -0.3876488231715001 0.07761543379163408 0.3565467024500569
Ni 0.7962775636805863 7.299071814664001 7.045004720368482 -0.39788567040815986 -0.3476697116754012 -0.048470179686245556
Ni 5.034277544086709 4.451828100692796 7.190342621982078 -0.0023026799912476475 0.2124795647930921 -0.31273536169206134
Ni 8.328212691092613 6.796757245244177 9.476313589313948 0.0254480077594594 0.956401010817656 -0.6078571240674178
Ni 4.69049929586844 0.10183701571123568 10.209665053612829 -0.836388857227366 1.4541012768223087 -0.09790837971271525
Ni 8.113159435339707 7.21030592001402 4.567672468473749 -0.15758985473374795 -0.617409286532227 0.6716423368441787
Ni 7.2487211846331885 5.9840328924785755 6.971046984832098 0.3308531543386947 0.7989170855341531 0.6699464371989946
Ni 2.33870867044501 5.333745071094429 2.520396169804717 0.09553627993611288 -0.1975820788559694 1.3541640396050227
Ni 2.3700367475844972 5.178883253465143 11.505592945916737 0.4523616899688532 -0.1394329813190631 0.032379444771970044
Ni 1.1608451961147337 3.387567276116459 3.750876368506443 -0.6044036183011784 -0.3010725806421525 -0.28747915822843395
Ni 3.51612073156002 2.6896553605217095 2.722566995220351 0.07911001605928956 -0.2692320390927879 -0.10452279970543935
Ni 1.0408144221754014 3.2990180598098044 8.339532328878635 -0.17840370615530565 0.0489121523196706 -0.6833868789746165
Ni 3.568746484195776 2.558899008587648 6.791167846812749 0.4682228253708259 0.22413437542320108 0.4666742499367833
Ni 4.144921283897485 6.80150611226878 6.1186659811053445 -0.2963684902982638 -0.13205005859143065 -0.4586585787211585
Ni 0.949972026735194 7.429575375197514 11.388531568107426 -0.08964356860076175 -0.1685746358800258 0.049522789320476004
P 0.10263601710225718 5.362310499356487 8.077806557972904 1.053013040316451 0.37617630375552635 -0.07052073172838177
P 8.504173562403452 1.5443658638050553 8.05707405182215 -0.5192782492857444 0.09435614358508265 -0.0937035976027483
P 2.0060713003795154 3.119256289226424 10.391922236450203 -1.1434698488471273 1.0344134229373927 1.3061461169648474
P 4.07287573474097 6.136917520224995 3.956997962382089 -0.4741222215743964 0.2649856051116081 -1.0992756708284164
P 6.960439677099769 4.004197728170342 10.388288360067309 0.11490619982229243 0.6140732801804585 0.07164173270670242
P 6.39367232880421 7.744463177638734 10.110799239684477 0.7462878893742114 -0.2710989170981976 -0.2080035312996095
P 2.2311730143042516 8.474416403253091 5.816322049089947 0.763830269133349 0.007116556440123228 -0.28132162326747034
P 6.748952585747467 4.132209487755584 1.634874213465966 1.9759691412121003 -1.2226076328205588 -0.17352298102423663
Ni 5.399868078866651 2.8061380265890477 0.36987986315140214 -0.3165457365770871 0.5220568404721461 0.4098857801928296
Ni 1.3359483823165648 1.0914359001353742 6.983428346500425 0.10544736840223774 0.06029494023531552 -0.06458122631549523
Ni 6.689022967288701 0.8556934739003786 9.097183366555306 0.9833160900409451 -0.8897060805932677 -0.2565683275821904
Ni 2.7956110704090356 1.6923300875050715 9.076424678438066 0.28601054410270743 -1.4427295446502573 0.06715104392520048
Ni 6.289784091442804 2.101491025822524 2.709141063371898 0.4632269148181313 -0.09731805442688402 -0.6129615351735185
Ni 4.169667756358389 6.80977600237246 10.459273088167947 -0.5660239900817154 -0.6705570741997999 -0.9038751730047982
Ni 7.963254134814046 6.9856736758331595 0.37057774798220394 0.9373231682505986 0.9711424307928889 -0.0749330018634645
Ni 7.5012327089888995 3.8354684965680725 8.207592371494144 0.3277662878832549 -0.9364513071686066 0.08393134870733288
Ni 3.1548095940608043 8.426683969870822 12.220484318190517 -0.018742570714825785 0.2960337326666644 0.6595761497082642
Ni 0.2780362331997337 4.6703030686174225 10.364490758184894 -0.5897241619121328 -0.2877282981247626 0.18419871557052794
Ni 8.56366982417556 2.3421123260881185 5.6735860932491455 -0.023104447227947307 0.05573663144067175 1.0008525562628119
Ni 3.869369629034578 2.6254373165179135 11.513705744221506 -1.1365983185382749 -0.1975399127641243 -0.7344772698925286
Ni 1.020085527330369 3.4016694249613804 12.639995258707598 0.13858451727583876 -0.5583857568101674 -0.3936780600847155
Ni 3.053711090369745 8.294853254484428 7.926614729783735 -0.01712149017163503 0.3320500028602733 0.3233648163814496
Ni 5.694243664806166 7.988488133547437 3.5618795863651433 -0.6944634485037523 -0.44986720568177363 0.4796557497981158
Ni 3.034878131028831 8.45636890290674 3.531646637685892 0.5604236131758026 -0.5305939314088798 0.2020167175885553
Ni 3.5199035743039526 4.331941778982349 9.277604200432975 -0.17465812306994435 -0.08465305736470582 0.20296005533843114
Ni 7.28473493094714 5.95262356096034 11.48134573647192 -0.059862223573271096 0.654241367758912 -0.6433746002477371
Ni 0.43384331010178795 -0.04195073292113581 0.2607714833686555 0.6896048348598705 -0.31112790799562545 0.32908834912878804
Ni 4.721854457800844 0.4321821094696077 1.7235525339521864 -0.472403953331709 -0.10866253290542575 -0.23820473747333817
Ni 5.888053414648636 5.648244658170522 0.3571933461495556 -0.5397722554740382 0.6465532550860349 0.4511229324657457
Ni 8.028835446727946 -0.18312028490496227 11.246748094150838 -0.6494542307829138 -0.24017471671551538 -0.19206809101627567
Ni 0.07183248211890952 4.858388898890315 5.803795332366304 -0.08300318046610866 -0.38201013682848406 -0.22256548827418443
Ni 7.919611505162092 8.874124748842865 2.492871700417064 -0.055650499484768676 -0.16031908073945295 -0.0443355886925817
P 8.412130407810634 1.5598673936173033 3.6916121331269807 -0.3100470162266209 0.9537933979914798 -1.2392922925650915
P 1.7396381924649889 3.2594381490952475 1.517206136295338 -0.29054571296889964 -0.5532407222741181 0.2822256231389785
P 4.629197381235265 1.087300955083534 8.075731862835541 0.7433100376928101 -0.21944931124270592 0.8174341705017343
P 8.464864499618054 1.5841805093915509 12.452228126164682 0.19550771282544396 1.2149917681465139 -0.4219882198833184
P 6.273686696186405 7.726397620763773 1.400620548014919 -0.656714769000069 0.4189265502388591 0.1781648506716222
P 1.6852790130826105 3.1028519329836435 5.952872741055168 -0.5652927683426459 0.7834917521180184 0.4240255620283214
P 6.910540460284222 3.977446981033656 5.960061045095069 0.14176908565140744 -0.3211572672071695 0.5922937224115219
P 2.494536512354967 8.53716284017512 10.115251979639865 -0.6330305380092517 -0.13719766423064111 -0.05663034689953473
