# total energy = -340867.7181779305 ev
CRYSTAL
PRIMVEC
9.34185586222785 0.00000000000000 0.00000000000000
0.00000000000000 9.34185586222785 0.00000000000000
0.00000000000000 0.00000000000000 13.67275034363060
PRIMCOORD
 96 1
Ni 0.020519386214954662 4.23016979124496 5.164075113306884 -0.7099340333355257 -0.263477653107514 -0.5745788216302621
Ni 1.8635694416009312 9.078237949171342 11.276765234782712 -0.059478872091923374 0.08217040015216816 -0.11487611791530539
Ni 3.5587239072477526 7.209820084421966 10.320096612748113 1.3783812602811745 1.1129732229201672 -1.4588860998054618
Ni 5.424460659389029 7.1491727567153935 4.4534747091900595 0.71067425393566 0.29030942858837744 -0.2701612357752767
Ni 0.6556796340017697 5.383496621805339 9.438805556609815 0.3511409580534533 0.12318618044289752 0.8171827166125605
Ni 3.988337170736637 0.16814312795098907 4.791615323463843 0.8955957066048252 1.3439601024888275 0.47136574187518177
Ni 6.259968214548101 8.126564417420894 12.146447166746494 0.1383988836275939 0.30875246578491344 1.3677219807951153
Ni 2.9174241918440615 4.695749199476651 1.7924835242487456 1.0249160249699187 -0.6462724906208225 0.7362343617929514
Ni 6.746959156221484 8.944070216497007 5.121415528899604 0.43642933500931286 0.7457309884294769 1.0839495819943072
Ni 0.26207361942111246 3.963824141176864 2.5389884168602466 0.19672487306199668 -0.24929801917302227 1.8796404472816788
Ni 1.6014182847768665 6.660705801829188 11.32571282231373 -0.24369584249489648 -0.7221439451381563 -0.4325541683246228
Ni 0.3316984705297203 5.680857233054245 13.062616975615116 -0.9262496840452564 -0.037362756919174366 -0.46494158351639286
Ni 3.8946290154340146 1.3564841681504627 7.697389286967967 0.571881220193441 -0.44247656964465726 -0.27320105104286496
Ni 4.685744071939107 2.6719389057267935 2.876077138173499 -1.4940302518067623 -0.7273203471327732 -0.4975537131244592
Ni 9.153234367351928 8.88894392555485 7.771099331608011 -1.4759178584767678 -0.19714807664234435 0.4070269705877958
Ni 1.6015490707577495 0.6906209771658011 4.039586591531193 1.9829676840171206 0.14399463254781653 -0.018141189685401016
Ni 9.078658332681323 2.6458097351175387 9.457044595829517 0.07649931790931985 0.5081618276576088 0.15378565049630932
Ni 7.116990063562414 4.437063871145985 8.967259505093129 -0.28736063037269866 0.12919716252366784 0.24885321832611978
Ni 6.853643149198849 3.1008982393112636 6.617241883639478 1.6412711592060185 -0.6185950793102121 0.5077622782263449
Ni 1.6798898733066274 1.9627238988217501 1.799443206802873 0.2928275670245408 0.543029071848439 -0.36301482667290386
Ni 6.748061495203211 7.822019919079204 1.625703373055672 -0.15189460412118355 -2.71245598533549 -1.8522188607356167
Ni 5.471683740343546 5.3453444828106305 13.369925729081324 -1.7022528410957136 0.6453710618524756 1.5728052531241365
Ni 6.9477062950210104 5.444956690964541 6.284036571772871 -0.3940760668540826 1.123166618513401 -0.7968923417946405
Ni 0.09339800569081433 7.775721681846645 5.476374286129355 -0.28769898754872386 -1.2170594493088203 -0.30336034823506464
P 0.285846774003319 8.453576078907115 9.977498064897377 -0.7554111918317183 0.18577942979408651 -0.817296102261973
P 1.5780543034777081 9.31504465127145 6.1053474228348295 1.5579126522830202 -0.3361786803166662 0.9468048824887886
P 5.296449209671969 3.764898664253921 1.1476068122679062 -0.3237623089301844 -0.2528551403966613 -1.3085526695238108
P 7.3574400894156895 4.3052316024159865 3.7716145243722594 -0.2024095821515998 -1.270969054843082 1.2054002678033369
P 4.776313363700539 5.671403275007564 6.066790781484962 -0.515032843745829 0.21149611783390027 -0.44813196815822176
P 2.208115766381244 7.407362966689861 2.5184793066866473 -0.006834506423330165 -0.17995048181713524 -0.5755216451595057
P 4.086576126091275 8.565706373802678 8.583411058871915 0.24887892935773268 0.2894799907085466 -0.6032368516865869
P 1.2459606724486059 4.369400809750621 0.6097597419281938 0.7712283613696331 -1.5465751157830139 0.08341738518539181
Ni 3.8674628988334736 1.9540359729488121 0.3536966725142298 0.38461492144118276 0.7564206069328392 0.8429914501455482
Ni 0.5518981556144281 7.99284509382387 12.923620437689467 -1.1415885726640147 2.764189409154039 0.8180880020356491
Ni 1.6244553011238176 1.0837113213075484 8.373055821405382 -0.6982853933530039 -0.38135347708109163 -0.45777566189557295
Ni 4.707314416929013 3.657560741372141 7.127043768750001 -1.244881870837727 0.21158713488580977 0.9378934389317717
Ni 3.5729048443177733 2.380949440118042 11.79349877688003 -0.9622446140826266 -0.7045144049818511 -1.5305553433159897
Ni 7.550442829775791 0.48953192644482313 9.795827929780783 -0.16788789422564632 -2.2324837327382197 -0.9557062987434767
Ni 7.729572914306524 6.861200710522727 8.623335347907588 0.5545453000181547 0.019922192845223754 0.45711874503786437
Ni -0.016370668064232437 1.1012459846016391 11.376685724177275 -0.6016067722823317 -0.37030364702483326 -0.5745837067262685
Ni 3.656038018880433 0.7102099145453314 10.211151890672628 0.5078538094988867 -0.3198272355418363 -1.5121359602685378
Ni 0.543899658697859 9.218991690168712 2.227632771471289 -0.39310727518291005 -0.32425801761968026 -0.2823665195922169
Ni 6.360794863953066 0.11556249270816077 2.9313286099830727 -0.8256015368038749 2.4823155129275247 -0.08786487943378417
Ni 7.797058480442118 5.146419005887688 1.3146859028458546 0.3972529219201674 0.8865688205158666 0.20394504495951973
Ni 5.913039716544563 5.435091691263656 2.5720081402908765 -0.017680190888582456 -1.075051508173729 0.6563504436821148
Ni 2.7300639323734806 7.57408706674827 4.610369308599538 -1.2636085007129527 0.06871016088220425 0.3630233113133361
Ni 5.546801602649237 1.2011477902846461 11.63474514817086 -0.4395843356985268 -1.8667623057674303 0.39518729764039034
Ni 5.288489948549665 6.52577203698111 8.199247792111006 1.1028500184432362 0.46190253957975286 0.695032690743661
Ni 8.939427314175663 4.865145070287383 7.4080598691308515 -2.6289876923075046 -1.4601276855220469 0.11351677567393353
Ni 8.797860831725664 3.009759094347413 0.6475027076398531 0.908721445353506 -0.8623186897192503 -1.7025300060165003
Ni 1.4564046575450247 2.4656240208839644 5.73317536214973 0.4836651280678251 -0.46349945175322754 1.0728899817460362
Ni 2.2858400064488165 6.793976716348898 0.31788093164943826 0.1867893591158396 -0.5170689003392515 0.3581613552353444
Ni 1.7141184328748467 3.5841804642410375 7.819459316410632 -0.0510497674879637 -0.573529040209509 0.8396109637090895
Ni 6.8496074675030325 2.0393177743402626 4.380776387530703 0.49469361796784483 0.14565376541779432 0.7971787626868077
Ni 2.685531305882841 4.927062890379676 5.864817057021869 -0.846366537265368 -0.2456375396022995 0.1309722521462196
Ni 5.481315193649997 0.27102685399812704 0.3479486286544249 0.28006049716685966 -0.676863476033802 0.9752086304424623
P 2.176147935911144 2.5091197013833177 9.823132305846828 0.44900228657831703 0.609743285346537 1.2608715613977641
P 7.361158148015075 2.0862232321983494 11.103613003763906 0.11946939371294261 1.4220601892263638 0.21851034436820432
P 8.103163068698626 8.183222772710536 3.269304807595174 1.4444115603383705 -0.0898824240844452 0.7582005816513975
P 4.294040059194718 0.49455223973957235 2.7023784085917186 -0.6676869517408566 -0.13148827255068968 -1.4194240371550975
P 5.36313137621071 1.6346098983537998 5.973146150801626 -0.45400462488891485 -0.4453541483027685 0.4546990798527782
P 9.07165194084831 4.518338016408951 11.227953104160468 0.0681234351407988 0.4339474491277236 -0.608449763346094
P 3.6145228118058785 6.505425475098036 12.337360133969202 1.12655173293555 -0.6014805311171125 0.3746351845206516
P 4.90954691079714 4.578303388643776 9.15781654761072 1.5586086499087801 -1.8510883466755992 1.5861287097059198
Ni 6.000741058582347 5.882435797017956 11.244277997131393 -0.5656514372336452 -0.11025764530668752 -1.621319912895072
Ni 8.443290695696252 6.873522618293054 11.041183249975017 -0.4388993938163603 -0.2338711430949908 0.4013990828780571
Ni 8.108973702992138 0.5448058187082622 0.8200066138677102 -0.2937405657571135 -0.4342384980055812 -0.2796599192943312
Ni 8.393573339249182 6.058501752853718 3.9136742568073033 -0.1920801752011337 1.511211134461423 -0.37421378071251676
Ni 6.738271230348547 2.220484383430459 13.572160091320606 -1.134095092500447 1.1348617954631424 -1.1832098477492266
Ni 3.7655339104467807 8.766210624351993 12.510702938845865 0.6499923626745708 -0.30330224130361955 0.23681531332497927
Ni 1.9777082354886235 7.99665657098103 7.896368946654419 0.7010243895507217 -0.37885359347737335 -0.005685480420551499
Ni 2.9334267907906657 9.106702583724935 1.173026001838082 -0.15554325661736437 0.16620253610342345 0.26947912210658753
Ni 5.706098927364651 3.5346779704768467 11.413260023731187 0.08149291446916933 0.43911793758506956 -0.4348691896110446
Ni 5.868124073967052 2.2102083420753713 9.061260060481583 -0.08134559025802764 0.4483399704039698 0.4031728869490282
Ni 1.4391969592031413 5.639145847008367 3.7042765595579477 0.4838055103004313 0.6983267881139005 0.32729243357062987
Ni 3.306839449922998 4.816800966639585 10.651332661416854 -0.11588784700927139 -0.8161715017392266 -0.08943428080343307
Ni 1.1890127196298654 2.969477012235469 12.247284092192814 0.08784045395375195 0.8674470120847513 -0.044540248504220066
Ni 7.532515808539052 4.7551073510859485 12.760258471525326 0.626846520685727 -1.0138433120955248 -1.470913720393957
Ni 4.238399966184807 7.787286899299007 6.43987927822182 -0.14062365919305458 0.5119143527215054 0.9278077725609956
Ni 9.112485192451116 0.7969882812323139 5.4496575127917035 -3.071247517955666 1.4680734227316845 0.7376520680760844
Ni 3.871984357029712 5.638052849882416 3.9117872019402777 -0.6374178684436699 -0.6251840453816394 -1.0965942673415112
Ni 7.0432361122002165 2.8503403255068935 2.221972541055791 0.19270495326932616 -0.6061686806214013 -0.7061295719877709
Ni 6.288507583947912 0.184434390241114 7.550681047098114 -0.3169440004567703 -0.3466947493566416 -0.22698058662274456
Ni 0.09977569063001286 6.977618917220093 1.646718811812404 -0.09919855927904851 -0.6346909564308101 0.34843975707220637
Ni 4.373156235773116 6.759421191828472 1.6077100246429135 -0.8194596855721953 1.361722568678571 -0.0215674417581306
Ni 5.041248393546255 3.766682958707395 4.777874387800934 1.0236019341441853 0.29917459228849125 0.8115864534717055
Ni 3.211468444292007 4.211990539902232 12.895249221693648 -0.16424746925958164 2.078902227832917 2.2668928063457088
Ni 3.199006408685019 5.394108969968411 8.315041962842447 -1.4873232721002319 1.2488601387591847 -0.7181865031523051
P 7.432361772750056 7.600403074473072 6.649960799314077 0.525575909368998 0.6483147178618319 -0.027015866467211536
P 8.826194680298373 2.6323200953750416 7.263935586569012 1.3892413429241302 -0.46735096428883377 -0.4511399017466102
P 9.126937043338682 1.8712017377710282 3.4774320124588094 -0.504703436795363 0.04411293115881435 -0.7809345329138034
P 6.299446897063191 7.66826231483976 10.115442709862497 0.7737948365452286 0.8211455579150503 -1.3032037465070716
P 0.6446123374623403 1.134222735495693 13.387578099758208 0.10296085453495817 -0.8191771213347699 1.7784947915785887
P 7.930226634548277 7.16552100432576 13.625196609125368 -0.18575551853468653 -0.41802563569114454 -1.0490651114122966
P 2.4460621748861886 2.943207713789554 3.9232730136185325 0.7030851287344925 1.071470218580374 -1.207971370964623
P 1.2060616064235334 5.987307469974515 7.3543395274831855 2.6594676060639166 0.9518825541220123 -0.9040507793507141
