# total energy = -340891.44088850374 ev
CRYSTAL
PRIMVEC
9.05929842683674 0.00000000000000 0.00000000000000

0.00000000000000 9.05929842683674 0.00000000000000

0.00000000000000 0.00000000000000 13.25919897559508

PRIMCOORD
 96 1
Ni 6.2357868896220365 1.7371476522099782 11.302181419059 0.8676557856614477 1.008481019342347 0.8461518501514008
Ni 4.748449391671392 0.43543880284810926 6.155105683717477 -0.4767971973033982 -0.520085318568072 0.08132245032957608
Ni 2.8116348020225845 1.606467272329982 4.853092441928297 0.606752063928697 -0.9243648083177178 0.7966773975703569
Ni 3.389509330395909 4.781977855167813 4.890456612380779 0.5389075934808978 -1.4798166793105418 -0.02172890703665935
Ni 4.94307029988366 4.803946653865144 2.7071040870662353 0.2169715391261747 -0.13101159002458726 -1.0335274207880136
Ni 7.132077639279389 6.176964864903782 2.761997094054579 0.5863668154041256 -0.4510807663739006 -0.5530183218506669
Ni 5.218155896767964 4.389130437967386 11.485688379955025 -0.05663728887807021 -0.19076505593413598 0.11613750112623225
Ni 5.677670691128662 7.614829534117881 12.489807429197937 -0.4365568617261127 1.0244637679238484 -0.9207428952944143
Ni 1.8850044619168358 6.388725965749183 0.28411318777168143 -0.490077202241756 -0.2909277788986667 0.4991935627207273
Ni 2.775044295656185 1.2859130566160275 0.36867720898414774 0.3134331590900344 0.39595142949992457 -0.3735604633992341
Ni 0.7579661337605288 0.05459133235056207 4.944354908401301 0.029257868423852838 -0.1028497828783906 -0.8070158033818875
Ni 8.390867156390343 2.1400690092666657 1.5021612279747436 0.36884994529744214 0.6113931622451342 -0.1461636151746773
Ni 6.871187963037855 0.7837117539741137 4.945853316361937 -0.010017275026685974 -0.26735641933662985 -1.3883525125612735
Ni 1.126677768078718 7.53146586994764 2.8383706035547744 -1.0813144583643055 -0.5571058616564794 -0.979004607149785
Ni 7.9310443458829605 3.845355108891691 3.550084489171295 0.07887861677477384 -0.12702098080795543 0.5872492180090789
Ni 7.628309770184531 3.6242629306614442 12.820412030592227 0.004118907264380003 0.19622479349712657 -0.8620847193315733
Ni 7.825757179507549 8.86573746159309 6.882108041367654 0.07069042453702663 -0.030668375618134285 0.7787313546148976
Ni 6.849019859775023 0.5653237763257858 0.2785625556224632 -1.2925107855695999 -0.14838813362982187 0.4990364683175728
Ni 1.5551191688180361 6.641634400072224 9.322025333852348 0.37935058771844987 0.8503808006310839 -0.3023491333617309
Ni 0.1250038234825748 4.838254217026707 1.471904077142078 -0.7108421469720919 -0.435641806111011 -0.09885763099986201
Ni 6.491757366815055 2.209472294553366 6.8859790795875995 -0.49779488260098786 -0.3077196536450249 0.6468491890598989
Ni 3.5734765036522758 4.230040098204986 0.2880829723445351 -0.8059984178609666 0.8600890290577833 0.132504629630346
Ni 5.795486867235375 5.461706075810864 4.776520533792444 1.0894838815489754 1.2812853491674256 0.5135367188162768
Ni 5.229733680163918 3.0646881851205348 9.183015834994073 -0.2331823445580823 0.5472395103853608 0.2643191751722028
P 0.1380990393658701 5.486519494215807 12.454391913838151 -0.01513479875890942 -1.7873136754217993 0.8792350058586148
P 4.095690702460075 6.0699926690200385 12.344619488809112 -0.566730786340753 -0.7062532420498289 0.9146540087878571
P 2.3191441613698123 8.305401734983903 1.2032496762145717 0.6794533482481654 0.9658140766014398 0.5958621564890706
P 6.367019886706378 7.766717731626929 5.768003673582554 -0.7875062725940501 -0.8788573108042219 0.24972867895253767
P 4.748992949577306 0.8457933142681615 12.510637474082378 -1.0882664642021065 -0.1626443864385199 0.9762545552084734
P 4.147247169835954 6.324124108631384 8.115000647981208 -0.44281081305562453 -1.3953381998504872 -0.6693977637843761
P 4.818939792769919 1.041900853353102 3.87648557609319 -1.1361905415768947 -0.9389887288784796 1.3004112713635994
P 0.3512788263457052 5.525655663441567 3.63884115369804 -0.7094452666245653 0.34678936595297694 -0.48377311440059906
Ni 1.6160973065630797 1.0199411139542036 2.535835332421847 -0.8908615343539497 0.5176312006006246 0.21210829749660245
Ni 1.8621206740778846 6.524343663274559 4.828934010799979 -0.12236805541697633 0.87824975912721 0.7824355429393622
Ni 6.199359450627411 5.454603585840262 9.486187974806763 -1.2895540169341209 1.2882579238305167 -1.1607348065751621
Ni 8.916732252466193 2.1741591492658636 9.858506115830686 -0.49500909232573453 1.497922130662001 0.9954187868417502
Ni 2.227255697375164 5.469814147907404 7.09178822136325 1.642773711893474 0.07282032639583588 -0.17262798001379304
Ni 0.5862208600186236 0.109503363865613 8.919370320169559 0.37747239685913053 -1.5293248133429986 0.6007053435139849
Ni 1.414074951531959 1.1709686781122224 11.437650544090092 0.10473594415750996 0.11570529868482009 0.27846744164812687
Ni 4.379663471106062 6.820727670772234 1.34286524213794 -1.6403435051854263 0.9866014456604364 0.5597610398911391
Ni 5.660910989029667 7.854719756594297 8.104274438637852 0.20015909555452624 0.40822998975696145 -0.3280197986549577
Ni 5.141550469227913 3.0374378154374138 5.010810297978265 0.9750060275133532 -0.1013999378057415 -0.4404767656058091
Ni 0.4756140736040066 7.374377635138687 6.999902475158131 1.6882974073568857 0.7853779133971377 -0.9731692314149304
Ni 5.223881373376918 4.697762616944975 6.9960305310083415 -0.4852720675436288 -0.11597886406118091 1.0129521677398232
Ni 8.026474995564477 7.085956750962643 8.91011534089154 0.03223700565683481 1.3048037440043398 1.7496608980660318
Ni 4.407276212726459 0.2233914281722602 10.29375286155204 0.277350040214232 -0.261612317764001 0.6823388973260764
Ni 8.248273799072411 7.393338746756631 4.758302284645915 -0.31615210068309424 -1.2196673192453125 -0.4199092258671026
Ni 7.3657350644346655 5.9678943756926515 7.021355799774687 -0.9040744334997978 0.28781802962509145 -1.8813484311117212
Ni 2.2910240990372293 5.388624715360817 2.421474372737056 0.8780836658629909 -0.8321347099367025 0.8675470279977252
Ni 2.135729605317791 5.491819183798461 11.296717756174727 0.14224371129498084 -1.2542807955541238 0.9257015248512702
Ni 1.5814545493595369 3.225318605616356 3.8427143233987953 -1.4863382824791433 1.184288425525386 0.0025505343359956073
Ni 4.000631484014265 2.7666735039051202 2.945995068925614 -1.9873491009142679 -0.15974855294796358 -1.0324994937441314
Ni 1.0339105521361762 3.633711778925904 8.229043626291041 0.36172593265815123 -1.4233151446793875 -0.9594529102701025
Ni 3.831892991421904 2.6714602773859686 6.891097583201617 0.5877449266985748 -0.14748413375831373 1.426107362712544
Ni 4.04876353658289 7.066144065292103 5.980282966298259 1.023325026333715 -0.22728783345051826 0.014539845487387862
Ni 0.29314983795749056 7.34076763795638 11.518412377750694 1.1014258844021998 0.770160582226751 -0.6207026125715182
P 0.26492287590341135 5.573062972135641 7.986480004847374 -1.3354566930035066 -0.866798836977791 0.6275520313931838
P 8.332987298709003 1.5876058129947894 7.887393928248591 1.4539968900339604 1.3983265930548499 -0.6677702554832823
P 1.8290632940999223 3.3732841269043963 10.315246047081695 -0.8004661751888278 0.10085923481092307 1.8817297257105399
P 3.911678232711549 6.503896826713786 3.659884092095631 -0.17116425098407295 -0.1650049162508965 -0.26773334306007435
P 7.036384269943348 3.5811678480209492 10.42019258383607 0.23513355474718217 0.7447747951637947 0.21088162417835293
P 6.351899917623555 7.746569851914408 10.226886179826268 0.3590627840036913 -0.11349517840737872 0.7309975388740443
P 2.346621013513731 8.36155126666475 6.160118193539842 -0.30312380674422634 0.9629766071526448 -0.09150993238553917
P 6.750101380197229 3.9460492109621357 1.5876828170314605 0.791449059291882 -0.8288071882253663 1.3147138040292004
Ni 5.13074272619867 2.6045301805711736 0.6785722541631415 0.6694059913144923 -0.4262385105192401 -0.49106681984853495
Ni 1.4133955041495672 1.2399371170741917 7.0828648124078395 0.8660645299149278 0.6251153969272331 -0.5897994952347584
Ni 6.722760417529788 1.0185641005925565 9.14382168625835 -0.9319343931348594 -0.870753450750165 -0.7138225697566545
Ni 2.8130027560857997 1.9286702803585398 9.149112316542572 -0.15570934988158344 -0.8467501458570319 0.006516718072595229
Ni 6.320337321886855 2.0411686482857356 2.892640330811005 1.6324733584087305 0.6607963952686104 -1.3794986617150693
Ni 3.9595566249240814 6.765031104012982 10.197146314934063 0.6995043533617695 1.0481837372486078 0.7425225087945083
Ni 8.127178156933354 6.984537905017648 0.4527058256592893 0.01738374269408619 -0.151933427778919 -0.16078239352911664
Ni 7.547256227114422 3.9744410522476747 8.309128730358783 0.9513768181301873 -1.2078417873652942 -0.6180320077178904
Ni 3.045708954905728 8.061905911731595 12.333242821838345 0.6056207785377311 0.9391512225982729 -0.6707159683751674
Ni -0.0011161055668087035 4.830599109851761 10.245833702496565 -0.5802306205994008 -0.5583968125537608 0.07198163254462442
Ni 8.776159118698574 2.110988661300303 5.5804254639712365 -0.0677223430476382 1.889305738285585 0.7994799000161587
Ni 3.6675935550611682 2.6846053194106396 11.570136442147563 -1.0175091909828864 -0.7212988235290416 -0.25480917879923853
Ni 1.0935479137133002 3.254652613938812 13.034508618573371 0.34231333245949436 -0.061018705775217494 -0.8311836588773427
Ni 3.128601535557511 8.51915588148432 8.254010146839484 0.2033305513039724 -0.2898833967945524 -0.6118011963168302
Ni 5.655747188923491 8.034057628351968 3.6595126608599235 -0.4196006934877483 -0.5668493141964882 0.061485360998990886
Ni 2.9678171069883477 8.545282898161886 3.7228516517763173 2.1986364451714717 -0.404330140481923 0.44317668103547553
Ni 3.2428574073804928 4.6148156805026 9.26360554198447 1.1034642549884672 -0.4573470589985866 -0.5621714491048447
Ni 7.154155149557902 5.8918143874616495 11.554675843443702 1.1099406067414304 0.38939923020370354 0.19317443670657697
Ni 0.3198276599797168 9.003130781611116 0.4003430807229719 1.0158256326328765 -0.03545319860128733 -0.2853587694513215
Ni 4.712837289535638 0.30870827708441645 1.734263171589265 -0.4398000512537587 -0.1949994057304577 -0.3980005987194694
Ni 5.9891293712169995 5.49166517572512 0.40443969547387204 0.40450240439372914 -0.32996689507899946 -0.3145287061470583
Ni 8.122639448418978 9.138386107199215 10.776162314909806 -0.5715870859917898 -0.41633179292848943 1.2020737745332652
Ni 9.347202936054254 4.778245424213876 5.822684692987592 -0.8375435396570995 -0.648160965892787 -0.5417756590573121
Ni 8.139689048067792 8.53786333274617 2.4333012868398862 -0.6381272358058687 1.3128006461668875 0.8888141649066177
P 8.68016679251428 1.4940594973871055 3.5529218614401628 -0.5359353982264511 -0.4207108958327916 -0.4246817075550815
P 2.103514740093994 3.0991044598632804 1.7680742851967604 0.2300132028014813 0.37938092673575313 -1.7205914915039013
P 4.692952129477641 1.1847206931318295 8.301226304336645 0.41483669644020166 -0.5506367089923678 -0.9201394573824604
P 8.39800588355467 1.4945577588008594 12.514707816867825 1.6069746999169938 1.0858038615942267 -1.1549750212732495
P 6.368976695167666 7.824670063695722 1.404109723256881 -0.5975128047186161 -0.668111697983101 0.6569857632732685
P 2.083801706706204 3.337590491082754 6.074661831431834 -1.8791848478014992 0.28199165275130145 -0.007292419896355182
P 7.115127691913325 3.947362809234759 5.809199927271726 -0.0027305115572856206 0.7917475643689075 -0.42991493092956284
P 2.213684868324194 8.516130075808068 10.299308023350473 -0.39358652881217376 0.1109598135800347 0.11623854548047077
