# total energy = -340861.84643749153 ev
CRYSTAL
PRIMVEC
9.35824198227238 0.00000000000000 0.00000000000000
0.00000000000000 9.35824198227238 0.00000000000000
0.00000000000000 0.00000000000000 13.69673308665223
PRIMCOORD
 96 1
Ni 2.9556228500207973 2.2588456023119012 4.903855307124723 0.5336041789901133 0.40484179001101894 0.9985480764993512
Ni -0.10201138583996412 5.971185238447842 5.536657742584942 0.8727576256643873 -1.4384995657293098 -0.7680095973220192
Ni 4.494117793656537 8.530224519603705 8.674304945404861 0.15088261791690144 -0.09789500997627656 0.49539630046182426
Ni 0.036585110295921895 3.4481751880279745 10.987477948545768 0.4562967633572013 -1.0545122505697968 0.5077975023396545
Ni 0.8317876656063324 0.41265166994901414 11.213953013831357 -0.630913748776565 0.6730849828279762 0.7165582235202628
Ni 0.5227682289683148 7.099583312132211 0.817240278806565 0.16823884980716186 -0.6153452049143466 -1.1494684896327234
Ni 9.162785512426783 1.9707989212589325 1.4230909780279093 -0.31866124025819315 -0.4840065705676438 0.501639967378691
Ni 7.891056608105401 5.00924221076377 12.05698741437237 -0.7727813076790497 -0.9700101169606584 0.26461048116037655
Ni 8.015755179418942 0.6203905994277122 9.157854654848915 1.1856979042784033 -1.1357159159333214 0.3015991425695838
Ni 1.4011814624437247 3.7726347877286726 6.443066156254307 -0.8799726553555877 -0.034895526325604415 -3.4907985891524014
Ni 5.9116293879533295 0.29479303753026187 2.0283764394475776 -1.6376950118189857 1.2614325761075567 -0.10653237393630038
Ni 2.4386922922558893 8.25119918359736 10.344553638809172 1.5373574538394879 -0.6913968937632867 1.4407048009107446
Ni 0.7443573562364342 7.351638195416182 3.164794526311361 -1.2247131091993357 -1.4313598693607348 1.8238012288248717
Ni 4.237458655431757 6.489248143464453 10.139157077240402 2.201719969192802 0.35250672805272837 -0.2747218585627656
Ni 7.258373958139578 3.5618029593517284 4.745493268589487 -0.959967645122992 0.3820258205577679 2.65556364302382
Ni 1.5630603282284632 9.024133802664574 2.188066412487083 0.1577654610796638 2.288547151390691 -0.18964945427245403
Ni 1.408312442656927 4.779141762624382 2.00521572694147 -1.1848957200920818 -0.5867727925932927 -0.12111978483217205
Ni 1.3315187108596342 7.515089245814855 6.340176031514054 -0.7517219159055892 -0.5489199834115772 1.802775004282192
Ni 7.584237294102717 8.454394686706621 0.6360984082044311 -0.2081331148989383 0.6526236296498308 -0.8856763906085843
Ni 5.520052478424436 1.87532613892942 8.001658859871506 0.3018559957753963 -0.6599756991395279 1.1296820510344157
Ni 3.87419978543718 9.209361481614588 3.65598711179232 0.1477193896975714 -0.156314330455434 -0.6940610708590111
Ni 7.417230111839192 6.19006515472945 4.0488367421991605 -0.10758832600464051 0.3520570421098195 -1.2237348044464667
Ni 7.583357619378253 2.923084243457407 8.313779617825345 0.37833988706574845 0.34373438117673705 0.8042361837542213
Ni 0.34911482341421796 -0.012967715592433355 13.892047846525749 0.25167191872183753 -0.050410848352384144 -1.334845798892385
P 8.391039390061767 4.30395832130448 6.861008040264375 1.9051095380870608 -0.42256594676365933 -0.33918070036778364
P 6.095406539432153 0.6756004824537061 9.861647776397493 -1.4550813813473906 -0.5222131635443522 0.7754187453018968
P 4.7850468131683845 5.598156364066673 0.24414061823632757 -0.05838538191742848 0.8356851462921221 0.3360246712373052
P 6.833930903586056 5.819993484741157 10.208449242451206 -0.49619205689024226 -1.639801002418395 -0.19054831193763958
P 7.322880318519633 2.253034134185394 3.1003920424147258 1.1401708663808816 -1.1545230213374955 -1.1349875224077293
P 2.8135834567452305 1.440935273396064 11.776601390015633 -0.35921319353862646 -1.484725686576385 1.167085945604171
P 3.3958345419224107 0.5103685586500827 1.6407449646403183 1.228874182555561 1.1273058374927554 -0.963752308976405
P 3.113412164160957 3.6982648405445286 9.837144156200317 0.6701156157870072 -0.1635339881323248 -0.5546833682579158
Ni 5.2840563379827925 4.111655811591762 9.451128849743213 0.3872055649864944 0.25677453005572554 -0.058910401182963056
Ni 5.218015225955801 5.233634131435899 4.602691178611328 1.910839498592303 -0.272691201285982 -1.1687047121545162
Ni 4.866660039466726 2.1267259452909193 13.416402108063416 -0.7806625101993394 -1.0655104014525134 -1.231167349465112
Ni 3.5322028406977144 2.8442036237499515 7.5046866242859895 -1.056340047807155 0.735659720236404 -0.9710221031649408
Ni 0.8318952853864529 8.734945416118153 8.818367590546695 -1.0249723321291506 1.6559855825980576 -1.86220708229658
Ni 2.5008684504402923 1.201813480210052 9.67613935019499 -0.04059231960006558 1.0941553188827158 -1.9075073488952758
Ni 7.770690902721929 0.6403489216071035 12.335208877412425 -0.147466650256817 -2.6925363635934274 -2.0392673870501135
Ni 2.5707745163098723 3.571937935166555 11.892695058040408 -0.716055058631599 0.3738728524333303 0.5367021011891466
Ni 2.9521228676064437 6.350577717218745 2.1634944771251337 1.1227776106050986 2.61325022696759 -0.18830245332625636
Ni 2.4262364724871595 -0.0999385352924257 5.572090853321487 0.07849989327911643 1.4531255431726007 -1.026507794937071
Ni 8.984595231272476 6.789731927802653 7.949487597941611 -0.2273549392430278 0.29966310188913553 -0.5437613220287733
Ni 3.906541868923829 8.249355609972687 0.21357753650627917 -0.10777241699098858 -0.3239068049278486 0.29076040008286697
Ni 8.985624637864934 1.6671146182423668 5.185897740271142 -0.5729520846601164 0.1439766348256875 -0.08870563016752465
Ni 6.763351044310505 3.055849619159112 10.98695763030449 1.4075481116531179 -0.44883285087998837 0.6690902598462865
Ni 3.869436440386629 4.389717248697898 2.7825187732574026 -0.4003755267095491 -0.17715826378397875 1.906991585601122
Ni 8.53032746026295 8.332110541764479 4.861244424966228 -0.4790906213232652 0.07951702168972112 1.5641738027013834
Ni 1.3000282273721997 1.332622983386088 7.050722060309151 2.2325292412641744 2.1735152246238116 1.5251115465925993
Ni 4.696452338524836 0.384355154370721 5.890855027093372 1.8040775251436996 0.4959868828579716 -1.3294359407307232
Ni 2.3282276066435035 2.373643153854356 2.57011008114565 0.6025369974060849 0.6635055666696573 -1.6657891989520408
Ni 6.242415159076764 6.749425980587086 12.074463930839768 -1.154927712975082 0.6926834737851941 -0.027622132592642755
Ni -0.005220027247931967 3.7963860052891802 3.7785856936572486 0.8177234196073788 -0.030319219808831656 -0.2431415126533232
Ni 6.188240297588275 4.269604215841665 7.124821554306731 -3.2526421884184953 -2.1906269446034337 1.0160539465935985
Ni 9.050243297145984 5.375748390645462 9.73648690794152 -1.5111152323135073 -0.28612727218622985 0.35355316703937173
Ni 6.955045268309497 6.307866701873529 0.6636369062010058 0.20327295859315958 -2.2272561657906933 0.21268653859757564
P 4.899535542733104 3.4608930385656933 5.620755582067804 -0.6463056578516031 -1.7866261624364714 -0.13829835349398764
P 2.179833967219951 7.117485628599212 8.487700669093481 0.3971778457078579 -0.9848633799234071 -0.5673650774906422
P 1.7279619060983256 7.818483443337183 12.484023637714708 -0.87984898529353 0.7301357050943812 0.22770718037612397
P 6.054585888920358 8.583098585488996 4.178092777244762 1.0529852724023092 0.23575756148442625 0.5799537127889302
P 2.117723316727796 4.405570110221736 4.448041554578161 0.020328941365339186 -0.8611112996747105 -1.275445602557197
P 2.386145764831834 7.29781894711418 4.4528900596286345 1.9179791949608775 -0.10102275697198086 0.23696726552181124
P 7.6751526127001695 2.315818578083521 13.266504599190702 -0.112601977169148 3.6752387313097734 1.1682213447601943
P 9.181024725596771 9.395674716607555 6.778088403417788 -1.1942398803111434 -2.740503378391009 -0.11029698318505521
Ni 0.8573066550333416 5.498781194927573 12.279065977683995 -0.23398889961977765 0.10483955961490976 0.7101456351256995
Ni 3.4087676320203704 5.557897208059854 5.874377970844836 -2.864533394891441 -1.0239611172558172 0.5635822134094423
Ni 3.3439992408713257 4.963508483333431 8.133722367441992 1.5150467061574295 3.7084830951852004 0.20483310399142787
Ni 8.013518559640787 0.0088248219698814 2.7981189622540015 1.1989884507397222 0.7279998896983011 0.7120276826397609
Ni 8.481112466901756 4.135743925855255 1.1178822174303327 0.15882938356780388 1.1746498739943576 -0.3551166548717497
Ni 4.557370149642145 7.306372380073324 5.18293960005409 0.2647709179976408 1.9300587518332306 -0.413229756964398
Ni 2.0982862486138574 5.78110999027153 10.232198588363365 -1.0156960490335476 -0.9476841997699484 0.19354544689275055
Ni 3.40159921884017 3.8678829722561936 0.5814518913317636 -0.2593641451597727 0.5751172106322353 -0.7269963881344512
Ni 7.137353175833633 5.915559849488165 6.32868504646971 -0.20706276465289503 3.884180972373569 -0.26366302964544264
Ni 5.750910944145542 7.443180516210859 2.3199118730248003 -0.6088482843360934 -1.5724152167745693 0.6506713910194666
Ni 6.317486974392128 8.294827306634037 6.764117484309797 0.1408871972670864 -1.659957422761612 -0.34257095699625517
Ni 7.284193347126749 0.9243378690374418 6.865062966414481 0.3479705307452717 1.069976150533351 -0.875214314734996
Ni 6.238990042596407 3.8650006337973144 0.2760494151299698 0.47262429687263124 0.9094207854133757 -0.9812373531350455
Ni 4.672729195689577 2.0155874662725615 10.890655707755963 -0.47683576385081755 0.27989594656453737 -0.5632171167605396
Ni 9.30413239581288 7.536210797443722 10.61839170141371 -0.25014056967897563 0.02715264915539195 0.9823444701562953
Ni 3.192395724527658 6.279548662339212 12.475312986294174 0.6719878931090556 0.3969307626940583 0.2609150345866603
Ni 5.314695221471013 1.9062270531866294 3.9646836890899757 0.08162584050260781 -0.732336826510758 3.287522545235448
Ni 1.3174251987847232 4.173869402743163 8.466594090651412 -1.8162272731323559 -1.284294825417711 3.334608185869341
Ni 4.7296273055272 4.629587701223879 11.818280191295868 1.08750978854174 -0.7382205389850447 0.29985516329528356
Ni 1.9002377784668798 1.758469774202051 0.1162237475850955 1.2896054389973468 -0.3475257298983692 -0.4160278885348254
Ni 6.458281721514997 4.230589705987544 2.6753416379716546 1.118403649907119 1.965337115419551 -0.5612409668707754
Ni 5.1477067556909875 2.639641817345246 2.0179532297868628 -1.579324542299893 -0.8218770367644361 -2.8078503403771
Ni 4.872471507593234 8.751256831487723 11.59937968688241 -0.10012981284406626 0.7787334114974266 -0.616313482364887
Ni 6.876389246404033 7.6797287929157285 9.157142492651769 -0.12733825493805812 0.49565649610174634 0.40633662938899046
P 1.226584746121267 1.2562597307092778 3.890817215311961 -0.37052424767607156 -1.2279246741580983 0.3916083220398804
P 4.97358730969776 6.616089752138656 7.403659725478084 0.4971258815584213 -0.3166889470231707 -0.14181587972894286
P 1.0899637748187239 3.7292686954609837 0.05900839335216031 0.051516936932369334 0.9482182178965476 0.1368726767910546
P 8.395213165882094 7.029574305603385 12.618581116711464 0.17582231858137462 0.8453283258088409 0.6353833545121444
P 5.748898922169377 0.16733659237311058 13.56186100287429 0.4291317729066351 -0.8811525345963018 -0.9295136995085089
P 3.627123486764 0.791047495973584 7.546283073038827 -2.2144914099258575 -1.0154289114150898 1.152592637084002
P 8.68998842275303 6.079169989996582 2.3187608092895986 -1.334294297264289 -1.911565835235366 -0.4672062111808534
P 9.379952870468212 2.2530902836358915 9.203999209092062 2.0645238476240575 0.14489066199952466 0.3941832818559082
