# total energy = -340870.81770530384 ev
CRYSTAL
PRIMVEC
9.21912139589564 0.00000000000000 0.00000000000000

0.00000000000000 9.21912139589564 0.00000000000000

0.00000000000000 0.00000000000000 13.49311604596624

PRIMCOORD
 96 1
Ni 1.9648713846280608 3.014394624757689 0.5198413748718522 0.7859900930598399 0.4253849042696932 -0.48078986340255914
Ni 3.092711062670772 4.849792665765817 2.226498992426507 0.34646180741022914 -2.0008805597417996 -0.5026329274195795
Ni 3.689271201684037 4.43547612235771 10.8019820778083 -0.05529414458661445 1.218013071471341 1.0183432568484074
Ni 1.3247416769770992 1.0364413065924105 8.505169766921608 -1.2221420060380501 -0.8557274096549778 -0.2903701066229838
Ni 5.8137993340200165 5.3166674213625615 9.86209170972324 -0.8492824253605825 1.2271908813158672 -1.2586069337333032
Ni 3.2201008848112056 6.231637581875774 6.558005549132823 -0.6264325730767599 -1.0986547494149659 -1.4025987380676426
Ni 0.6318500145503445 6.080904943867663 11.644883599110456 -1.2660975856833936 2.5102634042907024 -0.10519360052021884
Ni 7.014525387358883 7.453881065007359 2.3875800944201906 0.5562445420974484 -2.051897674219614 -0.12657052353409812
Ni 5.451828963003964 2.517852735882039 5.165394542829234 0.32902047200533013 0.18409278612028296 -0.8296818775208356
Ni 1.3234694381975813 4.443496758141628 9.85353728679922 -0.23938127427994257 0.39139492047749364 0.20632485804560596
Ni 7.3339310739906285 2.8953942032648023 3.3360377921994995 0.4270165263358452 -0.09289395721725938 0.9172148275364979
Ni 2.1070025821920395 0.37155364790959705 11.112917235522502 0.7977973701074131 -0.6769043565740664 -1.752900230938936
Ni 2.3047711785559546 8.207369091737693 8.507571348095988 0.4075370774549949 -0.26967246906431624 0.48155733769620296
Ni 6.113909399162406 3.9068885668327513 11.659739291641726 -0.468362950493116 -1.1716378266409113 0.4083305198905678
Ni 5.061786366744197 1.4365788409940046 13.422843746871981 0.4458920230841095 1.5011992587513758 -0.5499060014739304
Ni 8.639183527924965 0.37363809130125664 9.545961576992674 1.1583966453602887 -0.4939994201142977 0.47141227884240106
Ni 0.1705177948539346 3.3019759036583025 7.612330107786894 0.8658693831849862 -1.2303497386598228 -0.28363150234756956
Ni 0.02762878549519934 8.324184581413581 2.523833180057933 0.23780313115954527 -1.791418441618792 -0.9461104275249255
Ni 2.2829126412643803 7.93330304508906 12.750954165341025 -0.22525794750468303 -0.9594300274519668 2.060546351033548
Ni 2.9306942198356314 7.214322190472754 10.533738828356363 -0.4998371098419973 -0.7136338507846162 1.2842958538589753
Ni 4.462156260241225 6.732853565397915 2.686506424350332 0.6016052296204348 0.05148351259127263 0.5087308127872012
Ni 9.29066197425409 1.0365519360514992 3.5837177909433597 -0.34315896828924125 1.1160996843642907 1.4074581230424728
Ni 3.5784942366500636 5.698919859878178 13.313631266771951 -1.0551876793702666 -2.3766596280589067 0.2775061061761221
Ni 7.833450739140078 1.8395743030887186 11.23466587716158 -0.9442448350710964 -0.6690622348218284 1.891037376264711
P 3.212144782878423 2.980016520345931 4.863377963341887 1.770371648250822 -0.08958906121374248 0.5510802242876895
P 1.5042656317129988 5.289166781657473 3.528881533809657 -1.8200921554044012 -1.436836833314906 0.017017617603919077
P -0.14327068099259063 2.5714619279320186 9.688367504380055 1.3602778658122443 0.06726880044998737 -0.8144876862789006
P 4.425860578538599 7.448792109889286 0.3741949262453355 0.554805752768393 1.3757006281252178 0.3621907881097117
P 0.22591549649251202 7.2155483336443185 0.6200347883196905 -0.3404055739138202 -0.14660173115336042 -0.8157572970199434
P 7.862592382488312 5.681228365545604 9.707568168917028 1.1487460096444024 -2.1871253592080784 -0.022535719208670865
P 2.094713493111623 4.753987554195156 12.128058683591737 -0.818879644699009 -2.182259289365029 0.06113723363095277
P 7.224712140505484 9.263557756777404 7.240244516561513 -0.4043129140907424 -0.47967246196866414 -0.521231002136741
Ni 3.4148087328070043 5.817708241574478 8.772023694749826 -0.7028717271721057 -1.6408698100025418 0.8858190868340357
Ni 7.484728245849874 7.154858856212674 5.921980194414046 1.0663161851832603 2.758775694337636 0.9262401709635598
Ni 5.84163186210237 5.624337166209332 1.0008047920835204 0.31790585014940737 -0.10413739134156258 -0.04025987596131131
Ni 5.092578232857169 7.030151798455137 5.1897219608828005 0.7694337313630556 0.29123348306454355 -0.009804130574615372
Ni 3.5445586500746598 2.1157238712168516 11.328442781982282 1.4374497843085567 0.48904387588123527 1.1331759231202871
Ni 5.367031482612611 3.926838745955048 2.5604810322053235 -0.5482347844190945 -0.8049586637425428 0.2966220010699666
Ni 9.279506837129333 8.525594730805825 7.51630004964942 -0.6153089523597726 -0.016858466318235482 -1.5230382090033383
Ni 8.79305988639551 6.532282356070424 4.017305986124687 -0.55741927913184 -0.6412195015779473 -0.6306401834002042
Ni 2.371342455562473 0.7653797716701908 4.238619297119117 0.86639311689894 -1.1193351605824529 -0.10580372330039198
Ni 1.603537133001766 2.7441637326907924 3.5465850130002976 -0.306378309125782 2.431980255008083 -1.209419159154743
Ni 7.056048311003442 8.898489760906871 4.153923227065262 -0.10487169840442584 0.8174758223729469 0.7463308267970049
Ni 0.881525953118594 6.55182689384273 5.94912866367437 -1.4989516003677799 -1.8944911391412662 2.3176332701233697
Ni 1.4261520144749114 0.7066585766981623 1.659343241726812 -0.46722189491013727 0.5403808355923145 -0.22962856576855292
Ni 5.12894766753252 0.07847500680444319 5.918202198386173 -0.33535721285663533 0.08588178756548435 -0.3474537390098532
Ni 4.555435332496031 7.644523280381654 7.812973226262792 1.2657805686636072 1.0578354014057587 0.5118256496624412
Ni 4.5578876188391595 8.837237917058193 12.055802896212386 -0.10927085591338599 -0.2748992646808943 0.0451637410208319
Ni 4.199899908350293 4.969714999417775 4.529962899540899 -0.4547543585707458 -1.1625847152997075 0.2638052116502618
Ni 2.383917337412201 2.82617703836175 8.590162692690683 2.1525085404651576 2.3961560462206215 0.7239141496647016
Ni 0.3790460280263672 6.624805460354791 8.754968319807013 0.6774923678670526 -0.5907484894115891 0.47471126130864694
Ni 9.12136202536229 1.824362752464047 0.20376932260730807 -1.5349632425756985 1.3995602083516347 -0.2419238381961382
Ni 3.520718001641083 1.7696841423095448 1.6946008503383239 1.653085121121811 0.8096450134746185 1.3918492128606224
Ni 6.992399495541179 7.221420914097601 8.41098814266307 -0.37560860417751435 0.22022732705931106 -1.242848642457782
Ni 7.75702422115309 7.538162274589631 10.649131807570804 -0.4288713201563969 0.7116337896354518 1.5345022437788798
Ni 2.3075000385468045 7.022628995237118 4.28201370244659 1.1503598910987414 0.7931231045601954 -1.151822591687197
P 2.5216510139774115 0.8788441106478563 13.296319600248916 0.3567703884250888 0.40757795799525937 -1.3102133450556857
P 9.075598305786004 2.74881016997251 2.0976802064395135 0.055945405017368166 0.8108981691554292 -0.3368926756645553
P 5.633233618544367 1.4490246551414634 2.9910997483222825 0.23849295813771829 0.6937810777247472 0.43469255482386426
P 3.920818659556314 8.470141714437704 4.0823690148389655 0.6512426901419043 0.3385533511964298 0.5651418445870784
P 7.5956711550724805 3.352229335449264 6.223970038448781 -0.7304902602203226 -2.156696867514892 0.46267515607971926
P 0.29510408211863287 8.397365968600639 4.8142492643849915 0.08342458427424342 1.045093014138426 0.9926772195408711
P 7.445666827670036 4.977486718918743 13.067543410326806 0.3447342831961611 1.245983588542338 0.16220498490825613
P 5.162081190529533 5.338212508520051 7.576722172554935 0.38325635053075935 0.19844108442215502 0.1512711116045717
Ni 3.3314678736269845 8.664591427028963 1.9855932042275002 -0.5750735018784935 0.14357605695315917 0.14589442067369066
Ni 7.595348485816806 0.754465253618949 2.057808427471851 -0.28263005766624877 0.8114165035527446 -1.7896333246939113
Ni 6.979142398693737 3.1956425552310512 0.64234414065705 -0.17368058964802346 -0.6948079763273647 0.4781043461505959
Ni 4.7346919327057995 3.2031100437195263 9.273616740345028 0.910466710179387 -0.5447810215425392 -0.22372197047613082
Ni 2.0034626276067735 6.7805993961162025 1.6405878607626712 -0.5939862796225963 -0.15952332431103494 0.21938220545019635
Ni 8.078799222033648 5.1145013039998775 2.2664113355291686 -0.3521187485856903 -0.9409990744402891 -0.5225060121944227
Ni 1.1624851369806004 2.422075281676151 11.54631643871122 -0.20824855743088005 0.9958023954334141 0.2805855164323942
Ni 2.2014063872809118 8.428628009914737 6.1891982775451 0.7321635341576874 2.1232524718135175 -0.19085195922098744
Ni 0.5243366185594824 4.838868006680825 0.394023412962635 -0.7730844407417653 0.9750654199963787 -0.3694371852594799
Ni 8.631070700925141 1.157147265579579 5.833910847770151 -0.24949445145454455 0.12796560410941188 0.8241259806996131
Ni 1.8728276746664103 1.986748360162816 6.265124197229711 -0.14415404094381626 -0.19644333726583588 -0.1242264487819538
Ni 5.612564347937995 6.268292809320439 12.24956394042082 -0.02435374625401612 0.8444446376523069 -1.947240662929156
Ni 8.115408353870357 5.17307960258725 7.403092924164136 1.1493864714418787 2.0077153232754457 1.1457198212235689
Ni 6.4728098026887535 0.2282636067616659 9.329303000489395 -0.313968205657898 -0.8453859185196536 1.2122633134717573
Ni 5.596228064479257 8.901946931503387 1.5227112501916917 -0.6308019057890492 1.0075659637272454 -0.851188898354676
Ni 0.20674986461758466 9.328736946423724 12.366063214226145 -1.5200873539051305 -2.037675874193278 0.030042311998361167
Ni 7.239342886469942 3.359816672518418 8.724662301401871 -0.6648636233594485 -0.11844583754443473 0.5976734986661965
Ni 6.5640145725856485 5.218124230679461 5.87278419586954 -2.645916606852359 -1.7844988316808235 -2.1725852566103745
Ni 7.419235606069469 7.443140788354182 13.242819193833707 0.6442449186678324 0.39902826865303537 0.31840438705238067
Ni 9.072555995661071 4.288458790350655 4.996001480809366 0.8267137960314472 -0.19162071906621195 -0.4020763114507398
Ni 5.720216030752718 1.605694407453992 7.650691794637998 -0.6093830737936408 0.9683610113930097 -0.8449385465695899
Ni 4.234619120260907 0.6593395913095242 9.56150593790677 -1.851977434148772 0.33954399724447326 -0.06495892136988814
Ni 8.655492154018932 4.066572971905442 11.478769778640405 -0.6495663308807458 0.7135340919819582 -0.17864667540404716
Ni 4.086818162918642 3.444328360140459 6.994022060941143 -0.4434294204762299 0.7603957895305034 -1.07796431094515
P 3.4309053191043843 1.0374369717242073 7.577302055302991 0.5326145613833343 -0.5058300942006385 -1.0394432720518163
P 1.596383094647375 4.970719883671161 7.592212140651646 0.08860587136486675 0.5929408690772174 0.1638209232451243
P 0.6741362814626141 8.065763384104383 10.554841397677498 0.8973078041999256 -0.1983706361955358 -0.5244628788104774
P 5.738598959204594 1.8699881852164715 10.816703171164347 -1.1791076526553952 0.1889467717784746 -0.5136914992265863
P 6.36465106818654 5.682915464796704 3.617585156018993 -0.14343721738244974 0.29511944838251114 -0.35148625720801396
P 7.056297227286391 0.5291572972392647 13.117670540151975 1.0591998858534533 -0.03650863644899519 0.8107094501833908
P 4.894127421495542 7.933146320022018 10.13558340509677 1.351060975199667 -1.6082435393270884 -0.6466424723657316
P 4.329382471091817 3.5818039013011287 0.46159773039822244 0.522114690293275 0.33879477778327455 0.7472913909380613
