# total energy = -381170.5231668353 ev
CRYSTAL
PRIMVEC
9.25199127233390 0.00000000000000 0.00000000000000
0.00000000000000 9.25199127233390 0.00000000000000
0.00000000000000 0.00000000000000 13.54122443266795
PRIMCOORD
 96 1
Ni 7.87833901295707 3.4718652971844977 2.1508474563968836 1.041130172835936 -1.4776980903056423 0.9544171476184079
Ni 5.377803288358251 5.853744231655001 10.22944767431968 -0.29873621919949195 -0.6081312036644106 0.0790033152780962
Ni 6.388176264791221 1.1102759799265793 8.752275647324915 -0.5405613270342368 -0.13336312097589934 -0.04135722279054813
Ni 6.039903551278536 1.8441994523412977 6.302234516370018 -1.9950626675084415 -1.4618351551314566 -1.0768679925571776
Ni 4.88274773076091 4.25019832847765 5.520378326739177 0.7596936212571561 0.7063344889097255 0.7968596887844921
Ni 0.752287750210094 2.4962057926081713 5.824879868782305 -1.3708972931993035 -0.8182648939331457 -0.4641049465477104
Ni 5.118756780225486 0.5177701217645175 10.782863868677284 0.3273117168443395 0.04559028703528923 0.1301628688710468
Ni 0.813872705984762 9.010255400845454 6.5759574585129625 -2.6503211636779582 -2.5246325285281808 -0.14037966150304856
Ni 5.246841349624037 4.259801895585111 12.45974105595265 -0.4429452817509597 0.611710693485553 0.06519263464724902
Ni 4.839948018391818 1.007412339174407 0.915297662069102 -2.3974503395520133 -1.6989800838817128 0.011000464875561701
Ni 3.8391786090663116 3.112804761660927 0.7020623895168717 -0.13451317541994257 0.43450589273435486 0.5018898786059679
Ni 4.434423981891687 0.07862804919341052 7.7541254767740915 1.8098010578910382 0.08161992696533685 -0.35896251098040116
Ni 9.088379216505764 6.644641467314176 7.105337904326761 -0.2709490217838947 4.069555710530069 1.4601508254504982
Ni 4.974916069416526 2.214251353687281 2.7199448510342945 1.517091247391284 -1.190833939953388 2.0288011974114672
Ni 2.478497481005396 0.10872292692669587 11.93550656777389 1.1530916882076077 -0.2586648050999029 -1.14755404621883
Ni 8.596894927601562 9.181916849893467 9.07810488001941 -1.0919896786899645 -0.04449653975047821 1.1369557018776935
Ni 7.351280816992957 4.523779715151669 10.757866838223586 0.7484581575526529 1.0637648795163164 -0.4181295082588605
Ni 6.02588678425753 1.776373103145923 12.876905948073793 0.2792079193585772 0.9294879884768961 -1.8867441482059957
Ni 7.2478528047633715 7.534895838972416 10.754318699509028 -0.9385619257537062 0.3682485642680174 1.3670840901008006
Ni 7.586447935237131 4.142255344428756 13.001972517866896 -0.21377874322048987 0.475827120080645 1.0312602220203917
Ni 3.73477913773626 4.898457612214155 8.499528820158885 0.1142179155060162 -0.38131619608525297 -0.449178150034549
Ni 7.729326438937059 2.448743076556845 4.515768415769828 0.737359219426014 -0.23348239229700438 0.08701564405961143
Ni 3.8473573694930896 6.526104953074491 13.104303243912526 0.6685007058914035 -1.3108427511095682 -0.11873894330482132
Ni 2.9510151874719326 1.6592243876211874 10.002212288331021 3.153489651886033 1.2769468696930717 -0.5104295406458629
P 2.7931669616333985 1.1752989757177532 0.13607458920009466 -0.2051182393320145 0.29064829998503494 1.2670820610838502
Ni 8.942715863384501 8.858402465455507 4.40324106996588 0.10555406918343112 0.5127692445226331 0.5507200127347934
P 0.32306751325174365 5.77134599595264 10.53672481379271 -0.4773137319285005 -0.3860012602657481 -0.8325859385415081
Ni 1.3751327386792727 3.335666731299201 9.745944153225588 0.3595178692632389 0.8697059833222569 1.0022350384326353
P 0.30012442489617275 6.9894261800566175 0.9891239277087819 0.005978843291254219 -0.13663382130737112 0.13289697997275823
P 4.371612212053002 0.7171634899338258 5.036252146621646 0.18941934053951892 -0.14067199593248675 0.15521004164766172
P 6.417893661274039 3.9591214260038146 3.702794078153211 -1.0652543195776492 1.2262776254729784 -0.16094308747669703
Ni 0.8468884374134478 1.049499648203156 10.575344476432367 -1.4692630721644115 1.168970307111077 0.6109162226087156
Ni 2.549895098893911 4.493497947191437 12.516803638314864 -0.010486758463936778 1.3563867582879543 0.02375570765870102
Ni 0.9352375540055188 9.060734266103939 0.23512825988015487 -2.0135393861563906 0.26057796296221575 0.23507544781573708
Ni 7.766602712420644 0.634045449297977 11.273936443962718 -1.3190425133115413 1.9527482230109465 -0.7182518091726017
Ni 5.469897611082404 2.8785535905686213 10.547233225662318 0.0650530237455912 -0.4974935493104851 -0.6085749760700487
Ni 2.0677275653627483 3.3486102673139775 7.378382675497664 0.44788385670315767 1.1808066376243729 0.44738300580733925
Ni 7.676210756120165 2.8411292852221073 7.366385618206484 1.3033436145190458 1.64594053965723 -0.18992816185513742
Ni 2.093827433195261 0.14831127306938982 4.521076283254944 1.2353916719591047 0.6478915142814842 1.1594001469241386
Ni 2.61127281006048 1.3654644076317801 2.357784898380666 -0.3406135761595683 0.3207312354133444 0.17019725908511335
Ni 4.330043014544501 8.613298708412286 3.1748217854355167 0.1341550207495754 1.0339951044530515 -0.1555147173722741
Ni 3.1031456826048673 2.642322493309652 5.12783113342298 0.5226075707692934 -0.7548278085244227 -0.3588190434240014
Ni 1.7683238705992066 7.215998198259527 12.368243486675928 0.07040914585118198 -1.9008173384696099 0.980490447666692
Ni 3.505810853752201 2.4388619497063937 12.050566183633052 1.0437390712136927 -0.5944621908177504 -0.48338127827881916
Ni 5.973807324481133 4.197702529086768 1.3611233732514132 -2.2154013233346364 -0.1849502490245718 -0.5039264494200225
Ni 7.646271311842955 6.988454720956152 5.400443836593963 0.29818497468171223 -0.5499502244483045 -0.7818097364299051
Ni 1.6711594565697665 5.740842180198015 7.885569444261965 2.453301642193678 0.5582356043855483 -0.6109303636761028
Ni 4.130653347171766 4.138128956249636 3.2372866055954637 -0.3715622020222827 1.8013084470389946 1.1167835978051925
Ni 1.665358457941271 6.209538814202721 2.7735952989560158 -0.05233917572334857 -1.6711180673641222 -2.6668371590551105
Ni 5.628328712381217 7.920435573977253 5.867588911635353 -1.7895482211792728 0.9709040895298376 -1.2909257004706671
Ni 1.2187185715128552 2.523415899412645 13.012805674635803 -0.8257504036769133 -0.24534083429748715 -0.12299309059548497
Ni 5.916361709673592 6.408734189755363 3.815998669730055 0.4819270623307958 -0.4477347327198031 -0.6389422755079963
Ni 0.4163701460570467 1.5872994062209904 8.03241057589265 0.860478551186718 1.2640638430828166 0.7633340462232209
Ni 8.546915669880459 5.345199270548335 3.6087633136221307 -0.4662312488620938 0.29059173571548663 0.16340209054015084
Ni 9.212799997296843 4.510734407231128 8.39672346695274 -2.111186541787919 -0.8960857588673664 1.20291889614238
Ni 3.4576449863519665 7.628590756214478 8.906618293609482 -1.601110784937049 -0.19024595020587234 0.9878641144229438
P 7.0576596168750445 5.0701838252022 6.811019104054799 -0.11949664740645226 0.5881308492830839 0.3849242251514855
Ni 3.523426645440646 6.677226981141227 4.290767385712242 0.17934832945676207 -0.16945832403655978 0.8992183909590772
P 2.058364550032545 0.19950624246479107 9.003248867733237 -0.7246358583220746 -2.255571724905935 -2.3383170237249664
Ni 7.539623606594681 6.40463555755054 8.830788046625411 -0.19681820410675135 -0.6488487359884308 -0.8513984432623208
P 8.662806114570305 2.738450684298595 11.6447895677668 0.3880745978550091 -0.21214583560275724 0.9650466023077959
P 8.222670378119295 1.0437356575403927 6.317170931339465 -0.04391624176697598 -0.5460087233020532 -1.00809098299278
P 2.631016559778517 5.377766280392519 5.795847119665529 0.8028094786100238 -0.17759895086582317 1.6552055098989236
Ni 2.5461850503292753 0.8914228981762272 6.856856245211346 1.8349009382824593 2.2114868187715784 0.2125387001658017
Ni 7.521267655591595 5.806623839286696 1.406554351984051 1.0003684175375418 1.5256514782564694 -0.3511633266509565
Ni 2.9441224538543422 7.628942331888932 6.727131297731725 -0.44898017509113003 -0.6013182945076354 -1.8307560628761503
Ni 6.613323476313448 0.2949405340962589 4.203643232785901 -0.7355630467575397 -0.39614323379575644 0.07745808227816338
Ni 8.112747467903738 2.1364143497613926 0.2714377002589911 1.1483726854653835 -1.3209757257785122 -0.3663675451952207
Ni 1.1075373904624093 6.712366044603788 4.840703906091896 -0.9657446568160853 1.6883205472853375 1.7113964552681946
Ni 4.192919249515904 7.67702493136627 11.035421030018938 -0.2827637550306356 0.05556565308044624 0.7636862873563169
Ni 5.148187364973882 6.653763930867122 7.693745130284 1.0657744537471774 -1.2779562847941925 -0.8054777694708063
Ni 0.7541733060641407 4.171621165237121 1.4667311546626156 0.06519469152977804 0.13944146595949533 -0.34202305491258517
Ni 7.956675624420341 2.4886931755645696 9.705428757541307 0.42474778490632653 0.3673949580184705 -0.6156102856502753
Ni 0.058414298310576686 8.306419404570875 11.479870970075162 -0.029203618147149703 -0.1528363992091626 0.3060648916504212
Ni 0.8074490483328253 7.535756274175685 9.292882459543522 0.8289853656744431 -0.5854746426071594 -0.28460929287980663
Ni 9.108789109606978 4.897967256668206 6.046563134712014 -0.2323693617384837 -3.1683436861797305 -1.9646388038009452
Ni 2.5008317883246747 6.029994668453785 10.379754601941167 -0.12967461638071862 -0.8067795190013655 0.3357860728639378
Ni 1.5063629851650446 8.37683631136749 2.681758181593701 -0.9074351224419147 0.7052047461806565 -1.3719329335526695
Ni 8.040036067231734 8.075295406582924 2.3600053763245876 0.9338043564640627 -1.3396043966232931 0.28756143352959507
Ni 4.214013789983159 2.6166944770402223 7.755546582658201 0.729803518565943 -0.4445594203156151 0.4165518793590955
Ni 6.106240329853197 4.113463147089239 8.584459325916459 0.03962301370826079 0.40984181432877154 -0.5521711433590232
Ni 6.336170820946288 6.488245804130625 12.88614128592222 -0.19873598995475447 -1.1057517654710636 -0.0990743749963584
Ni 1.4786162628574566 4.387766189095032 4.304335431148748 0.09410237570306375 -1.319902033098359 -1.1137180715059916
Ni 9.094929626440333 1.0725741148370758 2.148057980979832 0.7576915032254629 0.2650216005558661 0.6225895451815858
Ni 6.801000122531995 0.6092787934309605 1.7929397190058654 -0.31881576355818636 1.167242525786693 1.0807323606085906
Ni 4.163858744424828 6.534672297141455 1.9658205805247486 -0.054501473481990005 -1.1062299906590625 -0.21184578786383518
Ni 7.421836503661069 9.070596888971526 13.313569412139996 1.2455290175034226 -1.4894567735034672 0.1840537053522314
Ni 5.215273554854616 8.415398611660263 12.988133389081403 -0.31402194171396886 1.3080243078241665 0.44800315588984135
P 5.776221795437835 7.973458736879816 9.192094965668916 0.13941626914851474 1.379242065619573 0.7661203507191063
Ni 8.611170750382694 6.131202202739449 12.397532515955398 0.9809370482858074 0.6726990602434673 0.999377514379182
P 2.834995214902024 4.6494865227519355 1.7070201753641019 -0.7842142321063397 1.2985215105400538 -0.9374206130604112
Ni 7.424353045330847 8.568833637585254 7.305328025943498 -0.8894628542342101 -0.599633964826677 -0.6455451255364946
P 0.5909894567661921 2.331020737563263 3.7392598771872647 0.799912616678203 0.043027668514435576 -1.414474406459306
P 5.979941394801218 7.727133716967436 1.6231869557904817 0.16329050466295103 -0.05109630445518296 -0.31167709563087614
P 3.720827134655285 4.200034030927886 10.497902532540667 -0.21373760556990934 -0.6827243056899532 1.018098487827453
Ni 3.0665818124616235 8.37298748293136 0.7740123512939378 0.7606343879038707 -0.04366864453254415 0.3992483550836414
