# total energy = -340864.06829106656 ev
CRYSTAL
PRIMVEC
9.28552712601741 0.00000000000000 0.00000000000000

0.00000000000000 9.28552712601741 0.00000000000000

0.00000000000000 0.00000000000000 13.59030754439243

PRIMCOORD
 96 1
Ni 0.1665322121796697 4.596809417090856 9.517387517481142 -0.4478347486327771 -0.5310731850381435 -0.12709657124089724
Ni 5.433184688781298 6.752463076605688 7.1271108764406 0.21210624061407338 -0.45421802645130166 0.427182105379432
Ni 9.035681305774945 4.92387353391557 7.169131600236942 0.4760927150372058 -0.45113733064344885 0.35973512748036757
Ni 2.784311692657481 8.282708637420948 11.703674130503758 0.07004019254753745 -1.92115887824044 0.28446145444803267
Ni 7.400527861137022 6.104621144721877 5.671887730862123 -0.22090455563199374 0.15476498369044314 0.5323232553951607
Ni 7.06189397769494 4.721170479937104 12.64989904347574 -0.3739219605037109 0.11542581977118829 -0.40836702955545795
Ni 1.7674072054173684 1.345881422622754 4.173746879581014 3.4908775220194523 2.015458457555974 -2.6884799341358665
Ni 4.7293788857876295 5.987140657367981 5.0531884254057715 1.4610237149737546 -0.8514776332396884 0.02481294527862178
Ni 4.747987081856015 5.182633314273696 11.793559888777802 1.185931360445448 1.3176826568495372 -0.1987046224961868
Ni 7.9795083249354315 0.5060584347645526 0.36885548810464386 -0.48110739464297786 0.6241106098118026 0.28805328556434906
Ni 7.591234014257028 2.6900728793351063 5.324219958220972 -0.9629562954376707 -0.2923467707333804 -0.45409847015430177
Ni 2.1860544748481106 7.844645331074542 1.4950970555369891 -0.41493234147780156 -1.2204098538382917 1.3336134691471806
Ni 3.5646952366571236 3.4704749943887085 10.894547237736807 -1.7524016940359626 -2.608184125298592 -1.7483920586559372
Ni -0.17971487483350515 7.362615054476735 11.38594568250497 0.3276202492236938 0.6725807894980481 0.8859003336939323
Ni 7.234205501867105 4.028758018548181 8.423857004494758 1.633054684833497 0.08772115476706828 -1.8456417217387309
Ni 3.1238091301087256 6.423606853073789 7.9198878133007575 -2.082610015701807 0.08874651070778909 -1.2274515911764214
Ni 0.20880550230987413 0.8552174630387283 11.416347426390947 -0.10651103378006171 -1.890857399043421 -0.4098634115953264
Ni 2.944412748850642 6.5120700686144595 3.6889940864726034 -1.7188143449988207 -1.5459184560356214 -1.0555638317627627
Ni 6.3500283372824295 2.3504361589791585 12.845721521961854 1.2538727614824277 -0.7672549785441818 0.4664125116349645
Ni 3.7585213268424873 8.88545076476177 7.451457119518199 0.45288156702806526 -1.356572134825883 -0.8523613213962224
Ni 2.795593607938463 5.461254836842539 1.5533173097030442 0.37146141477836025 0.7718186866554643 -1.5512653221698316
Ni 0.309597112022199 4.091518895407569 0.5998533998972726 2.6331490227740457 -0.6794536053584814 -0.5413419139540031
Ni 2.0869129032801728 2.447785623839911 13.177121051333637 -0.1598619385973763 -1.8989687152966455 -0.5234773749687566
Ni 0.6361282395982472 1.4351060513758038 1.0846479778770939 -0.32453749653331204 1.3556529654457232 1.2389253961439761
P 2.3297015772323 3.6865584927456885 2.4782876514172756 0.03749876827640638 -2.5319773989290266 0.06042529516559271
P 4.691911784422393 6.943029946820989 2.3596984721419396 0.22363352452738258 -0.6720331445246942 -0.8421003057898466
P 7.156801348959891 0.9163942289952891 10.96626400536863 1.4602086752716272 -0.6058195248120987 1.0652450636062687
P 5.20039652738688 7.389013807681534 11.82065877071691 -3.3453042321306063 -1.2813671102479545 0.7056564890060943
P 6.779242536416676 0.2041098113159708 3.633789771469728 0.7516995473080861 -2.0032259200455242 -1.1005069721323564
P 7.622702665193034 7.084522806945765 13.837787224529846 -1.2341498291322037 0.5320214078840257 -0.10807632138465258
P 2.9430384908575675 6.946967010260607 5.745098539785065 0.03450446153477283 -0.5766431603584584 2.568934692879666
P 7.591382582688712 7.9676321359277145 6.844717572812387 0.08963971194601981 -2.289029747454064 -0.17076470155280912
Ni 4.09915159858532 7.807828216597922 -0.063304080187732 -0.27390887574316697 0.11257343792405773 1.6543542176422217
Ni 3.7049159795856075 1.6381433843255577 2.4118311348197548 -2.749800230311903 0.3221186026791743 0.04104997596277446
Ni 6.103701877550834 3.7740281568994747 3.302906517398045 2.418967901908814 0.379322819804308 -0.01442157474196871
Ni 8.757208351637786 2.5995854189127447 12.553489273945386 -1.134483071967485 -0.4328099930891707 1.5599741627977393
Ni 8.433041319230906 8.193493294194878 2.18771286996678 -0.8845006251329283 -0.6210165442675111 0.14738437495565584
Ni 1.193942344645217 8.347048053866976 7.414518364638138 -0.5291332877029532 -0.8300796271798866 -1.0271875946129148
Ni 6.914170528966428 7.309065420381737 10.889301843545674 1.2984302363778284 -0.42705046489757414 -1.6728623037487385
Ni 1.7128454488815246 8.55448672660536 5.045360726161436 0.4176880498460677 -0.6824013751328957 0.006206128810711893
Ni 1.6076218571415353 8.529118666895366 9.685159347512672 0.7863166231613232 0.3243302656185124 0.6313567498512546
Ni 4.44929024995591 6.861800156797919 9.513391955221547 1.9416274305074368 0.31013829038884655 2.640025695289221
Ni 7.510570641379752 0.7353283099861602 7.048436463442489 1.9950169018721708 1.2631624143144697 -1.8705405418629397
Ni 6.255473816042726 8.568628584196254 8.324362582901571 -1.7275938909636634 0.2969112501756112 1.8424224434704852
Ni 2.27246558892615 4.803170968699534 6.468076170334818 0.014635747635303828 1.6267030315838564 0.31871086254920594
Ni 0.932638329894507 5.10274992566276 3.3527289409631784 1.0476250365316602 0.997871876367933 -0.08662483637909597
Ni 1.8572911065860145 3.009179299537761 8.339896340986801 0.07179522756543119 0.7198970580855085 0.28538602314483114
Ni 7.707804519966862 4.844686559828151 1.4376642140588578 -2.8952400799466784 -0.13553338915434077 1.1350659410541484
Ni 8.616774041588757 8.352860793756602 4.912352052038497 -0.9747900548478051 0.41678507841582413 -0.2132264702614457
Ni 5.4195349641203565 1.5992091696974449 4.231722924387489 -1.2347936333637894 0.823274431332595 1.4831506287797813
Ni -0.0590067383012806 1.6704477326897853 9.214418414617432 0.7747320036475174 1.5432252254741745 -0.8501319178450715
Ni 5.540395383295057 5.871563703045033 0.4780839276312075 0.2600768549560811 0.8508639109150894 1.1560967935825186
Ni 3.734731806719133 8.53199718025924 3.537747708807792 0.8638621229469703 2.706979278491635 -0.6803318941983767
Ni -0.11259072884610569 4.710696405503402 11.816106076838501 1.1106124359974743 0.9685430454968287 0.10432431054138808
Ni 2.5453207992402684 4.442539671841281 12.589312837035123 -0.9096285305488075 2.9382726335571205 0.9280507418097371
Ni 9.069629192414673 3.217193674948919 2.866495106301421 0.14362413658227524 -1.2397409500667358 -0.907907691202959
P 6.953587590997513 4.848075777175936 10.42448600541652 1.3511702470840212 1.588557887972703 1.0163614505316885
P 4.267061782968855 8.974647536933881 9.716226863683133 -0.7413847956456394 0.22551634337239226 0.2516670336258311
P 3.634559541656389 0.6220913084622303 5.263539967957854 0.3657286260596411 0.6973435982650248 0.6643774277516493
P 0.9969684608135547 2.894800178195262 11.002060640430123 0.9499395714630285 0.39044592630066305 -0.6391633903798669
P 7.859400033446129 2.6277205656628477 1.1926321567883063 -0.979556365888197 -0.5627553466327727 -0.9111513949512372
P 2.408591414456352 0.4598109390868089 0.7097931107905221 1.764899312282341 0.4931676682416216 0.23251282929488343
P 2.193956458308288 0.8881457988160271 8.036234537810367 -1.807871444968493 0.5472629074241285 0.5478645455638693
P 8.687251191368718 2.765137079443302 7.277038709274218 0.22906780816907646 0.34184847700793386 1.2155648670411645
Ni 6.825939451600263 1.6029883791783994 8.994948484570761 -0.008121086445237628 -0.6851827945327748 -0.15608344539155056
Ni 0.5465572606888347 3.44652762030669 5.125407540047225 0.7783132932408725 0.22935859993661792 1.6837460405407776
Ni 3.999982170436441 1.710375498704783 8.893008255170981 -0.707806959690194 0.8289195454335143 0.36280322488273
Ni 2.7970978633092605 1.070732687144518 11.12972827943403 -1.6989587437254738 1.5250341563874446 -0.7296819053864143
Ni 5.806565014183408 1.5852623081731363 1.9057142012352266 2.846544157402872 1.7046221126588386 -1.0716324551898513
Ni 6.264852198292761 8.99583710950277 12.770852317920243 -0.09872701895926868 0.028476510173138056 -1.505052828169511
Ni 2.6640455472095157 2.8088254838852937 6.080358062722531 1.6463472881773453 -3.475799801750724 -0.59264982019936
Ni 4.151633397077591 1.1315436033380577 13.336345553779866 0.8415179509238153 -1.1427365702255285 0.4215842995766804
Ni 5.0217058461792945 1.2981259573634207 10.94575599048009 1.6671958494915804 0.29026443428305493 0.9810131529393814
Ni 0.08700074504128417 6.3189125363716725 1.1956425246352975 1.7378752182850132 0.8889764015160947 0.14293610937631512
Ni 4.625204558596406 3.843911032952701 1.6046486314024648 -0.8405265335448235 -0.44561280128079384 -1.5281521331911359
Ni 5.1922995478601175 1.4762687924791724 7.0134272410689205 0.49896653431158583 0.7360014198465389 -1.8936925544993708
Ni 3.926672934927509 3.863763489636437 4.071275518037965 -1.7629331896949059 -0.30941118241483484 -0.2697781414042451
Ni 1.6306963916874118 6.152144471806705 10.878511132641947 1.6352825457227516 -0.15607804607491185 -0.3500793495581584
Ni 5.8674966422276915 8.728376790364166 1.4815476145674344 0.057361568638604435 -2.193517378777351 0.9941550896379783
Ni 8.563428689087324 8.78818486964384 9.313220135897893 -1.085244132436015 -0.9946690531599192 0.03501868216703002
Ni 5.717154674890754 3.335426289988214 9.71148381650163 -3.7695470523760566 0.7054140339779851 1.7226098074855105
Ni 6.603467510680884 6.264527204848453 3.4466650461059976 -0.24556426316220287 0.18674102237640744 -0.9389681600531893
Ni 7.584975569072352 6.4382779857025545 8.754590761582058 0.5905823961473701 -0.06684996774501391 -0.5638781473833062
Ni 4.950606566091658 4.225954755027368 7.358852558944345 -0.4811544458308294 0.17217752273993575 0.3321140233289893
Ni 0.7210090988299444 6.263366513975924 5.684214267928382 -0.01895288695341897 1.585197199030586 -1.6489656996367987
Ni 0.7759617760516556 8.776197254312361 13.31846070026324 -0.19428592460320088 -1.5233824797166347 -0.6165405107740285
Ni 8.800581048162451 0.9239210771654651 3.0963202560364462 -0.6997660916635884 0.3509800069955568 0.8993747140312834
Ni 5.5017861621112525 8.4768225789427 5.422247266551283 1.1132352183323022 0.7116906110153163 -0.34736426461984043
P 3.630808188756375 4.615259759200577 9.140718258422632 0.3613389816323777 0.21480435627152686 -0.8003430193474023
P 8.26555826908846 4.6824312613755765 4.148522745539213 -1.7062701897852226 1.0787230434880453 0.8071896099555905
P 4.439234024236318 3.164600450132885 12.841413037443026 -0.5522891569941263 1.6492510920877015 0.8233667339360853
P 0.6599214739323938 6.640228911995622 8.862837720906812 -0.3850774628998981 0.32637146441825726 -0.13040352412694314
P 0.14469450982756 1.2781249322480008 5.192041410210067 -2.96248934001264 -1.1431446042972249 1.474028611873855
P 1.6013169843219575 6.274889852958392 13.26640975022285 0.3873832282149393 0.987482562713809 -1.0332327723657302
P 5.618839515224058 3.713653660474006 5.421092146994941 -0.3065464592725301 -0.31129965768679935 0.41559414343151657
P 0.736281005054332 7.229692735754713 3.4209933496637497 -0.1402621620885778 0.9866135298452945 -0.2955200262550394
