# total energy = -340897.0638420629 ev
CRYSTAL
PRIMVEC
9.01668178492569 0.00000000000000 0.00000000000000
0.00000000000000 9.01668178492569 0.00000000000000
0.00000000000000 0.00000000000000 13.19682521240594
PRIMCOORD
 96 1
Ni 6.191890556166953 1.9447179035758484 11.305284095549867 0.6646813321453133 -0.4354379176303211 1.2599613908786689
Ni 4.826891184177279 0.3572806013466749 5.849888721917874 -1.2515268869580705 -0.6841569243714216 -0.5384368244920662
Ni 2.7008928955337717 1.5618154995826548 4.737356436816754 0.5914959091005748 -0.36531442134035796 0.15516813266613277
Ni 3.4753176512010677 4.312083743966488 4.883894645724044 -0.3690072968109129 -0.06126038947237837 0.024265557415584015
Ni 5.020253922688887 4.530603024350208 2.787011222207793 0.5265814678153771 0.4009391125225031 -0.14005313140156528
Ni 7.347288145949081 6.2331869582365815 2.7612108892641176 -0.25708229110413144 -0.43132055302783784 -0.857283184177872
Ni 5.122917860235784 4.649307638596203 11.652875370769026 0.31350566419918263 -0.9374031295589147 -0.6810232638384465
Ni 5.720011537408893 7.763480138684866 12.448208909571532 -1.3885864829489505 0.7914832549639272 -0.7451979987441424
Ni 1.793472085166254 6.49630274618283 0.47015683255821333 0.789187516951215 0.012018364617114786 -1.001801293329326
Ni 2.755552019845144 1.692034416327102 0.17801724796962318 -0.4966985642130155 -0.05417674315271959 1.3119696656251598
Ni 0.5868155617322428 0.18532707180321434 4.7387558258126505 -0.4457143598556646 -0.6806807928973633 -0.2423426709011117
Ni 8.628333194866638 2.2055524710584247 1.141681413618739 0.16682859972319655 0.7900781470862844 0.4812122956519583
Ni 7.052424621826597 0.6600355252707614 4.642128556646893 -0.46922118472835317 -0.03755404699437403 0.039263059265680765
Ni 0.7155052492646794 7.263775640279016 2.452009939610866 -0.19661405851574523 0.33573619346260886 0.9575099276111186
Ni 7.472493787682455 3.984760165815475 3.7908537213988875 0.9486866728925339 -0.39348754134046426 0.18262237222234354
Ni 7.494683841283624 3.7457820347121085 12.657312069282476 0.25375785471658874 0.3051174401354874 -0.06834146468887584
Ni 7.9539395056972575 8.872315584299404 6.894100708302449 0.08572160783853625 -0.5430121025675745 -0.004674265547217757
Ni 6.720475485976518 0.7582271887070605 0.461825418690891 -0.23601467180055483 -0.09500251891982993 -1.38581380529982
Ni 1.86172836544291 6.408182716177049 9.213944127927155 0.36395096533392807 0.728301737209436 0.2043199118004352
Ni 0.109389480407974 4.888718570419949 1.5429994882641176 -0.4031240359889638 -0.7712692419098975 -0.2820741851627787
Ni 6.293770042408161 1.893629385207614 6.820594014286677 1.7814973258503384 0.9461178837240932 0.6126303770863449
Ni 3.3601024927631404 4.36654450128102 0.37914875941206116 0.13359503448104734 -0.776326858938463 0.285799713643482
Ni 6.016056246830749 5.795147545803263 4.957743973643448 -0.7811160527969903 -0.6620423518605695 -1.2045209505221772
Ni 5.499490553693414 2.725219902691819 9.255157576525377 -0.5029702561543402 0.47576567071509035 -1.2786335133668754
P 0.1996915473790057 5.483945794486419 12.452814630570913 0.36592737233400846 -0.1356190068896116 0.20289834886256022
P 3.95707895307448 6.164083109882514 12.615161787458264 -0.8192020610354342 1.3322399858384217 0.37407751224496866
P 2.310488612387318 8.502171784875756 1.4093416091289812 -0.08363027252714629 -0.3033626622279098 -1.0839338982650235
P 6.330116286238439 7.767817162570344 5.788206504250162 0.5724818298919173 0.0015447187793005655 -0.3335037045876644
P 4.589184405190028 0.9530001362325766 12.423965757553058 0.5834506701985951 0.4666161430053384 0.45849377100852
P 4.018428455188399 6.0834739757116685 8.200269839038086 -0.4062430412339197 -0.4671103090329374 0.8020196357188767
P 4.615098348322802 1.109051845974728 3.6051876223647086 0.7857293831992855 -0.8364302519882627 0.6997882031507755
P 0.2791844163585374 5.48581224759306 3.7315212509755744 -0.22334658941458307 0.3740713415973816 -0.3995481457122474
Ni 1.5485699942026803 1.2086410950705886 2.4524057719363803 -0.5442799135364046 0.21235229518660845 0.24163201798733228
Ni 1.9931825675767765 6.2114477387191425 4.88114906615413 -0.7903941356648064 0.8411819077406352 -0.217511985010677
Ni 6.003865693206701 5.547666683880756 9.269885424372655 -0.664580544901391 0.27428322836345015 0.22149899468288303
Ni 8.608433378410815 2.441996914611232 10.085132304653495 -0.4543077579516305 0.10229082505112708 0.7091722154688367
Ni 2.2159036216208556 5.221884958296098 7.132277256404945 0.39932703084037674 -1.0870963551534052 -0.5382095389726086
Ni 0.43381419540060573 9.308371326764313 9.254471407049941 -0.10986195253016563 -0.8677635148839054 -0.3055218746627577
Ni 1.3541883706618412 1.2200562140706213 11.433306548638384 0.31163878619377294 0.2638957144815391 -1.574114201743547
Ni 4.1006966587873706 6.9780099479661954 1.581309565363121 -0.9197069978307323 -0.0012120180302301708 0.5177237603144309
Ni 5.599142919560997 7.716052393076515 7.873424145015827 0.22655146950512595 1.0501071795235657 1.2002233515880878
Ni 5.280917173219647 2.850082910521559 4.769477463614318 0.40878946180485726 -0.3626325036328206 -0.14799269796361608
Ni 0.9809157826971112 7.450303734081286 7.003541583795967 -1.1966122371980616 -0.21890603714472623 0.529438734758514
Ni 4.898582820171953 4.485961433379306 6.896964406402299 0.9271341435327387 0.4432640985429591 0.5024290389388896
Ni 8.107033743850142 7.173121922722676 9.019818578145875 0.1738474542431909 0.7084080836093026 0.7594475666846211
Ni 4.636179350077998 0.12402806310667294 10.335648181627668 -0.5892130266036691 0.47636293797945706 -0.2936351505275007
Ni 8.288503479232967 7.1319247041514675 4.8649569092029 0.028726164290098916 0.3942298188231275 0.2669614978910564
Ni 7.053281206585684 6.029193552030629 7.1111087928375065 0.968321673514642 -0.25450913106031653 -0.6545786964936727
Ni 2.539945127642317 5.23585179821004 2.5015376703812287 -0.8445963327388228 -0.3475640393354724 0.7304182693318066
Ni 2.4473167567992413 5.116894716877157 11.368127661817267 -1.0757130530171282 -0.2446085841171529 -0.20097567791855064
Ni 1.2040245540531982 3.4215782284205036 3.8448952030155508 -0.4925770858454742 0.09007294282869649 -0.14745019519658475
Ni 3.5397688918110464 2.650561778426203 2.5716126153516496 0.17634708073659308 0.6747335741749927 -0.046717458661196955
Ni 0.8813130085787386 3.236817404226454 8.095024425527754 0.7525593242052201 0.5196777987170083 -0.5730708696261678
Ni 3.823036963300006 2.4584703920307107 7.041825512518114 -0.48718959628131575 -0.07151086355579296 -0.7079257446562454
Ni 4.021935944359815 6.847060680006106 6.165899971239944 0.28647462822331954 0.020048176900126762 -1.5329562394479985
Ni 0.8811669383356102 7.237753496966145 11.35073448286698 0.15667454200833017 0.39289181673799434 -0.23968646422518722
P 0.13255874563900377 5.595500180164462 8.00767532180515 0.3370744526580582 -0.35232597950049 -0.34576683822573356
P 8.34439788893376 1.6647319042164395 7.949278782939661 -0.040908051068271487 0.32357333284782985 -0.2982435958337896
P 1.7853931383858201 3.179435242049355 10.109388080026314 -0.2890614151138893 0.5057424195828386 1.4200902099841866
P 3.965013632948121 6.2934815085945734 3.847442415588622 0.894179285873273 -0.7405309322857763 -0.21620303639126637
P 6.8775280473845495 3.9107512426304303 10.521577567766746 0.2575941977435434 1.0337325948202842 -0.8424139803755234
P 6.241851989325864 7.6175631791449545 10.217100457642813 0.5538323331115301 -0.43680754428433805 -0.008722467474662396
P 2.333201633525614 8.3826376359157 5.702665245203315 1.2865018603713585 0.6705167078801678 0.47961641191974824
P 6.900827152831694 4.044225181459405 1.5909033146648863 -0.35910932097091053 0.37053530341966506 -0.09774948553734777
Ni 5.084407612803605 2.6792077761063795 0.5869580253027014 0.3434294483418085 0.6252861181771425 -0.6856587057279289
Ni 1.5700206799065328 1.0302550648204747 7.017503915369073 -0.488841530062442 0.0013488007184105804 -0.2115886775477066
Ni 6.9360192614076235 0.5622351858191396 9.314966127741108 -0.6268172101096883 -0.15313259029334272 -0.5655894736474582
Ni 2.8694597594402556 1.6121195666451995 9.063077911816062 -0.09226403694274433 -0.8928932200719977 0.8065584041294949
Ni 6.430544086730036 2.1140061020162997 2.509468743582199 0.1668180582002353 -0.6534304418218424 0.8944410241750919
Ni 3.965536600485247 6.806224128701881 10.537810299785512 0.5002114624622805 0.2925277763959349 -0.8113329427000027
Ni 8.19357585456287 7.1911282360268345 0.439168300978978 -0.1473758903152236 -0.4900082966770335 -0.21407981940067644
Ni 7.571397768971047 3.890355508682505 8.171368669266519 -0.3780421533196715 -0.4719578669332259 -0.03749028363597414
Ni 2.9236860830312477 8.492803452615856 12.350776450732234 0.45496853146408095 -0.9462402682345704 -0.302093308597183
Ni 0.07068717765612584 4.889998939217742 10.13030497817503 0.1405177297428096 -0.4974979201858593 0.3666719638095169
Ni 8.657024275955187 2.3069360398075296 5.671032020884346 0.21936780727249314 0.5295366937889591 0.6189262373973857
Ni 3.603859465154041 2.760754645171383 11.36463099266386 0.15538564799357754 -0.2821304923220109 -0.0333340953757555
Ni 1.1299074306880577 3.411975462437064 12.547475361463443 -0.806334975264779 0.3009807922592946 -0.15170151427377102
Ni 3.2224177635921314 8.26185918488455 7.913410423238137 -0.48531654762831905 0.7130900624660041 1.04399361042666
Ni 5.718704118566078 7.895042540998827 3.539612903218076 -1.3470081452865317 0.6651022217328159 0.2749496583028555
Ni 2.796054953927408 8.26105670021551 3.5486530282650213 1.122280616364022 0.10197226536944375 0.08968650602355521
Ni 3.5980256721105803 4.141461076638198 9.31966381889357 -0.08913731838830455 1.00341620322493 -0.7578527113936755
Ni 7.376384977712987 6.129657419248924 11.479469253807789 -0.5717184693633315 -0.9895790402315215 -0.14300218672756015
Ni 0.5462792659277828 9.153013901511105 0.15304644974001008 0.13429591720281386 -0.6765891393264928 0.8339599360708992
Ni 4.484284330587832 0.3101900796329545 1.5175165425153878 -0.031548978450874704 0.5164132690331236 0.1357683879832823
Ni 5.788339951138946 5.75560939666018 0.5722040290785677 1.6122917412545328 -1.7155315604824908 0.07457587563436188
Ni 7.915844025622109 8.550771699101803 11.455978994709143 -0.09032465382818639 0.80742872254959 -0.23143399440840787
Ni -0.0463502521482365 4.877492801735084 5.8720327904425025 0.22524766309203786 -0.6787036145663343 0.14818655914197706
Ni 7.864998957659089 8.866941642021347 2.354828144522121 0.826717395575873 0.13983535896380433 0.607492027418515
P 8.636258858058603 1.6738748194344752 3.464654523452696 -0.874872615124861 0.5916995404709487 -0.15107596487463013
P 1.7318610992837717 3.301476028514948 1.505441402416775 -0.001812370618390427 -0.30916204251850626 0.02157438373666607
P 4.9074913016664485 0.9099454812364032 8.174548852893148 -0.4765580847093986 -0.6154873869191657 0.08789367578919056
P 8.251571151093842 1.5756470892714776 12.14448379069926 0.45123014746757123 0.03926845858231947 0.8099147221962375
P 6.256350813458607 7.734058706380674 1.371110878828714 0.29053671410783516 0.29831275850882816 0.7692717518638945
P 1.9223835830678857 3.114614317490718 6.098134198446386 -0.3627505172679236 0.5811269071614249 -0.3433885678015441
P 6.910736485992069 3.922049144768693 5.961902958361321 -0.6398110512661949 0.3194953061237143 0.14090030989320895
P 2.2645305858919267 8.599443746781247 10.043707865704087 0.9827918421063591 -0.8259926015947066 0.5208340238086384
