# total energy = -340866.48357118556 ev
CRYSTAL
PRIMVEC
9.38292176471855 0.00000000000000 0.00000000000000

0.00000000000000 9.38292176471855 0.00000000000000

0.00000000000000 0.00000000000000 13.73285444293486

PRIMCOORD
 96 1
Ni 6.342592223184107 4.5547891233204245 6.578187999535687 0.3003850676568246 0.19792583534863334 0.45785485187294045
Ni 3.465150447638044 8.52352096873573 5.835158197832273 -0.08958546166931669 0.4669015354562411 0.03629060690091814
Ni 5.059674747188446 2.037923638722421 12.246807785083845 -0.9893327285486704 -0.298980216889498 -0.001169080607436696
Ni 1.3754236992243938 4.470783826985418 13.22130487767169 -0.09592168829998964 0.6904790099347077 0.9001429596558755
Ni 1.5593571097074879 1.602011870920371 9.508175073864914 0.5001988640567901 0.3705602431203296 -0.3728091870555063
Ni 7.899903856001053 3.876788597477549 12.973866916074446 0.16209545591358537 -0.5602593196837964 1.149996851332368
Ni 7.2079884575495745 9.190252605837586 9.479130240311356 0.6453003565155402 0.1345432573269296 -1.2673445707166173
Ni 4.712788138732597 1.0515252484833641 2.0893852100704584 0.09178298354126774 2.201127072803809 2.9612649806872353
Ni 1.5508749486567956 6.25112750424368 5.87380269838911 0.6632757100470383 2.193210389059894 0.7629614933751505
Ni 3.327137055055488 6.185550265766593 13.161539420781766 -1.1797198323180973 -0.6704035793410712 -0.28323118158535737
Ni 2.344989128263294 7.906152881730876 3.5829567804431983 -1.5455903832722413 -1.1909910343565422 0.8428346128527097
Ni 8.90630663491276 7.877140888402624 2.0999456882370002 0.35383264595300357 0.7402493964896154 -0.347017422803383
Ni 1.1599542895251758 8.752689443848677 6.2646257751369605 -0.33928405871486733 -0.07791805263371741 0.03124918782226876
Ni 3.836104249783079 1.96744851521385 5.44022915462891 -0.4978694445926652 -0.23871844388496308 1.539439276069181
Ni 5.341096712225401 1.953918342387414 8.107877249700936 0.5836815552624786 -0.8674243863769319 -1.063440149187046
Ni 8.904411284766477 6.7280989366008495 10.187017247767798 -0.5259564326368684 0.5338255509723 -1.9196344711761135
Ni 3.1512354253903063 5.439833195340924 4.282466715569931 -0.6917794739136861 -0.1295918268589252 -1.0903925094061737
Ni 4.656847160652701 8.077475645696127 12.720399489110862 -0.3096104429098345 0.9400778481776003 0.14431859154613857
Ni 3.1292137085916623 0.5467118731110185 11.165044195430054 -0.5466134467655875 -0.0634856792584713 1.3384368586777529
Ni 7.591627969584582 4.1595710861343616 4.377772802579112 -2.839390834187542 2.5659601836323747 -0.5687046222376722
Ni 3.5776329107748768 4.575534762792858 1.4486517719058336 -1.0193575570455349 0.8760638072194847 -0.2548446600228643
Ni 8.306512759907847 3.743279007222795 1.7068979207976458 -0.9565118253639077 0.16529905045254756 0.2332242535396112
Ni 5.4962996170257306 0.3214785952819883 5.936534096770317 1.6140218365717625 -0.9152793010766817 0.21786551169535381
Ni 8.029566448434142 0.5961232761077548 5.394018266161367 -0.8097686835366764 0.5768457632875679 0.46579878931036556
P 2.9850263536514126 0.5695208170248763 3.775230669862089 0.4738417142195 0.21659024452735604 0.5205979965384324
P 6.809824183007407 5.895880712716852 8.935556016155372 -0.9756421184354551 0.37944006210846265 1.2370580039179342
P 2.4674174882073543 1.1217188843464476 7.3948127461518265 -0.07215749600085637 0.14871234973846 -0.5391207379329683
P 0.44947384256164097 7.428458964416954 8.046903272519723 0.5201943333421106 0.08195828414136208 0.20418415755351932
P 8.76036467364897 3.8517174311861226 6.145053576502448 0.519195716874267 -0.6371435317363607 0.3109319899347355
P 9.078520776422055 5.814746590365818 0.26219072909724483 0.371218959750251 -1.1543170759742765 1.3981219332432115
P 9.70860272208143 3.947507676945542 10.573007181642629 -2.6308689684906175 -2.1153794968233437 2.8918590792895875
P 0.9283659589531879 3.4071076951385066 2.353688034801012 0.017328206865802415 -0.46083270355434186 0.2559651467805527
Ni 2.8038046074865157 7.463560473809254 7.903161606351496 -1.232978948752554 -0.9204469613205504 0.46776259790495567
Ni 3.9664330296438237 3.0915318957823925 10.145338310392606 0.22248526985555228 -1.2127546512858791 1.7048514550608251
Ni 5.503242978947757 5.373327047633728 12.822214508775867 0.37901351609400535 -0.5399494044818507 -0.22558473471648244
Ni 6.029784385675288 7.588888156501837 10.74447538089138 0.64352449556204 -1.3819260402096392 -0.15805496729562457
Ni 5.8691112376309835 6.826131700602654 1.055110462794724 -1.0118975012230638 -0.8146334678281455 0.15246770301583418
Ni 8.50408893827557 2.315273415821323 9.028582053236105 0.24070487818737252 0.8067478944324816 -0.6213870402330524
Ni 1.9758743787354442 2.7243594110084075 11.759676525308878 0.0998099676108023 0.030243115155257592 -0.22571328987454675
Ni 1.6344861622881202 0.5579216494464851 13.220811335999933 1.498745912114877 -0.03971968718712514 -0.8242046564563483
Ni 5.523200453012826 5.817373808390368 3.8083401850164886 0.6867372835040882 -0.10514834910458021 -0.35331431155568827
Ni 1.1514345967884188 5.547211349172915 2.3098247532968355 0.6661715435375947 0.39679629399872307 -0.6284496035067886
Ni -0.14127583439375618 2.1494771926291447 0.3286518387811632 2.5269444644908092 -0.4963730625527968 -0.7708727778024272
Ni 1.8488202384838717 4.244111208995794 6.786584562995954 -0.3015140390549452 -0.2633807225183335 -2.836521740169863
Ni 1.3833710337486598 7.123992544136084 0.7137241229317033 0.6660013365083175 1.542350279068389 -1.7616196130898045
Ni 9.056151891527309 1.8002823854802987 11.177581655160072 -0.05446290693457071 -0.10552938659308277 1.701348069893257
Ni 0.6123407176564454 0.43818994114619597 4.14295487042123 1.25214986525405 -0.6529321620291851 -1.1317929267298314
Ni 1.1729965504327664 3.905434656866667 8.801990128371521 0.5440665119740179 -0.27341290994335493 -0.321951995194323
Ni 2.3110135694529443 2.117884895883923 1.3015932429816108 0.6012558167008161 -0.32364275263318454 -0.21483880905388805
Ni 2.430814711372454 2.710360092106159 3.787631138937968 -1.2796419000267316 0.12961856633180258 -0.452885166572491
Ni 5.275406878690119 3.1748710046897455 0.5370887488039502 0.19337626830473792 -0.3907683426370883 0.22940025180783072
Ni 7.2605703497266525 5.0399987607688645 11.187963857817804 -0.30099647598857837 0.5550785468138053 -2.528095547376117
Ni 8.24779443705914 6.810452838748997 12.384123088305591 -0.6989155707378351 0.10916749756630231 -0.05483854510643459
Ni 8.812899651218467 9.000229679290445 13.152559026598562 -0.570953823283165 0.6373862438747862 0.7155904602903547
Ni 3.594240681858643 7.1750356371844966 10.423222914017934 -0.7910392254479731 0.8775833291878047 0.32381373099341004
Ni 5.079435179901672 8.192116180781698 7.874075487943265 0.9962698219881359 -0.1196758532967939 0.2720666803281056
P 6.913955845994776 2.733986288484082 11.19966436094857 0.12483425756928179 0.4718676212122648 -0.08850097035588629
P 8.81063836713305 8.915886597780853 10.955919517260126 0.1091862666193797 -0.6361960802214269 -0.3015454065135129
P 7.337454008630823 1.0502491711571538 7.523379413351819 -0.753071230844632 -0.35364829785633933 -0.15782382512142495
P 0.7175964546414606 0.03823446688657655 1.2993488481549234 0.33649132646107854 0.5077404238494738 0.49921310310475314
P 3.432253924802063 9.215624025617533 9.142853839506087 0.4589627402251386 0.05383915730764276 -0.7121868339254445
P 3.664753337053279 6.588302788930207 2.289705892981687 0.19899772825657341 -1.0399279249977187 0.5307710804166923
P 4.102644901295259 0.6682770042755836 13.973453940796748 -0.4503459450904051 1.139208245357296 -3.6705778354989946
P 6.563137793423619 1.0088423385059324 3.5460837754686296 0.09100033973897231 -0.45628467917234317 0.5403566672225983
Ni 7.127079525314931 1.4822294948438939 0.2173178452379198 -1.6506400020154282 0.2018755640250007 -0.23024794452010666
Ni 1.3909242855692427 8.598415448278455 9.89560622448464 -0.5206887564800259 -1.35387067673432 0.475681081421084
Ni 3.330252184998884 3.104180073986301 8.032030403624312 0.33365874210828983 -0.33545851432119 -0.9901680799657723
Ni 0.5149778942509016 4.66260827446368 4.302832346720956 1.17605832430611 -0.6886774379495946 0.8185330599928679
Ni 8.486008048513753 4.876867287287301 8.059359100832548 0.4265113045646526 0.43417164932338775 -0.04508326549188365
Ni 1.5126583093211001 5.527141280049652 10.783544927792905 1.908183034806062 1.6341209213144825 0.3513361047833949
Ni 4.744915262004245 8.256999083066583 3.8440459545544345 1.1106947112986356 0.2424588847640018 -0.5146759746270427
Ni 8.807617066404818 2.5011021764506998 4.051782898632109 1.70709654234126 -1.7282078703985786 -0.23432340014106096
Ni 4.675265835589104 5.22192422604748 9.684601208842855 1.6057086887203766 0.58459198289189 -0.27886210598338423
Ni 6.734235367272479 0.45889992551686803 11.773134449639638 1.6290008264790976 -0.23763883766753913 0.2793868681386027
Ni 8.107820013879687 8.113477915553988 6.914451264250834 -1.502448814887761 -0.155140621862307 -0.1682887292084908
Ni 6.627082403556878 3.642215559571241 9.109908525478222 -1.1616511477418445 0.17233204603992902 0.738097126033303
Ni 7.990871280101119 5.886779278846086 2.680103923384852 -0.8708393255957518 -0.3835988214718426 -0.02377550515304292
Ni 6.1720576246262215 2.5174941403395925 5.179071485190604 0.27563614284691884 -0.6528311176749466 -0.1939794491063756
Ni 7.6081419114531865 7.998358851471088 4.013577518802233 -0.7270125860843673 -0.26487684744788575 1.2686080108100732
Ni 4.626371431567914 3.3622291815262724 3.1548075036115435 1.3445154607716652 -0.026147862039961417 0.14354828903901728
Ni 4.350898238772262 6.0468800686779 6.437591488659708 -0.47381343208472587 0.22167177281532144 -0.08181147415085266
Ni 6.377740647183989 8.870266833368834 1.7938682203317884 1.3938351329423995 0.505429002107478 0.22829159212468425
Ni -0.05003536727756708 0.345845104167544 8.139173984418397 0.7137384946832804 -0.5418980435677894 0.1161326160302258
Ni 0.5717858542788996 1.8493362991672655 6.291789332926511 0.3451991386477216 1.1265301356689954 -0.01870914637372907
Ni 8.50827372127182 6.012144493224734 5.754478208882626 -1.1306513569262207 0.9487290960946951 0.12704052119198123
Ni 3.378874484296104 8.559354346006298 1.5879027718363823 -0.21841084267586255 -0.16586032227265626 -0.8439427583152241
Ni 8.362969798671136 1.1340949578263844 2.229749024492835 -0.3391547322258546 -0.8833161179065239 0.2516256388649344
Ni 5.1688825707161055 0.762505931894699 10.197893930389439 -0.4571727382042513 -0.137527279655918 -1.7254213087923769
P 4.556853366054 4.10183797004486 5.215202301073238 0.7565316785894067 -0.10139685248194794 0.5569636796516602
P 2.8620537842594103 5.340421141876231 8.586810650947156 -0.09692801807731695 0.12521195262367468 -0.22067804144348446
P 2.464696440967641 8.055500843505063 12.23216855093419 -0.29770160728739054 -0.7334107763012273 -0.09418233701137972
P 6.1667844227340884 7.319410650555072 5.874942723353334 -0.383345824920772 0.14091213696775087 -0.5329488047943015
P 6.2099177129443 4.761494884323463 1.5997130551488892 0.0202320107761587 -0.07370375744205371 0.826517363749925
P 3.8436856503682106 3.9543196779663417 12.221704716859264 -0.2492378553590482 0.6325741671981234 0.6357515364848406
P 0.4073220059420291 6.941954483799273 4.170077143356109 -0.9592634199671157 0.3623915912666081 -0.9561287309928759
P 6.728521168069082 8.180293699671221 13.180065061023457 0.5000553965003904 -0.09976240220231851 1.0461443382210758
