# total energy = -381173.00653473474 ev
CRYSTAL
PRIMVEC
9.16488564943488 0.00000000000000 0.00000000000000
0.00000000000000 9.16488564943488 0.00000000000000
0.00000000000000 0.00000000000000 13.41373654878440
PRIMCOORD
 96 1
Ni 7.831504800262289 5.624242895701125 10.928425987401042 0.8730083082226127 -0.3659571971306794 0.016526794010429603
Ni 4.638247833687463 3.784327939344448 4.780414456990762 0.27311080532190385 0.4297087284560277 0.14283197969828304
Ni 8.250871639640087 8.216549142733102 5.991754811848023 0.7142097778927441 0.3494525146074368 -0.1753078408388013
Ni 7.163329644187333 0.8980378210748834 6.255818080775266 -1.1438136053397916 0.20126415569324693 0.5018004042159551
Ni 5.8778169529567945 9.095901594864337 0.009017331029848693 0.014411547439639696 0.19850099112581296 2.0897003468896846
Ni 2.5576996386686184 4.968275367364515 6.221827352730238 0.5051562080620654 0.33760589968149596 -0.5335512142649909
Ni 4.709688117636716 7.021503038143113 1.1979101313679419 0.8941983120366664 0.5854134503519208 -0.15773049407667028
Ni 4.117114103614024 8.951609634569655 6.5476335400587296 -0.688518286663911 1.2309925144501446 1.419762908551755
Ni 1.949792770887478 0.9801936893722406 3.6065511526947955 0.11511574472993723 -0.3046003912897528 0.3490516796245924
Ni 1.957711232123162 5.1851807169767 8.461948121953784 -0.03542183114271964 -1.4621411164076497 0.4319658999213206
Ni 1.5574715091792428 8.854122745490987 5.828818724595294 1.572564340757924 0.027284546747565912 -2.418690479877712
Ni 0.9399323465384919 4.16324097328902 1.5783537012226518 1.320305953404997 -0.42488842424924894 0.6419856903200104
Ni 0.10707519248696842 2.4357150101420544 3.1047296697461637 -0.1303050508758659 -1.4204478504339215 -1.1832131901833363
Ni 4.729016861555764 2.1684394487806586 12.358678801836477 -0.3735049275709503 0.6455749503331656 -1.0827018256301353
Ni 8.30389050335355 2.4414613934693388 7.369251794789283 0.6149970775463086 0.705347699516424 2.182586590797461
Ni 5.8704483848624776 6.637292700270039 9.967801161952913 -1.597340262151023 -0.7689051125530951 0.12174019202499035
Ni 5.796157821463805 7.790794378029757 5.49128881549286 0.24203593829397027 1.431532133272541 -2.016782061463404
Ni 4.469962202657804 6.461739314888646 3.6364506757680535 -0.48084154257610096 -0.5694114184967096 0.37873840805574777
Ni 7.2052773259879395 4.333662022684321 12.824484117002713 0.8090706290283871 0.16090837758401966 -0.8123909516508717
Ni 7.747655261089521 0.23096428425979967 12.08581724264736 1.190896417760207 0.08389252504959746 -0.18529374840691962
Ni 0.13918253652281448 4.572700571236525 6.762133107177435 0.4126988241615924 -0.08188500770126543 0.3150066742247413
Ni -0.018875998565988785 6.467953107386093 2.493948693812812 0.189797292704228 0.17712921031825624 -0.562834022389508
Ni 2.5813633735187755 5.99279044393093 1.6300372410911605 -0.0996544158695445 0.2737713217240381 0.4413694526234076
Ni 8.737059660579657 2.113111033873456 0.30930756011034605 -0.6356000985086409 0.6882508919351372 0.8240305927723292
P 0.11693844246595325 4.087887283150372 9.284358222807903 -1.5757085428138606 1.478067557829919 -1.9613272229292091
Ni 3.1308257652583 3.935493563906217 11.117425176577424 1.02600642982062 0.18839989813606908 0.03523414061194577
P 0.030693202173964092 1.9807517547464364 11.665121494844593 -0.33161702908791274 0.3851304276250206 -1.6165811126585061
Ni 1.7320809113346214 2.6396337167322907 7.363658465053012 -1.6248158418634728 0.11640618140658662 -0.3008123850022303
P 6.104748687513236 2.164361074648854 10.467797916160777 -1.1240418220295028 -1.3351083085251523 3.93182788482757
P 8.526643050035602 8.090147039304224 8.211420472701286 -0.24371461154797383 -0.6340900896220175 1.2470860775778974
P 1.5299676872252068 7.558042941060514 0.5097848521241942 -1.0694891835946034 -0.222580657782836 -0.5230127766275121
Ni 1.9654189009879885 1.6750203330321134 1.178421918437898 1.047406492762951 1.8569406916913178 1.382788902430567
Ni 0.5344603903544662 0.0003171050448549291 1.82638758507905 -1.0909692078452502 -0.624477506232918 0.21116727373957178
Ni 4.016162887744746 6.854124730796708 7.675205923225859 -0.5801326615689557 -1.5184616453762494 -0.5826214894290804
Ni 9.081815165559654 4.555543905225877 4.0138725828109525 0.06596345137500254 1.0845499345824676 -0.006136194804724916
Ni 6.457266850672196 7.602272679397795 7.607935662265304 -0.08042744931913245 -0.06505148108369442 0.5225592340298614
Ni 1.0676083690782032 4.726872278304433 11.011886018932008 -1.0211760983115121 1.0111354262460586 0.6953095985541315
Ni 6.69131053652365 3.434742539606112 9.107497924727197 1.292455249741316 2.687468976372849 -2.6920743363553443
Ni 5.494715566252144 5.660196742260832 5.910346798222924 -2.3657928605477325 -1.1582174394699474 0.5152022794441579
Ni 1.8374862616489724 7.47381764157448 3.6703873309875137 1.2159921843865704 0.6812891159053234 -0.6344916959358106
Ni 6.828930460036414 7.079434280586119 3.203535385875542 0.28403310866136244 0.9306537266502231 0.6017229861452217
Ni 5.396559640518147 4.521945434288357 10.791109421604599 0.36153387125200315 -0.6870309034851071 0.6479766177961227
Ni 7.704323681549807 7.974238729989764 0.9352710856768381 0.9615632717448858 -0.43202914905908824 0.15891422997212631
Ni 3.7791772735869777 3.346722977444646 7.69410575049464 0.3009435112634559 1.5887730893073024 0.006371707854298704
Ni 6.913054945779865 8.533370076131657 9.703201747212834 3.2767431952317563 -1.5564653783135323 0.6829590474085786
Ni 3.293676619074116 2.038334731533243 5.672320053050835 -3.207150374634283 0.7475467014819771 0.4993262316438497
Ni 4.097592897095498 2.362680036082837 9.744020315096503 -0.033630286459935634 -0.5412781505956034 -0.4566045244056072
Ni 7.667132575422024 6.039613844918324 5.758490141280171 -0.6646782468215198 -1.2016757677638983 -0.5485667138372166
Ni 5.575852299260834 2.4256061412265923 6.881595559162263 0.8230787703820212 1.0509312180867578 -0.3377712216147667
Ni 4.446353457121783 1.4526252168919482 1.5325466860582175 0.6102289667337039 -1.1582264383310117 0.3647621483813137
Ni 7.114370824834297 0.333618335890178 4.070304449955164 0.2966752229054052 -0.15669871037804628 -0.9127472786834474
Ni 8.003117284797218 1.425194714023428 9.707467085012706 2.1038748386178536 0.9996811616625298 0.97378423929111
Ni 0.6120585609984603 -0.18514077230112452 10.06522572980889 -0.05633852669072877 1.3147965935509938 -0.7804496228575848
Ni 1.6788054308218556 3.3964149876528373 12.843263884268962 -0.4912426833047669 -0.29801013966674483 0.41288831446457924
Ni 1.2128993019130354 7.257398030903835 7.4812705266171395 0.3815190561246784 -0.6192993044660883 0.5175612665946377
Ni 4.786389045971713 4.499931378862302 2.1924212051642393 -0.23243183954530294 0.958678236887607 -0.660361878834353
P 2.655598947603311 0.7063249092458552 8.930208709996222 -0.3732573303365184 0.08246710545698055 -0.3470755297348281
Ni 3.173149207372175 6.480316538181159 10.114466827641161 0.46544423418442427 -0.6262014309025603 -0.5694612978980387
P 6.836628964015551 4.925310383252379 3.457659336272579 -0.3010070175115397 -0.808706046600117 0.3391801861471514
Ni 7.910588598876543 3.7341501901947156 1.7998552410080957 -0.6804432229652604 0.2140847044966829 0.5263631811569838
P 6.754044179067928 4.3776443091079855 7.021889796319207 0.6330883878303807 -0.35186420937272306 0.43182988856408855
P 1.7428679817911028 3.3683979321001924 4.6340439006217125 -0.3099117762003372 -2.0166059408968557 0.878267499739023
P 3.520700002487453 3.2202383900445626 0.6204105213272552 0.4759729016298899 1.0737322751416734 0.07196774858755348
Ni 7.883414712807327 5.707716674560625 8.570411794622704 0.020708179081628853 0.09871570610535903 -0.8606464442231501
Ni 0.3096475773694246 1.7873543369276874 5.295381135483771 0.6784171936741671 -0.5144620588440236 1.3958963863468026
Ni 6.875964653394665 5.6817067289739684 1.2831793113340049 -0.4984528278999609 0.2640106427928485 0.03353027054696161
Ni 7.658306790503084 3.2478796852839404 5.364421135870957 -1.9068450327209288 0.28307434429251893 -1.3600418385420385
Ni 3.9127371527393153 8.725337771782852 4.063530682942093 0.03112963152526897 0.9761059454457514 -1.1699213581704369
Ni 4.686400143099827 5.149181045988544 13.154288027468942 1.5934784652027718 -1.879054749981538 0.05550214683236247
Ni 5.5498240239028 0.0917551695684858 11.264722302889675 -1.9584483587195178 0.18683383920052984 -0.4403492388890094
Ni 3.357189276901997 2.8639717886386187 3.021631651199931 -0.9788966208170108 0.041539514004683295 0.42843268995708145
Ni 2.4064423652499554 8.125734290436354 11.347457391962607 -0.2489465493708745 -0.06351858937893577 0.7320457776329006
Ni 7.21475381779083 0.938832560255758 1.8066555861896665 -0.05366817894741725 0.9083175250468679 -0.36605078528575025
Ni 1.1554904579543281 2.3379440096070145 9.652484186295995 0.4137501482442423 -0.48367027027414766 1.19818035301613
Ni 6.072671587600166 1.0386931547279923 8.6903444052434 -1.830173708010119 0.6134760129160919 -2.906093220611098
Ni 2.38674702590333 5.107709938243788 3.846657410429821 0.462894471179377 1.0314836508851075 -1.209335598302001
Ni 0.7670138657928163 6.712188146124214 9.763965855822448 -0.8637140274048801 -0.05982314280521954 0.19091083748338092
Ni 6.070398695949183 2.857290586971011 0.6197616474204422 0.11123003652228586 0.07083723452753607 0.6886044186198141
Ni 9.188714392241385 5.69515161628039 0.08636804976022777 -0.11368029783499133 0.2825920053394617 -0.4406348884502282
Ni 2.938793915407279 8.707548728659633 1.7571193790381958 0.15410935238431522 -0.7100849570910931 0.6061473404651626
Ni 5.064268380075801 1.241310447550327 4.976764800978652 3.538175792884784 0.03219149713088004 -1.670612588482613
Ni 0.2556737325671226 7.587370575266751 11.947078286591916 -0.8891923741816429 -0.71757252371739 1.3760312719917591
Ni 4.497731806296834 8.576692490785682 9.07298479819787 -1.1877938675754836 0.5468885548038454 0.4934296636537567
Ni 1.173334490391685 0.7059409005354673 12.791312729738321 -0.2368605647406179 -2.8951526624391946 -0.051336702600763194
Ni 3.649008402139736 0.14703409409296528 13.004483388432055 -0.4257556573455506 -0.8486010830228418 0.13723057435110558
Ni 0.5740068721044378 6.620062715173876 5.3612830790108905 1.7597139114266598 -1.1972143895584348 -0.8030012829058558
Ni 6.7106667750997655 6.789136526372827 12.613177596058211 -1.1219972807956482 0.4083760284165225 -1.1010772428135296
Ni 0.6060674752232678 0.5578913371081111 7.589518824472357 0.046499943333752174 0.517228051624935 1.635073772146055
P 8.978233627497504 8.346534716466554 3.7851014556966374 0.006776399491885103 -0.3678348737693665 0.1383546606532198
Ni 2.7774552677302218 6.119476658816181 12.674814201785463 -2.6144280493257748 -0.20337040340297233 -0.5064175912729924
P 5.485623999648211 8.755948489985611 2.3718302579551827 -0.011909349843076263 -0.31749061698885966 0.27820698889788864
Ni 6.039815472403491 2.7554320474184766 3.108995924034602 0.7644943850799092 -0.615493814677069 0.7242789892032881
P 4.1489345867277905 5.036599590179356 8.964440474534882 0.7489991176577875 -0.9162954010460219 0.13910439433505076
P 3.3219227967689977 7.249314601725742 5.494735729000661 -0.5988788318282073 -1.6645028760404494 0.3664986714564462
P 4.391025042214581 7.160424375423777 11.78019854902702 2.2494239601369843 0.5947864069263885 0.4028895513806545
Ni 2.6987014050007883 1.1176211502855256 11.183515000261178 0.23871612989211793 2.0306372221789415 -1.5883861382815292
