# total energy = -340863.4533793707 ev
CRYSTAL
PRIMVEC
9.30654682311742 0.00000000000000 0.00000000000000
0.00000000000000 9.30654682311742 0.00000000000000
0.00000000000000 0.00000000000000 13.62107199580385
PRIMCOORD
 96 1
Ni 6.952297693154386 6.069311130939463 9.62780988892304 -1.1345059547856202 -0.5576524781885687 0.11530472081229175
Ni 5.177595027678588 7.5046784812581055 8.820284532056705 0.11686949419625034 0.2856901846488112 0.23164405353668494
Ni 7.859872152430504 0.4929873360769116 1.249657997749764 1.6038811485933346 0.03765560556924483 -1.6215731665564588
Ni 4.6849529644937915 2.767720532366909 8.948418001219538 -1.9698517154604527 -0.5106329149059206 3.043831587836558
Ni 1.2002932807241458 7.66921823146321 6.859108446506832 -2.6315510821593064 -0.152329377665757 -1.9829198614983206
Ni 7.472915236492833 7.634318680373326 11.658248088893243 -1.2599670473056237 -1.1033369853819839 -0.6988998870085512
Ni 5.474287744677385 2.0533499879243866 11.426962714565063 1.1584238990537985 0.6092810009981378 0.4392153823948822
Ni 7.576711154707626 5.375173019582115 13.160284749649914 -0.7179111380037313 0.8485342343406483 0.27832294565046256
Ni 5.701693219579066 9.134254853481734 1.8376186455259453 -1.5352648329765173 -0.581538797887863 -1.598199524827525
Ni 8.432113111741106 0.9585184973203901 7.456256517439262 0.6665685218656972 1.5988741822970465 -0.6821735753928058
Ni 3.8841525184588033 3.9544076414394786 11.857306752417678 1.1219831397282614 -1.3823739263803352 -1.0751358403574194
Ni 7.18169476910493 3.005735470799914 4.876071282154256 0.3771288974767828 -1.5532995789910409 -1.304762092133127
Ni 3.663038269300259 0.31474369547717984 0.4497537721867639 2.4508812056776437 0.08850225590746694 -1.1517290035321261
Ni 8.11668631571726 1.572778516143212 11.657921429095044 -1.4458616625213356 -1.9929805881684324 -1.2836481929726473
Ni 3.116864948017061 0.40336901149687365 6.5864964197600555 0.47044991492913174 0.36177478361821563 2.9383927040747526
Ni 6.750503835479202 6.157378984796414 7.234750462653815 0.505327186422291 -0.6828011816744757 -0.32911765970482676
Ni 4.903507913239078 2.2903784323799177 4.275150337085336 -0.2714444733630744 0.20828506709577033 0.5264644826215384
Ni 7.34680221867443 3.3176350855269425 10.527577085956677 0.2783273165258368 3.392622814710912 -0.4504960975150241
Ni 8.774603346316788 2.82001401971999 1.717112822249317 0.36905023423370636 0.8445068583488101 1.4233634814188196
Ni 8.108431408566133 5.50283092419543 3.625711570763911 1.578840917795255 -0.43353530129096945 0.5211379282023024
Ni 2.9625717060119463 8.278024613769054 4.986525104062302 -0.4200323817085282 0.6211353292335625 -1.1409128867532288
Ni 2.4385479664871275 0.08744989913898651 11.988913424904977 0.14293173850094093 -0.3678063345242762 0.6452106250152114
Ni 1.4952735930827985 4.03140070441724 4.662561412514523 -0.1796270370394455 -0.892475930028921 -2.4358268824476825
Ni 0.5027610716914704 6.1654756806492665 13.101768905001181 1.7524361468183238 -0.016928914544854713 -0.5073676138910875
P 4.812871452421912 7.89197043288624 12.56019487922428 1.2093204287933494 2.06673653900466 1.7003198857390587
P 8.113596542127436 -0.12793523971264284 10.08512336920322 -3.4120109894295365 2.9169293919946537 1.9060909281637237
P 3.478694187170016 1.7439631408758298 11.270796995312141 -1.545228114836816 1.1242523953784123 -0.8995719176437541
P 3.8248418946999165 5.832543269798735 5.997767051205201 0.37821647411400666 0.25110627602635466 -1.0710493289928715
P 7.563412099105641 7.5718996699307 0.6032075636563295 -0.5821448069029781 0.9210647974102074 -1.5782017415493594
P 5.428490227100499 0.5007489962393017 7.921620160837509 -0.8539872870354196 -1.1875740382551936 -0.1600851103517759
P 1.539135348892564 2.722928121861413 2.9260788740829726 0.04480018703382607 -1.9335508241468897 0.33379861012026385
P 8.936165001495555 5.2993711946148885 1.2905546876989333 0.4744919462089893 -0.822862540606157 1.6716937373619338
Ni 5.891267581099313 4.836063367439509 5.113881476554201 -1.4353484216948378 0.6798927497784291 0.6369388719247224
Ni 2.37337421814514 5.494315433729499 10.980259628470902 -0.4120007696533033 1.3932041842266198 0.10779092893374984
Ni 1.5330953999172747 1.224620594470534 8.937493976401058 -0.8790108056629508 -0.4808489987752687 -1.0735522979203833
Ni 1.9482418465886147 6.320364541659648 4.892157648569953 -0.18315047681167165 -0.39178932770243496 2.0047343862702505
Ni 2.3032028540870804 7.825186651920639 0.41200176445446723 -0.16959664938663693 -0.4646741887876191 0.30833954661721086
Ni 3.559623919510716 4.877430968664718 3.6467425055780227 0.3715303203430827 0.2791107316590806 -0.04088439691918765
Ni 5.855530440783271 9.303522329541147 10.580222360784743 -0.07143630156411568 -2.0129395477888625 -0.9534900078184482
Ni 9.049676954733771 3.6916559011939634 12.13939935854986 0.6662890429520654 1.6609174726820362 0.4724538327330379
Ni 6.740434151671401 1.6784822764842509 9.174269282779349 1.8315291935967488 -2.184075002417529 0.3924195050872661
Ni 1.0507649907611702 1.9398101150452989 11.27217250295243 1.3869026674886242 0.26647555939357337 -0.4717565495556972
Ni 5.878964326021759 2.549872881190377 7.197796956650455 0.587595288494588 -0.45419128697842426 -4.569804711098504
Ni 2.4313167795013033 3.471900407891185 8.884112553708666 -0.03324950608174919 -0.155150649164636 -0.45133813380034526
Ni 9.070765590139017 7.95113215189381 4.099275212686237 1.9290416234226262 -1.0999904375072538 2.228398249814936
Ni 3.5545146252311577 2.835155771619521 6.399493457164111 0.13398069995524023 1.1513713630823912 0.4434489608602556
Ni 4.979626160802853 7.6828430162087 6.591836516404155 -0.6985890406363517 0.4964643367150223 -1.2523792076560365
Ni 0.18003701219840387 7.698319803798694 1.3528601582686806 0.709940718203745 0.32016482138691316 1.2228441743113971
Ni 5.563323479417895 6.805710272029919 0.7312051572335864 0.7543794081330943 0.6816842944612131 -0.6117837128153334
Ni 9.171871916283148 1.7476206138300496 5.144801548165142 0.49895702122988916 0.46862314613303807 1.1645719209330652
Ni 3.711627750964334 6.0504932929917965 13.070712957804664 -1.6125143987883004 -0.2525450653554102 0.8368354578464814
Ni 3.6676729296849957 0.4160473204168066 9.461660106094323 0.7707977015901177 -0.6054726829956412 -0.26261967598259284
Ni 4.633794875869501 4.701881573409125 7.691478561130381 -0.1870356707986908 1.095893641730061 -0.40472351926559974
Ni 1.2499157891004815 5.893370860711663 2.8507405151542193 -0.6524040574398571 0.734426104939619 -1.3279683550462613
Ni 6.865365238026227 1.3434093598335402 3.091874077472617 0.7468093090953203 0.8274748425671878 1.1976422211244728
Ni 8.814602885139273 5.991554931111202 10.89868309111667 2.0099406130615387 -1.2720756576436996 -0.392885131869775
P 6.512088715527033 3.6298697359444336 12.436679318661662 -0.6992948084541246 0.9871753158860354 0.32946552996254874
P 5.297696016162574 1.7088309261120136 0.7087112332377867 0.4156589352311809 0.34919026208498577 -0.28415549317183963
P 2.4264959881774213 8.234907381715871 8.304712998478507 1.5057935629902777 1.1423807295480068 1.9611541876864547
P 2.1061274157192478 4.459836900143608 13.004092041410814 -0.9234181281337324 0.9840640239505635 -2.141577238264634
P 5.07288706786198 0.11851329157307003 3.8351079466485163 1.2237381468805764 1.0865345691126642 2.052533765141717
P 3.912304823004643 5.775587202420045 1.5964301745804999 -0.5198369500026918 -1.0258578200578978 1.6817305527726456
P 9.188242132381044 5.823702050189298 6.082203490439412 -0.20069748455649952 -0.18997392749140832 -0.45639960748365266
P 6.335832022702684 3.5590748332402353 2.9927677282696092 -0.583816023957814 0.6903663956162432 -0.3238147594346746
Ni 2.5625670112401377 1.6288969942957443 4.618933251033385 -1.636835492032168 0.8904123626316729 0.5467890531115035
Ni 8.970729516894975 5.5448220640667785 8.366893761319028 -0.009361900830874199 0.13071179939598132 -0.02734239656869485
Ni 1.2140483571270386 4.185284458356233 6.750494528932244 -0.3430874916213575 -0.3479782440547555 2.461377734333593
Ni 2.0688453886082945 5.88830809916689 8.249616379181887 1.109670126688863 0.45214417464140844 0.7489947467824133
Ni 1.8208724449309757 4.143153720280526 1.3814359107010772 -0.34861356364590934 0.735205920528437 1.2158368897556286
Ni 7.387127486640421 7.8577316466303255 2.7500129654712495 -1.0040772338476966 -0.5086349106392853 -0.17239169563327084
Ni 3.9568738763831637 2.9647029052651686 2.0423710544788567 -0.2546739387729549 -0.18479881104837206 -0.08993101793419352
Ni 7.848564697877382 3.8807928550072175 6.682851753682485 1.3469276697575836 1.4739378519322615 1.429190372513242
Ni 7.771757765838766 8.207127339048323 8.121196268372769 -1.7231268563312452 -2.2863743121090883 1.9623296960517944
Ni 6.609397970512585 9.370948262246802 12.761228392013054 -1.2655468553862461 0.47800253046540914 2.5084790586967705
Ni 5.641880042284483 4.191892106695918 0.7425852028529755 -0.017375258053653947 -0.40976725233709427 0.4835771963397092
Ni 6.429902599347096 0.7095646435937714 5.779843086343619 0.039961370884286015 -0.9976548752611204 -0.7778368678250861
Ni 0.32107587002692833 8.108654765693109 9.600676651269026 3.630897486190237 -2.139279957590025 -1.5206905347067683
Ni 4.458292013348696 7.495483612864291 3.4851966715290827 0.3196881388608107 -1.6700279196237369 -1.175492681610627
Ni 5.458792343993476 5.6004845214184025 11.729009488028396 2.2463358081299636 0.33908582666113213 -1.2727102059039048
Ni 3.2652019999695017 0.6331029844472716 2.7974140010888773 -0.06641262309727917 -0.7646602212338122 -0.8317228192102644
Ni 0.10139017582632959 0.697709033424864 3.194427571668609 0.9360957236014008 0.558722828434612 -1.5583425407315872
Ni 6.059129768568173 5.798965248376789 2.8494469051271545 -1.53615392044969 -0.8407263082604552 -0.10440812850444599
Ni 8.908124375513202 2.9701472352351903 8.696822949466437 1.0700699957987376 0.5401028993405795 0.5305070281220282
Ni 0.011605264055755932 8.792006589126942 12.431299203865645 0.5325425704948182 0.5923788259261604 0.9057765037925691
Ni 2.763700104081354 2.5283375315311796 13.300731711091954 -0.10790071503873674 -2.010175869000796 0.24082392026374005
Ni 3.9615178433148572 7.344503501575977 10.847971716746331 -1.721048376535662 1.1797918232066134 -1.4007465153502523
Ni 6.743756588935157 7.164598642344366 5.037195529626031 0.31707564093862806 0.5474097174146378 -0.27234693057268583
Ni 1.6244949975849403 0.8891586641570077 1.002234140342926 -2.681294986351653 0.337581988422096 0.10468657897681326
P 4.220146783258287 5.553532992018813 9.651183281606304 0.17036309523901627 -0.4751159529462334 0.45499861337106806
P 1.5654077309530283 7.60829757508071 11.341858065259318 -0.3948530542294232 -1.4304317011195107 0.6083507758743846
P 1.5627274454293254 2.0051699943264327 6.695628712000165 -1.0258645049261172 -0.4032358789764797 0.4342585526102392
P 1.9782926867137436 8.139189546260017 2.8679576270252283 -1.0293444930549176 -0.34505464265005736 -0.07814970902854929
P 6.631268355862245 3.9244033340491358 8.579450640550334 1.1197285393661296 1.8941892916301315 0.08859687250380226
P 8.221571099926058 8.53634643766289 6.184906820041418 0.38492242537927257 0.28722307635356986 -3.0699285420339257
P 9.011445659833173 1.9160877268511354 -0.1404618519171717 1.566502193724244 -1.407266318746641 0.4490783912318911
P 0.911532533697058 4.364333115267772 10.033186322598604 -2.647235839884415 -0.9268196976161135 -0.6469013824540729
