# total energy = -340857.3218081757 ev
CRYSTAL
PRIMVEC
9.43327113474474 0.00000000000000 0.00000000000000

0.00000000000000 9.43327113474474 0.00000000000000

0.00000000000000 0.00000000000000 13.80654583535810

PRIMCOORD
 96 1
Ni 5.539141347294971 3.8737161940533866 8.883076544176566 -1.3113274040554705 -0.08275481190072845 -0.0924974931097891
Ni 3.366866535696054 5.12329445562614 3.1176838485490883 -0.01939820202095369 0.5254283280475404 -0.1501907340561994
Ni 7.402391629615499 0.3758451053992559 4.661503760196587 2.1679837532826207 1.3295886642585037 1.7562601485501044
Ni 2.3915794990638575 2.1101284213279676 12.56557184227619 0.04543859194877336 1.0935374827930586 2.360564265158941
Ni 3.3135968535679345 1.7317787824410165 1.2186371322332403 -2.335457442788984 -0.8974702979197189 -0.5501975645724202
Ni 2.1313344148509024 4.53662989015246 0.39764067836844663 0.8933346784847905 -1.7552970133058865 -2.6162450479298553
Ni 8.79395948838897 6.583319563063285 11.056199406850977 -1.8617080311729743 0.5412203007744744 -0.8320676041441928
Ni 3.848302961601969 4.7775839348839195 5.607928760448548 2.2145364042311795 0.29124762413193067 -2.6760483932407335
Ni -0.021507858199417793 2.8196519101302524 13.426769124431615 0.027614676393475025 0.04825240724848464 -0.3631310405357939
Ni 1.6819994106347322 3.1036688376162487 2.212844480791126 -0.1657903882666693 0.6592807299550323 1.2341518860147327
Ni 3.7497818778148115 8.577984745636483 9.580044349091384 1.3959202976062024 1.664741988634449 -0.06862660002946246
Ni 8.58841794351743 7.649128269555837 8.80247395892002 0.014023053751969397 -0.6669541873398901 0.6175519827576784
Ni 3.207198988378797 6.642475606382823 10.718753374954597 0.27311234798380063 -2.265386911224144 1.258854016747103
Ni 9.08516456848372 1.1569246724347353 8.164086767785196 -0.555589682122269 -0.21269270924516276 1.253357769519222
Ni 2.0516044071748154 6.71515896051726 13.315391435407621 0.43672038388717044 0.748712182544988 0.34222180118695256
Ni 6.086506905199014 5.948177417200653 9.423865225441736 0.6890751876086455 -0.8105428426985395 -0.5703249314499146
Ni 5.406585021234348 2.532795568031088 11.338542872036722 -1.381821139200659 -2.7490949767147623 -3.339512050928862
Ni 6.472044696694717 7.540419252937377 0.07317954419640503 1.685690051641026 1.894388809235447 1.0868292175349477
Ni 0.26959817254836005 6.304679600127143 7.002127558542991 0.5557673453507138 -0.017141287665976928 -0.5797909619588207
Ni 7.925721212654579 8.786384571663474 6.995790286991076 -1.5820324281493592 -0.4697762859008748 -1.2352680018970468
Ni 6.543199860904458 2.9347000849548577 5.507279530692184 1.8002021013486933 0.5840551365518135 -0.5475364728004893
Ni 2.0569247720978288 4.10117122778337 6.436804825696663 -1.3465234923406293 -0.5762901478944139 2.6448778811751996
Ni 6.4113604634504835 0.10329903561961604 11.964808309756522 1.0762200745605337 -0.29971632372457413 1.1271605701641427
Ni 5.347759142404713 1.9685916211419747 1.7776895697527475 3.0040411953124972 0.2701769195045605 0.7020384326375328
P 7.368384687155454 1.4168867585134879 7.090613528491316 -1.5546008143009677 1.4033250747107058 -0.6417558336973915
P 3.469481659158013 6.988318192921006 5.321374283025866 -0.27850472264396553 0.3087331825112038 -0.18389275429433494
P 5.807329245807887 8.355274647289967 7.723713371152116 -0.3438099716096788 0.06368262576062582 0.9820241107023989
P 9.38259560753093 4.757019403798511 0.7179813597064945 0.30481687817593306 -0.3810773406015695 -0.010434307959446545
P 6.924624746183081 2.717961247240023 12.741881566538805 1.1163213134567935 -0.12815406597113413 0.8701258444684951
P 0.574743740733942 8.25867795081539 12.383421979850745 0.7186428739634333 -0.2072496838527205 0.20673597744109554
P 5.9832597525706674 4.848644766382258 6.20408225336205 0.1748319296436473 0.9026680400705743 -0.21961051941091855
P 3.2418851263609283 3.015826216759679 3.8275752349258374 -0.03506779023741058 1.072939861147365 0.5928526802387855
Ni 0.7664296969549111 8.12829127711699 2.1343266484565406 -0.8560783652364933 0.3289870476642334 0.39565292442289923
Ni 0.6041642267656719 1.8483362806480368 6.1005049362438015 0.21778966415209586 0.5303766731917511 -0.4468495019013724
Ni 3.825597077967759 0.09273188528848103 7.2471803595848225 0.6558300524022704 -1.4772808002625655 0.7127249658171017
Ni 1.200336586221455 4.356378945207514 4.422760874220367 0.3307752499129078 0.04385144996731157 -1.6868768728602757
Ni 2.741884022851305 3.946475014356943 9.586243894884655 0.6101456629912783 0.4631752356445894 1.3538984446484619
Ni 8.340936075157023 8.88192474177036 10.93130478361034 1.8065182733747083 0.5435679750710445 -0.6061954200942786
Ni 7.574558261193382 7.549531792858709 4.754160179315948 1.7909070492000125 -1.2118241690518097 0.081496256903279
Ni 5.022820684712983 6.069460984248861 13.152557138968634 -4.116882006419859 -0.35663591972975356 1.9590836783106713
Ni 1.3027819108028924 8.069625763896735 10.11352979183989 -1.3573208400664494 1.4739093126871712 1.2484523617978047
Ni 8.94208071183075 4.103076748553669 2.878181584246089 1.7164072782192248 0.44657439386311476 -1.4179680214348613
Ni 0.8405289850874754 3.1156113588796095 10.820231789244174 -0.6526663099623082 -0.462222641923333 0.6230528579712495
Ni 4.894669696274785 8.999180302041749 1.8469288365939347 0.1390221190338896 -0.5158681951629309 -0.8398842719751343
Ni 6.102703831746558 0.4659422780583083 9.476191580455845 0.19339143781338952 2.279588656645822 -1.2087275324043572
Ni 2.842423826662443 8.298882552414478 3.257350974395115 1.4923829460113265 -1.9689091490415251 0.17368136097897183
Ni 8.99638805378428 6.800869662096167 13.720213663095024 -0.3044345551358499 1.435245063347754 0.5402535659858309
Ni 1.1303700141753665 6.866053565674228 4.649892346750244 0.687692448328506 0.5631865206329203 0.3574494167699844
Ni 7.627488345560458 3.049135097155357 8.809390433319939 -0.40185493946855305 -0.9093238548241953 -0.5022205224725093
Ni 2.022597098419021 9.206117971042024 0.4068664175434601 -0.4588622100915323 0.06141696965490068 0.02537267443683372
Ni 3.9771425788333934 1.062186330374756 3.529547069815457 0.8394644108288961 -0.5642049345951058 1.0955545132230875
Ni 1.400708698508224 5.809064967697664 1.9563321419683064 -0.6288206136929622 1.7013526978789473 2.006594579407441
Ni 5.5117942942598335 6.754759832763381 4.124940241075068 -1.452992617139162 -0.3126021785483068 -0.15885612304068125
Ni 1.8594769738644894 1.489485213207663 8.128313916967725 1.8781618058536236 0.35115792733431783 -0.03371847529836774
Ni 6.69547172364788 3.7645072140645004 1.0389936899497172 -1.217785271731251 -0.19201898294589512 0.21526458373739701
Ni 1.6471246072297994 0.680312421389865 3.5357041658885975 -1.119111217497105 1.8936339333472936 -1.1632647720858675
P 7.323718148307102 2.915097747525739 2.9488990446749295 -2.0912867175401986 -1.6853200698961168 1.1551591122595977
P 0.7544315193918235 0.9295394449111888 9.996145939080998 -0.3712215308534123 -0.0014439315353781583 0.9768788190560336
P 4.475228728301578 0.45472328869139267 11.260605185877253 1.295312002463821 -0.06435599767856659 -0.8781566851927716
P 5.870862326936431 9.020857959121688 3.811255675853472 -2.984149598594893 -1.953134659816088 -1.2062207068221034
P 0.22903321999172127 9.353003435964451 5.06168670513729 -0.31433381652743286 -0.8129077433862902 0.17560146081982014
P 6.661191216324774 6.431462764250027 11.991123362928933 1.8804632002932906 1.83819760675586 -1.6574246290374295
P 3.4507660492160634 4.373481465784507 11.99116486932195 -0.6988440940699513 0.29381975573448105 -0.4198241223524641
P 5.314676660516398 5.739004062940175 1.996979163983864 0.428137784424482 -0.3312123374503264 -0.5317810097384454
Ni 8.570532461435807 0.4490916258207557 13.300467057136876 0.5825248159502161 -0.3654301209826158 0.24133994066821016
Ni 3.5537019038967856 2.091488277555139 5.956474922495481 -1.3359148635868479 0.6680348219985786 -0.5498473803218531
Ni 5.585090811018376 1.0556019071189693 5.930270238595409 -0.9299150487119856 -2.299008970153963 0.37116008148785756
Ni 7.791853661905482 4.726889535777046 13.113471323326763 -1.1616922853924252 0.5662826430597409 -0.7941047517471743
Ni 8.960909521026382 1.618654994928991 3.8292175674313276 0.5082250767953763 2.234063932741146 -1.4780858126623642
Ni 0.3955710186803097 5.13610483783439 12.235153597379178 2.911614407539644 -2.077336168897377 -0.1383448904612069
Ni 4.237161264538987 3.624611803056884 0.04304684619359791 1.1410062177979832 -0.0992641224096613 -0.08550743494520113
Ni 8.026128950669754 4.958051845065087 4.861546651320568 -0.76710302634735 0.718422530422511 0.9520676735496247
Ni 6.254315365510172 7.911146808743131 10.202361019511942 0.11463906220383482 -1.084540421500771 1.392800521030298
Ni 7.663797006178686 5.2283622295845245 7.484514858179828 -0.08172585641558183 -0.44169726827647154 0.14145875349984025
Ni 0.7620262459867144 5.735155288315016 9.231250092013466 0.5526028315798032 1.426373729000053 0.9249785306423166
Ni 4.309269189133877 1.8587600452578423 8.645838264947189 0.47008121873580333 -1.447721855658526 0.8418982170813694
Ni 4.252245065092 5.910283967030889 7.552857020935592 0.17046645358609996 0.83758467730768 1.0743879064478012
Ni 7.68597462662905 5.796641349606158 1.8389077261435112 -2.2637293210160623 0.7187318341328137 -1.1353857862874124
Ni 8.029392862484228 1.8277623162914887 10.898265694769272 0.18661323854929152 0.4553788795286221 0.5090007786191363
Ni 7.622564178025328 8.29425081628469 2.292024528759746 -0.45165180838602215 0.14230490355021944 0.07091282496047788
Ni 5.462731851060198 4.023393907233282 3.598925005742404 0.3435297213650987 -0.17707650270344988 -0.393494997539632
Ni 2.829641744267614 1.4643172458058882 10.550921331465585 -0.9751191560524497 0.05944750463335567 -2.075144560562697
Ni 2.370967801622749 9.038337810544284 5.566371427767971 1.5312860508344275 -0.3088313986519649 -1.3632875991728457
Ni 0.8371065943178487 8.7375485269712 7.113159989843258 -0.2530394884933255 -0.7102852460273573 1.7926209465673255
Ni 5.8082442731084765 4.519810367709669 11.775616510424994 -0.048813679068593345 1.263642953495314 -1.1472758528567788
Ni 0.5442384285211012 3.672004557264724 8.48252098502583 -0.4376837762417043 -1.3268926054835792 -1.5114196509278035
Ni 3.231640593902785 8.606265692514489 12.285602731436411 -0.7555166070613311 -0.18215468855730566 -0.39060610602761114
Ni 4.89424519907348 1.365541463697948 13.21326495539072 -0.30492794983250066 -0.5624339587376119 2.0576019236932432
P 9.033649474787657 6.450338739801358 3.221039483795545 0.1379949633209559 0.9298736539510888 1.2572671318759572
P 0.8287600360130923 1.4956734390755657 1.1722310981866544 0.33394002079413454 -1.7305092648382454 -0.427000071275613
P 3.5345995298380926 3.468359099892342 7.7201098615766 0.9619926459728207 1.183860336849032 -0.44330755018638496
P 9.457325981502768 4.05776874726779 6.26186198242225 -1.9457712774724811 0.3919407656786347 0.5025462812430442
P 8.486019785291692 4.417846139956376 10.134888604355295 1.3217946221353816 0.8592472498827783 0.4605241711749875
P 3.3842992207629505 7.167861642530444 1.5053000922740332 -0.7164461234224306 -0.6410999452809475 -1.1355408238080378
P 2.5362953116240634 7.122723440125086 8.70396419505823 -0.23629337938323822 -1.777051631374159 -2.0391403745539463
P 6.878722448815376 0.36980026525268267 0.8399431789496754 -1.3613852399438102 -0.5350118579709173 -0.1797509642118195
