# total energy = -381164.28086626076 ev
CRYSTAL
PRIMVEC
9.29706649021889 0.00000000000000 0.00000000000000
0.00000000000000 9.29706649021889 0.00000000000000
0.00000000000000 0.00000000000000 13.60719657032236
PRIMCOORD
 96 1
Ni 0.6883733769455426 7.637632869108515 4.170605334073845 3.2606766286871975 -0.20642873061332193 -1.0279285865439973
Ni 3.13731358954414 0.05100556468759131 7.689277142245313 -0.13944069462854694 0.6197726445580809 1.013079951566939
Ni 8.742049959329131 7.720525511512103 10.401218342270798 -1.20409903249341 0.2413322273587263 0.4407837553232667
Ni 3.5810253718852842 4.362006825432681 8.516581228226075 -0.7267613893055097 1.4616510641451086 -0.14488963355826015
Ni 4.9314242401133175 0.5112596169512007 12.928156291908977 -0.628600527262356 -0.3089237012554551 0.5064949814781471
Ni 1.3563768818064887 7.385719562853734 8.006964402875672 0.44239198035065097 1.2177796153042963 0.8572153070544141
Ni 0.762082377338558 0.580483712600442 8.847984450648495 0.5295780885498557 -1.1755250775104593 -1.4186887016509695
Ni 8.129280324871921 2.754618452794601 12.959057880605819 0.08688220380554068 -0.2443581586692437 -0.036967321252968595
Ni 0.32183654128364775 1.5016993238668839 4.425794926464002 0.14795927362251937 -0.8706701470077393 0.49002680861979475
Ni 6.1522405993887705 1.28294865281327 1.4431250175708625 0.6003728998752305 -0.09745612266664505 -0.1133429691002306
Ni 4.269882196274185 2.2482444441411893 8.473255040234912 -0.18431672920563094 -1.5920797850830322 -0.7191272697990195
Ni -0.20593652468474147 6.751083228650761 0.9431297260499207 0.4297586078573566 0.2530587717670351 -0.5367812911665142
Ni 0.06671946600999422 6.381078587289389 6.054562832578002 0.3148092135019546 0.2431813647523231 0.07028778978196927
Ni 7.837166504288619 4.831545857728644 9.68000958685498 -0.802659840406037 0.36091577805203 -0.7049784891024633
Ni 8.450242941931037 3.284458256583349 4.6719356843037545 -1.8712560798727256 1.8389517113130653 -0.7653613610658948
Ni 8.167872446744655 8.523001782156529 5.113516579067633 -0.5816411277936822 1.1126256097727611 1.989108763917852
Ni 6.225269054534596 6.429358252161734 10.727409629371163 0.062364935390466794 -0.94870287084245 0.0008500067051211167
Ni 2.076973890265135 2.204576124113189 9.675465180887407 1.268755335021215 -0.05288193560069602 0.25813361518678124
Ni 8.951457078833215 4.864773572393339 11.834150986146389 0.9796021315244677 0.694756554264139 0.3463705332480035
Ni 6.474402537990064 2.6140003262407356 5.791821233298608 1.3908971333599982 1.7879263693051337 1.6701559605611689
Ni 3.764865559288665 6.9181422115298625 8.426609799603769 0.7637932452478265 0.27570247730848 -0.795465893760759
Ni 8.659808111560833 0.14025647067796856 2.7225008078363873 1.0166352730183652 1.6445757980992195 -0.6233228238031845
Ni 7.6962415745495445 0.6982542989224978 8.81310836614327 0.0035280677579165045 -0.10747828278933748 -0.09534267586806805
Ni 1.4362665718215215 7.151823970930287 11.234454886205546 -0.8860594849796161 1.2188851896636492 0.27114288296225564
P 6.8479493615806595 4.370030193579193 11.570756732818461 -0.9071453591156378 0.46201566811884953 0.5814904611484307
Ni 0.2961357314293994 4.1136357014071265 0.5167076977552051 0.441600080576975 1.5193980411475896 -0.670719053698961
P 3.7624111338069977 2.4349946132709412 13.540140324270729 -1.0183900509259431 -0.5280415973006712 -1.8334063560148035
Ni 4.5927879001729535 0.37547410541767867 3.4997978340414178 0.4987387345714959 1.8687127446255816 -1.2673340291936561
P 8.567451055746876 8.557819295144576 7.391496759801871 0.20107080873551822 0.7391142544439077 -0.7772434572154614
P 8.378330134731423 7.515264883541441 12.533261544867605 -0.8676154193418156 -0.8841496695514128 0.2250802842762382
P 6.014104789515227 7.699560627189526 4.549729467688882 -0.16831778267421335 0.4436847310201455 -0.9105559274590834
Ni 5.823105861123649 0.7046934469853876 7.385006477874781 1.1005830767859304 1.737870333189007 1.8490049817840093
Ni 3.0897126105057406 4.2307415474945635 3.124048535463674 -0.4194605683654582 1.2104026061139348 0.8304904894650601
Ni 1.1803462300265948 2.5130620783071604 11.84940468269098 -1.3108761754506648 0.15329277002029085 1.208619803181899
Ni 3.562682260236307 -0.1475769806183662 1.4415194142349386 -0.28928330131670826 -0.6700734496951621 -0.535850808932445
Ni 1.7727645865316448 5.884633845357268 13.0827200177905 -0.08278926468308967 0.6152097077777469 -0.07270154142978447
Ni -0.3833273372523927 2.8570070430582524 9.24570922464676 0.5667313005613852 -1.1868646708929946 -0.6841666945634346
Ni 6.732656443405817 7.151591544274826 6.513914139711801 2.243365669758046 -0.7968800004994663 1.7491132530926778
Ni 8.962743717222398 5.298360849622605 3.0024010725285297 2.6301020084176057 -1.2020097540645494 -0.06855100959652065
Ni 2.3362411758986994 6.615513409053507 2.2694900998635625 -0.30183388428820923 -1.3020673189097831 -0.03996677020092471
Ni 3.0643502138618435 2.457976960962919 4.558383176925004 -0.19889385568885745 -1.185251560769604 -0.3676795791384248
Ni 4.9480009091807915 8.335665897855014 6.424841737392818 -2.2252059681298837 -0.8215325089408239 -0.9327723156551225
Ni 2.3603949539341995 0.4382637015371394 11.74650754290518 -0.21784982796606997 -0.9381688040803455 -0.40133583374028947
Ni 3.1986649295196083 3.676998986458213 11.61096561450658 -0.7455898348659223 -0.31239751873666843 0.49766735588418803
Ni 8.510106751311556 6.75037665161816 8.403736227586547 -1.6409258600514578 -1.3106905418024202 -0.46685242738586047
Ni 0.7977821819107358 4.909427381440494 8.411819096956856 -0.2456087432468931 0.13146179018812842 0.23028162597151955
Ni 4.715239559335993 5.171995125581604 12.556489335107749 0.10727156609517009 1.2324228191387678 -1.998380419027765
Ni 2.187395145741516 5.536598171470064 6.851726759585211 1.604690017647875 -0.9022137261419753 -1.5426750093976593
Ni 6.860946660154036 0.9332209128743101 4.257038299293414 0.5546818255960189 0.1378869769881819 -1.2208752235104845
Ni 4.323591347818098 6.061622094957661 5.577630773225137 -1.1892835647471325 0.2753420086452677 -1.0118028846267284
Ni 1.804290938078366 1.283050920541673 0.6044264472327838 0.001332602768494479 1.1696555061035598 -0.09484722428888827
Ni 2.602258131606849 4.472353704379315 0.9135148513177102 1.2138154884502257 -1.892658713918218 -0.25683700786254476
Ni 2.781421894702356 7.6147899774098144 5.99914023173003 -2.319965517800972 0.7189735178299748 1.4997746104897074
Ni 0.36011628173144195 2.953835987723278 2.4150189367940067 2.7618419919677852 -0.9491859811264556 1.987992905145854
Ni 4.0723660244634825 3.5392908416307183 6.2495948282951375 -0.1076610882241049 -0.006185559985421605 0.32982805550829
Ni 7.379267398898139 5.668969800288176 4.763866004778285 -0.09081702008357262 -0.2906567846254672 -0.31789865106055576
P 6.017144930168657 9.57811653022077 10.351756090575467 -0.6606012485386688 -0.9528791137073266 0.4353785251472953
Ni 5.183551378891122 3.8116390994336236 0.6604236067730541 0.31132742560094123 -0.3646855295071074 2.685611611449136
P 1.501680729734447 5.359321712816899 4.3430092003219265 0.4833578812400514 2.162126266060579 -0.8506183705631868
Ni 2.0387536510411395 0.8406472354174633 3.0660552958063048 -0.46876352836564433 -0.19437797009637492 -1.988270841397589
P 2.6790983839022338 8.28439257766033 9.865951840930348 -0.4072961650887824 0.5672848590720101 -1.0512070974559637
P 3.8117227730295897 7.835214120382747 13.39114089252094 0.008482840660030551 -0.8914593158389487 0.25286902435373226
P 2.690477992953601 0.2542914957934563 4.902713969924161 0.8643771149101758 0.28302112245708033 1.7646010643156318
Ni 3.878661649802339 2.2490346947697564 1.9939715424801698 -0.15231266549520864 -0.13534646995451527 1.3047901171575853
Ni 5.89925813051887 4.931396348914662 6.307261740928239 1.6897264264939285 -1.9961487014837687 2.526135852546585
Ni 4.94164171588738 1.208256022814344 5.430128169136518 -2.7242717470234954 0.38316199104474014 1.0235119455335404
Ni 1.0349308173040153 0.23893367210721955 6.241784362965028 -0.2214416590823864 -0.5671617032305845 1.1869281771410785
Ni 5.9950922890985225 7.923936023305295 13.857568196753594 1.8026533911026632 -0.680342435721338 -3.5318290247311497
Ni 4.703655414827819 6.062998060757989 3.1964531574662423 1.6683163362492688 -1.651911155418368 1.5075007754893717
Ni 5.404700693029092 3.7018500444600964 3.9826762969475946 -0.16117757208500627 0.020118368016429865 -0.30201668972297663
Ni 6.852811727212903 5.327023704774048 0.17202733506623472 1.339012528675565 0.7903740810601484 -0.17758558112938447
Ni 0.4952537877495389 8.939779963662858 13.152035224688682 0.5244392246613935 -0.07017363280160817 0.8467666009172643
Ni 5.570495274902487 8.05016229135302 2.2409415986266064 0.7428647226252755 0.16395539194045958 3.312661249284605
Ni 7.014710838340771 2.0121640416564084 10.74782040854712 1.7650900881369085 0.9035453004692051 -1.9597259398803604
Ni 8.682307011809453 2.038242312399125 6.690958171709504 0.1371128178263187 -0.24815336404561775 0.7912806520348178
Ni 4.3010738534370425 7.723593543364188 11.36328805162092 0.4117624283902521 1.0143649889269497 -0.6118179084873785
Ni -0.3174167160034026 0.7331712905190831 10.899432315904289 1.5523927509060553 0.6958680421607628 0.3188471310167541
Ni 7.625797703812444 3.582856893930316 1.8606209325892566 -2.2945504201619773 0.42225612883272445 -0.18493893617066212
Ni 5.034110336495958 3.643845648323265 10.15917387180689 1.3943568097738244 1.2270849518656222 0.9315348437035958
Ni 4.292529849582299 1.4557625196815847 10.93011635325162 -0.1560741894201699 0.3070113147240906 -1.5090143839204204
Ni 1.9719542302616662 2.8306963456600744 7.388476142987502 0.163208486472106 -0.930433897329933 0.8398642173704762
Ni 4.603423743926846 6.138862121100439 1.056553933914857 -0.7832351560225221 0.12677286935289134 -1.463791507526879
Ni 3.524620071138024 7.802265317704605 3.944944153700067 -0.5277544050775557 -0.5097481983081221 -1.1147470269911384
Ni 8.040921007531892 7.440758194866884 3.1387583536344854 -2.7339658343828077 -1.1081711735458333 -1.1990547852012832
Ni 5.844405439830089 2.6003336388996323 12.386100143109203 -1.8072968034119457 1.1739016829744235 2.07961262363638
Ni 1.262346354073213 3.70753984898578 5.490312727301572 -0.7335617000567947 -0.6847367081342917 0.06838440211166932
Ni 8.269507974644613 4.503294340754274 6.910686894129298 -0.5835000353792918 -0.7911261287348247 0.3999122139198854
Ni 6.057243176768777 8.062555280622195 8.955358127818473 0.010637425109188131 -1.0784762175845621 -0.8484149351539646
P 6.947623208508527 5.676193620739901 2.593544921146929 -2.2450129755534824 -0.9887015227225747 -1.6390782653197578
Ni 3.1202348789008707 5.942470894302167 10.483814408262019 0.35885555308889167 -2.080075679315727 -0.11721170802701748
P 8.636881546266167 1.6094616184047918 1.1555983694597363 -0.8844566592688704 -0.055584422133523624 -1.2772489743145228
Ni 6.5842194841622455 3.0149549010432852 8.448654073314305 0.3467286879183706 -0.03465512818002418 -1.1745238899394546
P 5.618626186715336 5.392093871236891 8.557932719352442 0.21930378680377716 0.2224497886319266 0.21918937271309996
P 1.2961876751083248 8.381342384186196 1.80906312216829 -0.7882354374505909 0.7135505470421906 -0.6058987147894661
P 1.1470348417659335 4.062408866543536 10.260274818399287 0.5305975309533055 0.5533386813045632 1.654948399582795
Ni 7.580976547573358 0.3715349384609268 12.618564916541633 -1.8425779952117427 -0.3188646145182509 1.0083192969535024
