# total energy = -381174.1665828322 ev
CRYSTAL
PRIMVEC
9.13181439023249 0.00000000000000 0.00000000000000
0.00000000000000 9.13181439023249 0.00000000000000
0.00000000000000 0.00000000000000 13.36533341805013
PRIMCOORD
 96 1
Ni 2.5477853021615506 -0.02381942423918978 11.016722964158117 -0.22248141320081039 1.5012869333691758 -0.392519263889924
Ni 3.1063692468352966 9.188979387719334 0.17150551624698943 0.37116676635607687 -1.2683650415613317 0.07216212398654669
Ni 4.297559622336321 6.419181417982571 0.37626636037768435 0.0583270178756673 -0.6160705131161455 -0.2979551180590933
Ni 8.257735236107582 2.484364852329787 1.6903271227147563 -0.045135458886057744 1.2742163581357862 0.6706573472230902
Ni 3.2775725000312526 5.760220571285679 4.655225390307624 -0.7905121492999095 1.0392614950583134 -0.9772513719041039
Ni 5.898010516211739 0.8527653401136707 7.54781795282232 -1.696465287879659 -0.8950496042933681 -0.14251162024438685
Ni 6.218363691236665 8.203464864134915 2.512255239352994 -0.46345034368284693 -3.4834053820121236 0.11726930073783029
Ni 2.463809138496626 6.782910710603017 12.099395425249385 0.48660801274623294 -0.12744058484387727 0.07304401237086774
Ni 5.963239065261169 6.5309730877940115 10.162905639045077 0.09049511796777963 -1.6819403547906064 0.474847272665879
Ni 6.529347624860959 4.232650686784964 5.9703609671796425 0.34923088551493403 2.067056127127608 0.41717408632412667
Ni -0.013887663081950554 4.986682851437003 2.275554961769228 -0.18137744407164894 0.46103993446914143 -0.4038151485187174
Ni 5.863656631076089 2.6409206754998027 2.8106491406975107 2.438944087920426 -0.8391067703791614 0.0682134237514438
Ni 6.220043945055102 8.170243323963861 0.13371715577919643 -0.3972814611652577 -1.102879843239907 0.14425997039406122
Ni 5.645305821007362 2.3091618645008127 5.401318355667549 -0.8521438060687775 -0.12401536121241223 0.3131014867822285
Ni 4.517271072725412 1.5886891171463593 11.87910775738234 0.7539245799838629 -0.6559678635317154 -1.3274104256602623
Ni 6.3153983492513985 5.854223466975841 7.727969470782875 0.5553207447315984 -0.8299451584845513 0.537850355860977
Ni 2.7840801271934765 5.3917427352653045 2.050669425437058 0.15914588636695814 -0.2401297224101929 1.2850964953833997
Ni 3.555051807243344 7.165351090582034 9.958228807605304 -0.441728121514407 1.5192969967933512 1.3126026712234684
Ni 8.059474417346253 0.3294895551626768 0.6401967948157823 -1.0725567667763336 -0.46522311931255367 -0.6877217589045446
Ni 5.834736175407666 0.593667461766425 4.017004720091351 -1.390892762484624 -0.5155128687060413 1.2030675059051021
Ni 8.639545520904685 7.694083134535832 2.2451889399080955 0.22658952183191297 0.053045971982386066 1.405518739927915
Ni 0.7044217574812652 8.340524263922523 12.448952142183883 -0.041210412800038704 0.21894074703740363 1.3633315650369038
Ni 0.6945794881034864 1.5962319957008646 3.3664999333720274 -0.005507817192106643 2.970967038466348 1.006283497470396
Ni 7.440857925920309 2.9306548774094074 11.470089232085057 0.5080260734106928 0.2733054378312132 -0.41589187717759346
P 7.143672163598505 2.5005007680753195 7.134522085739408 0.8890535346109334 1.1289202331677266 0.27107757694195894
Ni 2.6802696630196112 8.817095384990932 8.354830164096237 2.3950435298827335 1.6107678484108385 1.8984123285725434
P 8.143560162781945 7.2423048891035995 9.300961912448194 -0.39361815338105755 -0.8892677075042685 -0.2350733909332081
Ni 7.4057461002035145 8.092120653220775 6.983574109688425 0.023997648466178027 -0.6364711882596844 0.23780313115954527
P 8.28673787810408 6.801338711720439 0.43596285636619514 -0.2336747108134685 0.2987184785876791 -2.265136742886551
P 0.8604360640674046 7.486891401456941 6.0041751620942625 -1.4878778590521216 -1.1679115268292595 -0.7282382309613522
P 7.245208806028941 7.755284553509552 4.621384713131734 -0.09424610036977962 0.25117878113550285 -0.3342012448753212
Ni 8.10958981384398 5.444798575945297 10.869530903300195 0.6358934613793435 -0.36860183384237805 -0.08773658138603599
Ni 8.324707961675061 5.559905094322458 5.137487458004564 -0.5824602812608678 0.4666068870339577 -0.415005360807582
Ni 9.10933170399973 2.8227624922744488 9.595427307310693 -0.7461012272847022 1.1626870452055267 2.1362846224071275
Ni 3.342901499037219 1.618340117953233 6.982851783182783 -1.394981587842017 1.3416689924618055 0.23472114980011188
Ni 7.7974735352550875 0.6629404913386033 2.9222362578701846 0.5735177273555994 -0.014513106014510488 1.1331792655543969
Ni 3.948706055097582 7.8676332639890605 4.191368494192529 0.8254742671973911 0.9310211372919708 -1.186265603856415
Ni 1.4903942687677982 5.244318726325924 6.134273379893858 0.2610315055598666 0.5237609676474463 0.15578365476294462
Ni 6.274706985039686 1.9687186981684888 9.741509852739592 -0.6464660946888673 -1.0767870028075972 0.1187299444437568
Ni 2.3863074311212222 3.9079781636289472 7.9745065386558815 -0.04966214311181769 -0.523410526286563 -0.48411018602504374
Ni 5.048815715462247 4.291578284015255 1.2957861756987241 -0.41934538294383256 0.049588352451088794 -0.45723804422454806
Ni 6.342930769156765 5.621663553964246 12.723490092032288 -0.34038963307422027 -0.22344634821724096 -1.8993566947636837
Ni 5.055938530562143 3.445415245590334 7.8063304818773815 1.9811067195489813 1.4320406974778435 -2.1202090570015035
Ni 6.022942866701064 2.5196045234458095 13.388187544428863 0.7990510400088561 0.45740696570224443 -0.19224986800977859
Ni 1.022717534760029 0.45398540493177747 1.39627631221833 0.835930943754341 1.052969074452393 -0.4370119469856603
Ni 5.55619757774482 6.973400355454075 5.815443391482602 -0.5750459910746678 0.028025024458016252 -0.5444403503736689
Ni 3.465989223051956 0.4793727616743674 2.5730676430404884 -0.2929136989804439 1.1914327498796513 -0.6389487032658996
Ni 9.345316047347815 1.9515143601579714 12.984488300920926 -0.8268845172813566 0.05961745455231668 -0.6382951288423008
Ni 5.242720658835562 3.862401278803845 10.794791569729558 0.866077128320418 0.2621525065381872 0.6340949747180241
Ni 2.1470812937212624 6.568240021669236 8.284595554485573 0.131744868646186 -0.9674436417850629 -2.14268795483031
Ni 5.052030114071431 7.6584233999652005 8.19542156216057 -0.9326866979198518 1.2353970712757434 -0.7550476378447125
Ni 6.773340569289311 5.871592177642511 1.5524769078147742 -0.00211987455648022 0.03947260417332557 1.5739275396540378
Ni 4.001716236706422 3.5129724072685753 3.291293050912782 -2.6726162276307326 0.6738833103595556 0.6213621005323879
Ni 2.8631068475453962 4.215628985059059 13.313061021934848 1.2997844364128774 1.7969131461847763 -0.6519690267849675
Ni 6.622921325282281 8.695140005940795 9.805316578313311 -0.6700549377524008 1.2286443259329423 -0.6293415191934387
Ni 1.5126941591190104 4.000538232670669 4.080342983595039 -0.08341327142033376 -0.5633690689573716 -0.33468049850458487
P 3.9681294239661438 7.641054689298532 1.991769223649459 0.35454869818342166 -0.062086484918099524 0.7919267702592491
Ni 1.1121545233348735 1.5782149262238205 8.21738083584098 2.1494908366847563 0.47108497740996935 -1.10600501913245
P 4.333447652262719 5.705858881170705 11.565049141906592 0.5870389017704858 0.6123069323086552 0.4947537817818189
Ni 1.8223722433083231 7.4235896652101765 1.487615457697416 -0.13590825599525627 -0.47997456659011534 -0.7744746362210726
P 4.51910656738577 0.4718691499210541 5.81788980451499 0.6347058688291456 -2.20903475768666 -1.3551469723435823
P 4.5949006255000455 0.3410002070003929 9.772129739036336 -0.945495676759062 -0.701528839990966 0.12063898854101159
P 3.969444405215355 5.726752472130401 7.035712203038239 -0.0278455614573585 0.3457604104678303 -0.6881508760221633
Ni 0.7616106572820436 5.627370937858393 13.096863493661706 -0.22287170666069359 0.7751796327078972 1.3066140577402015
Ni 7.57867526628906 7.821417152167815 11.626824038813993 1.196924626232158 -1.0540533086555075 1.0272582999498503
Ni 3.90529341024514 2.3292427239939806 9.094053265610455 -2.516747983573782 -1.725543436192538 3.7102646125656555
Ni 3.793857881188695 3.9507150542283216 5.717903744140915 -0.23253545500270276 -1.77698581113323 0.999325063874692
Ni 5.364402083458781 5.6434977217896956 3.5973595025738785 0.7755421582536386 -0.11946090907251038 -0.27955578961629923
Ni 8.045402291616844 4.019103211001551 13.357140289226125 0.517213910557548 1.220092322597873 0.36055428094755326
Ni 2.4432534246634656 2.0708580403381474 12.71601844162878 -0.2615454690818076 -0.22143985931017346 -0.21890629425504235
Ni 8.054881114788243 0.8905482214929253 8.515494390488616 -0.3719992895597013 0.9256606443110059 -2.3078486799327806
Ni 1.113195550157166 0.5035866802883205 5.708186580618095 -0.033342580016187735 1.0390565781363588 0.7433771434853198
Ni 1.5856025639364049 8.825177040585045 3.5494183910444654 0.059324863012562346 -2.784479012641011 0.7710985206599882
Ni 0.58948691721164 8.503499752496676 7.96221055079433 -2.009863737077016 -1.581741893492134 -0.32327508488112067
Ni 0.8927672523509698 6.540643679064256 3.848921807818004 1.4193299347793944 0.028123754819409628 0.5636241223909711
Ni 7.9084616054142325 0.9290525161964001 5.65620920719874 -0.752969158049129 -0.9984524314617514 -0.01591461434772743
Ni 8.882771392937663 6.098992615613797 7.511852302474961 -0.5110041822024103 0.9205058395829436 0.6930603975086386
Ni 2.9977828438188094 1.464222489182797 4.555520589811853 0.15008788992974798 1.2106080372565216 0.6217958456356969
Ni 1.0043351927137596 3.905074246703605 11.741391780151549 -2.5623511261248773 -1.1448793276001443 0.20582863513547778
Ni 4.062013606071308 5.203472121272291 9.133013237844038 1.656058344817522 -0.6138794190020975 -1.649765826940591
Ni -0.18840485166220358 0.5925981263200176 10.518076595368571 1.1287718805153206 -0.4152285325619816 1.2783224098843597
Ni 1.5690191892935705 3.3746071580459853 1.5967159818550882 -0.26751042841599093 -1.6971456017761355 0.22400119227944645
Ni 2.9131948486004324 4.263890623267968 10.75890627934743 0.7263369001735813 -0.8710915508158739 0.4376056147056012
Ni 1.1018629686969474 5.045290835169221 9.658484310936077 -1.4813554845525714 -0.1473308960099011 -0.37011389961153035
Ni 2.868951208653003 7.9632616226122765 6.228285407398251 1.7254773588412928 -0.5952157811543234 0.3345033494967723
Ni 4.563414130032814 8.102640503214467 11.918228449546383 0.7062473285125579 0.24745042444132226 -0.940803156379399
Ni 9.043564377910693 3.786634616132262 7.499889625832829 -1.0492404606478962 -0.3298740782548771 -0.6747315172924638
Ni 7.045231206192253 4.005825553110207 9.08495158636678 0.6451211506251986 0.8922648424593794 -0.08675981929506348
P 7.250550917353864 0.8353043981232724 11.969992138512739 -0.28342632831529896 0.23111980560209874 0.6087022456765324
Ni 7.988675461616135 2.9105557542877785 4.564368404619915 0.896372693980166 0.8124040642769944 -0.5706470906760237
P 7.246952982546993 4.2643015549083465 3.0598463060559014 -0.6471919171112983 0.8807375585460703 0.031595515418093974
Ni 5.399404327404807 0.8275295714873094 1.3931888458269521 0.06328204788809748 0.6001101331321472 -0.824210055772987
P 3.661382652144865 2.3092531826431193 1.3121138595431006 0.27671703461592345 0.6528465442939144 -0.45900824875109336
P 1.8956824479518655 2.29360125305181 10.518677468744945 -0.04757517867580193 -1.1873544660452195 -0.5696507882010254
P 1.303374713324382 2.974094917704541 6.0557653465902375 1.1593201856158228 -1.1840932787954448 -0.3071637811415549
Ni 0.9309975926275255 7.302529203954641 10.226297780252727 0.06268426640309849 0.7105438990053827 0.5397444875598962
