# total energy = -340885.92013015394 ev
CRYSTAL
PRIMVEC
9.14513158296140 0.00000000000000 0.00000000000000
0.00000000000000 9.14513158296140 0.00000000000000
0.00000000000000 0.00000000000000 13.38482447573185
PRIMCOORD
 96 1
Ni 5.507006144104373 2.6157453836377513 9.88608469094661 -0.39988521733669197 1.7708904968687693 -0.23673972289203743
Ni 4.561225789065206 1.111334670660803 6.298563915968833 0.4004863412558006 -1.0390478363856106 0.46563680981120453
Ni 2.8133259497873095 1.6829511153346355 4.806677460586969 -0.9208519100684527 1.467522435324221 0.36247103835429184
Ni 3.7113595732427296 3.353647754453561 3.077451979840774 -0.4010360431116835 -2.409015161571477 -0.5726918890201944
Ni 4.9591761864731225 3.1346035646635024 0.9926208040908406 1.5078404182169773 -0.0895162989942781 0.13508653142490928
Ni 5.079388940096634 5.088323733576297 2.618915086217128 0.9517074619967286 0.15934797507543524 -0.2542178250721428
Ni 5.11123228799447 4.194377983903282 12.220692270906675 -0.024736069294099335 0.8111879324817061 -0.9264648853798562
Ni 5.548003768637975 8.277240234243605 12.854691315623672 0.11183527420645255 -0.3413635669517153 0.14649323059995417
Ni 2.446414128704855 5.513334575105322 11.457061901629926 -1.3307016948170243 -0.2133398559108584 0.7379114923850583
Ni 8.211130078599302 7.367528277857244 9.175056203569223 -0.6530607171872495 0.5893369537760431 0.27602180832111173
Ni 8.20299091156051 0.09688169412983998 6.765319539275358 -0.40888022174645067 0.22612595193193313 0.6226209126401535
Ni 8.765343338020527 2.805077041170466 1.6818436399094696 0.5495794713724471 0.5956603248909097 -0.5863398188209321
Ni 1.4360051293250762 1.3137438662446113 2.6385771189512894 -0.48213609301780835 0.8465994792117807 0.9565707036263008
Ni 1.7450831387745844 7.028655429966854 0.3232337585049539 1.0133586591496226 0.0643606256642569 -0.9404444874883997
Ni 7.8062568166426605 4.062660654847411 3.891504031666264 -0.18792784359565698 1.6621330902566924 0.9000393441984758
Ni 7.884612303371168 4.144290098654444 12.970376314639424 -0.027271948342075615 -0.14876017225725993 -0.5880426604446518
Ni 4.778395226896893 0.6114462359143404 10.987682540094827 -0.6248225482771627 -0.5819069798605591 -0.19360535359640849
Ni 0.31302596271989785 0.20281798296204875 0.7326704410822223 1.1857932922056866 -0.992221362950375 -0.12619642802413106
Ni 1.8633571245191918 6.875154397667832 9.15131178413156 0.7077822770998455 -0.21711654934447125 -0.030933970574695106
Ni 9.743680361214862 5.415966359979455 1.4374902986813682 -2.3834586532586113 -2.340601448883769 -0.2813344787832768
Ni 6.458328448835122 2.30026578213526 7.490201071855401 0.31372883595358225 -0.15287830819069154 0.3147012271691806
Ni 3.2139467255944703 4.519048442567555 0.3939795813087665 0.2629747453291665 0.8715278670223443 -0.6603076285576499
Ni 6.0294309264167865 5.729690096233128 5.052048654951495 0.20746411385637173 0.44235675623734133 -0.7120492799063156
Ni 6.975897166318772 1.0802412235463157 0.8040747133543416 -0.9050542809145639 0.3043185983832759 -0.7017113883154174
P 0.4348500885144592 5.6611107550826745 12.511678466701301 -0.042341183970372245 0.040734244494568556 0.4068117692531961
P 3.985274552058354 6.372912920585325 12.760475427327323 0.8026505844346563 0.2647320943399054 1.1161027696880843
P 2.468078945238449 8.8616507178919 1.6219466866091616 -1.3128782934823582 0.09724452087647123 -0.6839954590928929
P 6.720784577875907 7.915513702724066 5.739934472544201 -1.1557154989837 0.38993581943346395 -0.3924159055428403
P 4.7678417451409745 1.4488540390885627 13.07369435232196 0.3834139591545462 -0.7363428623463576 -0.19092035056507764
P 3.989453877155802 6.407444937145414 8.548927459024792 -0.18664306334596242 1.1201160046125354 -0.8843790119533996
P 4.716473541481541 1.2100014944602748 3.949567386099967 0.9217088587521095 0.9450495903605788 -0.226769499053203
P 9.344403919738827 5.610236388524471 3.824620197896701 0.7246165750483649 1.622331127768406 -1.03376010562411
Ni 0.758104880821873 0.16428680039514595 4.963079328599142 -0.2223412880785203 1.1908041151567168 -0.8394176167513608
Ni 2.132233135875969 6.489815136604292 5.012683436391405 -0.8937306283716286 0.8299829537010223 -0.8056826863927607
Ni 7.105383083287603 0.6265439335147248 9.844859352638554 0.33931594039406726 1.0674459279123292 -1.0627495508779246
Ni 8.58755283644619 2.548062265374716 10.422989874482873 0.04962023413028874 1.2576034321694536 0.842309593587175
Ni 3.6785011157479195 4.4798524089402925 5.001694646375884 -0.055307771433369256 -0.17876186082567277 1.0052524851027203
Ni 1.2681919662218872 1.3522997406665755 7.206175235648665 0.5197860421600984 0.7605886222675998 -0.23595373665563235
Ni 0.8329824740393105 1.0707577221763969 11.71413063370155 2.2187576414013788 -1.1034202891244094 -1.8329474141005142
Ni 4.1564622686866155 7.334569223915888 1.538612590289734 -0.048723947568264474 -1.047840494976576 -0.06812317803048268
Ni 6.030766115616408 8.533825188858655 7.8554594531618855 -0.7236475262668763 1.2036994830621464 0.34698528401386697
Ni 6.84215876320046 0.7589791553936803 4.585493310024914 -0.06410865755445087 -0.7132558986199071 1.5027421777584635
Ni 1.0264769954327653 7.898348290890568 6.963896924758881 0.23794197073025475 -0.7611383241234827 0.29267844304118623
Ni 4.9936807676387 4.838570192194929 7.204140443888967 -0.6085119840425972 0.306028381985531 0.9035856667888373
Ni 0.49631085930199553 0.05977257951184977 9.180677715904892 0.7661779434299192 0.62758082774859 0.40851666775944484
Ni 6.484190880729171 2.110367126449281 11.981130978586805 1.4973410613475504 0.250289179441698 0.08822097722162225
Ni 8.553697559617415 7.526616985505368 4.672976552507825 -0.44624863509257984 -0.7686554584361343 0.10544762551255388
Ni 6.871340877830556 6.514516136797301 7.370822354225079 1.3561245057655031 -1.7937835994168592 -1.0281237332739388
Ni 2.5181393950927737 5.5560606294932295 2.4869407789659874 0.980996183658517 0.7587721378841513 1.6109686515677353
Ni 3.5599802114526975 4.552729961897748 9.607171897763909 2.0371891643648463 0.4298287989736597 -0.7685310170431281
Ni 1.1772253431490034 3.5549961147828752 3.9125853888098865 -0.023627666721268988 0.16984861749644298 0.7999360137169708
Ni 0.6151463561209645 7.440003445028513 11.100583761080683 0.6083721160306232 1.5789949268746162 1.0534773815473795
Ni 2.659614579463691 5.338936917319065 7.001976337829473 -1.2125312224211633 0.48335839546068377 1.5540179452143041
Ni 5.804378385228428 2.927585222801546 5.085630492348293 -0.5248724555440702 0.986784765315836 0.47062037906872495
Ni 4.393686979907145 7.425371234621695 6.038576972434197 -0.31966397049109463 -0.2866605189818805 0.5967034214434432
Ni 0.80072302265803 7.601652789497829 2.485668691173745 0.023640265126759284 -0.28172811467726966 1.2057771915267814
P 0.16627678101047316 5.944582396320253 8.006788516728644 0.4336574286911306 0.17556443693429766 0.49866057303539274
P 8.546381454414005 1.9113141941275362 8.412522335559837 -0.3624615252725952 -1.0505393819649778 -1.2140430310799994
P 2.0034056683754446 3.492297093189662 10.382005967646526 -2.3396488551625128 0.2694117592037618 0.34246991264201665
P 3.9701485045503064 6.379104174613708 3.9187418913385548 0.6195607856575911 0.47525864917168475 0.2993162600726781
P 6.8848390919308455 4.226623717587306 10.841962185679632 -0.2379082892788419 0.1943784843170072 1.1440018100911975
P 6.447418306950539 7.96694592230403 10.530162585094455 -0.739234839182172 -0.3452595595720118 1.669716301920589
P 2.6930674705062776 8.870576366240057 5.733603298003802 -0.16492495494258047 -0.49840500538116095 2.9223824446894247
P 6.9899257980463085 4.316154555014021 1.6730094428763533 -0.27674763074354275 0.10498482694352243 0.08284274362884442
Ni 2.855850811282123 1.8381988677509697 0.6384399205754676 -0.8113779370053252 0.2922382701799741 2.357126443121986
Ni 0.8306413203742198 3.6498951444025916 8.41087621188907 0.4387132459474831 0.18450544817766934 -0.34636127727662286
Ni 7.857231779647411 8.866195848249516 12.245119831667704 0.1810707114645075 0.9361923970802651 -0.5518006473934819
Ni 2.8314150199027384 1.6229590526666835 9.61481448416202 -0.6727381410115189 -0.8819940566609907 0.07527444436328327
Ni 6.528197253527676 2.4400491171778893 2.7819151666096245 -1.7747042141879048 -0.636996207525219 -0.48159410447140927
Ni 4.069876163604272 7.305030449157124 10.792733028279045 -0.2727750192490399 0.6878161183905638 -0.6660550725643883
Ni 7.658526362322829 6.610924113115221 11.86428180433056 -1.2935176295675594 -2.022497623790943 -0.8643927986394598
Ni 7.40415452953181 4.319904058930768 8.786614913899438 0.3871258607884946 -0.3326660391777174 -0.7742231823318989
Ni 3.100153854286951 8.877096845002596 13.041249254771143 0.8823887209962482 -0.45139906894526777 -2.594001920260939
Ni 0.09220670290486177 5.343966739646408 10.174394106749945 0.19264710344819724 -1.4441058561724938 0.5598844528428809
Ni 8.375586978440428 2.406532210214773 5.905291253325346 0.32095774960185364 1.0147743085502265 0.30979890477155675
Ni 3.0378297830854124 2.4882348150738407 11.912734540066436 2.547379849527026 -0.3719018447498886 -1.9005779687652944
Ni 1.2589553834025837 3.2841813355471947 12.888461542729457 -2.5127308919945888 1.581913900293624 0.5315416400341297
Ni 3.295722491505572 8.72309283047084 8.267953353201028 -0.14922528481913655 -0.7956805808747265 -0.4898100646232984
Ni 5.340519025069302 8.104662457626697 3.7944366913668874 0.8924016251475599 -0.1954156673322699 -0.26130995603223384
Ni 2.8883983343057884 8.60133454962311 3.6475786825925622 0.8800888692184778 -0.8466830400645224 -0.001880504852164503
Ni 3.6651400786201944 2.9569228046672156 7.817834553127055 -0.41072010316866686 -0.359696046712316 -0.9489311848031721
Ni 5.906392327158458 6.1563653516959285 9.560016856188488 0.03330941278540715 -0.9440712856077096 0.3006630039085596
Ni 8.169611181569959 0.12491792378245287 2.676282496143357 0.15730471939316135 -0.4419654343361937 0.9049730340546673
Ni 4.671580090927124 0.5119462906348305 1.861226308878699 0.37994914053439727 0.7618312364254493 -0.2014065948083822
Ni 6.266920846450939 6.0642647323165155 0.547667174290474 -1.7556137732153574 -0.560970486818208 -0.585208019209334
Ni 8.28072452934673 7.074929795378414 0.700649677633203 0.887787266304 1.6111028631527544 -0.30510612728157777
Ni 9.290996351753943 5.25453649866624 5.990310797381008 -0.4050657330963669 -1.0617964429360358 0.340701250777368
Ni 7.364053127885625 6.263985259238072 2.795273460197899 0.13366522559735045 0.30688841599298117 0.3112868021709929
P 8.4111523948605 2.082017218786072 3.7542420093793596 1.9994618250174014 -2.184473009186896 0.41290399819386303
P 1.9255531638796708 3.545979015119674 1.7956145629013787 -0.6685485284102034 -1.2589833432361157 0.07995976565409454
P 4.8234807252128995 1.0907032539871901 8.61277328010864 0.07134631295347067 0.23051559635919655 -0.6037592998489603
P 8.707354059152008 1.8038131732949487 13.025548893004629 -2.8319441481015097 2.083748243071308 0.473851484411513
P 6.508343173031925 8.238885552714734 1.605710420136497 -0.39846699683292663 -1.3188918466662898 0.21943825549911242
P 1.8525933047386767 3.417133257356141 6.345638480387016 0.5855065242863593 -0.6781287158994708 -0.9699036732897811
P 6.923559578719886 4.4051275394189755 6.589790628722024 1.1758888886077812 -1.4001821582063498 -1.539233844926594
P 2.308423239437061 8.897380746679046 10.78557147579806 0.7886555557071451 -0.8241892298373805 -0.9000524568245982
