# total energy = -340868.6063545066 ev
CRYSTAL
PRIMVEC
9.31107024678946 0.00000000000000 0.00000000000000
0.00000000000000 9.31107024678946 0.00000000000000
0.00000000000000 0.00000000000000 13.62769248358084
PRIMCOORD
 96 1
Ni 8.492580723724885 4.718869082656104 12.37387712731542 -0.5276147941758977 0.48033889190806955 -0.3645916842417205
Ni 8.102018566233216 6.256322332243238 9.750586405117128 1.3622553012535892 1.6337362842815542 0.1631308391566352
Ni 3.599268737797756 5.630497359862377 4.727337501152235 0.4086737621625994 -0.4954302390235532 -1.365401560192055
Ni 7.958069418404551 5.509146179807333 4.086086878499204 0.29767332515261635 0.15425873347798594 -0.14627931481693518
Ni 5.3113231788521045 9.220585382281152 11.92904167177857 -1.1122790250666197 0.06783984246210896 0.09524445972730693
Ni 3.2153360624053113 6.758496290189125 10.172295955190714 0.871357659993067 0.1965757490786421 1.1590041970373008
Ni 4.052140578165844 7.9997085250727125 8.00283518250097 0.35870900020869834 0.6435378652984788 0.32521266822346573
Ni 4.968694411594716 6.5926475048641455 1.9172387742394177 0.5089807240144782 0.759579207166479 0.06357618208974858
Ni 1.0645346747251834 6.955863048696513 11.0468801389535 -0.00430916889831516 0.7331932609737825 0.8995006980861863
Ni 1.96571593098296 8.938925503767754 9.891006657277805 0.9104741663785546 1.3708571839899875 0.19559410189166315
Ni 7.536808661922512 0.5641577533595632 12.688049401326111 0.6117094079339723 -0.46494903971556056 -1.704411796420245
Ni 5.819018601523891 1.0554936254016625 0.7995723386956888 -0.6289273144741555 -0.6167703673966475 -1.0287405409223316
Ni 5.930481424852284 1.62931626979914 10.392955287320882 0.8957116633573995 -0.9272372447695063 -2.8085224267434596
Ni 2.142952155363209 4.857892674262172 12.078537424223118 0.5577036431414782 0.6602886023942565 -1.4713379524155694
Ni 5.6189888768923755 3.8407327255494237 4.041210312665451 -0.2828614569507645 1.0723603344948112 1.0443219403003563
Ni 8.301117183828323 1.6172025672554728 10.08458753457516 -1.027833712837346 -1.3094661824770157 -0.0009950169234176412
Ni 3.5209626360358492 1.9071399873225374 10.623481560715867 -0.451309594555255 -0.45350788775815437 -1.3950088415355266
Ni 2.3204863339951087 7.230893445110688 0.9509433407115618 -0.6415915402053854 -0.43979362349585543 -0.6965344721001682
Ni 1.1162762927383718 3.9326423011132507 0.2254172890862136 -0.01649645499312643 -0.08392852049385545 1.5965761302914891
Ni 7.406304699699577 2.6315971280700894 0.31223464026792513 -0.40883342766891523 2.088916674646125 0.7476492884981124
Ni 0.13519581057939467 8.232122152430495 4.921477973778469 -0.46349328110564053 -0.8440376320218753 -0.491572812950676
Ni 6.296536845145696 4.853386116205957 0.20115729525260506 -1.909274210987712 -0.922189912153586 -1.2301206533681524
Ni 3.352143619264728 5.014551433137806 2.0103569267365016 -1.0189724057919742 -0.7343464007416193 0.9766535904191049
Ni 1.7920179133410612 7.327914798304394 8.378564804902663 -1.618832113476212 -1.3890685647916914 -1.6468594519270732
P 0.46538964336555594 6.626456001356117 6.529000752283445 1.0352845126884362 0.37951128166603026 0.042077903006656564
P 7.742136385591188 2.709437676313792 11.895340252595785 -0.5672473209658553 0.06014221670753512 -1.0745802249642655
P 6.626167358174832 4.815266594135418 5.769460429511079 -0.44747196597671973 1.071875938659225 0.07785326083405301
P 6.60868116803109 5.199925533016261 2.389097749293936 -0.32913231499284606 -0.4171663730146429 0.29680454939441786
P 3.9268880596282494 1.6330686311558638 1.262072756927271 -1.4206555955693532 1.536040020579645 0.7495094816353027
P 6.745768057001429 8.28499040995774 0.2933732050314098 -0.12045901131972157 -0.4150863505571625 0.8742501510495138
P 4.316649465068608 9.11699972448077 9.865836040762591 0.4185735377748146 0.6900370373012826 0.2909794580722086
P 6.972446065014939 2.815686300238301 8.447888517084342 -0.4009432262875611 -2.4494660704976714 0.07427865610891725
Ni 0.1845072392275585 8.685310569190962 0.23507752458894585 1.3183740264896069 0.0031642566605945507 1.894902258536756
Ni 4.861989545222367 6.087494004401753 6.643499915657565 0.8943500071231822 -0.49506591370559905 0.4389531298724311
Ni 0.8018535509348881 5.431892228996567 2.2276102693274904 -0.13334897990851227 0.22679521008481585 -1.2274227948210152
Ni 0.6365057011954955 0.299863021075173 11.637108889332483 -0.049497335399179276 0.3055576129966996 0.5320203794427611
Ni 2.0834544157367425 5.176955122428077 6.994235831880958 0.5017199286870069 -0.2870279296236283 0.013928437155634077
Ni 5.132001274710301 8.570737848360967 5.723249587294154 -0.8308776976011496 1.9825897318524113 1.0475034233521314
Ni 2.345933489300137 1.8498396603019933 3.097070571068922 -0.6019155617720021 -0.05464776925186717 -0.5316110598194845
Ni 8.394302376032028 7.370904010175348 12.416708982097221 -1.7795818539951802 -0.7385218722755476 -1.0059667375609256
Ni 3.6552096485451444 3.4788672869198467 5.880826417707685 -0.556381839006261 -0.34688218277709937 0.2574900680655114
Ni 2.2595360673918456 0.1643189764641618 4.930362597119874 2.096133246999222 0.4398812981136554 -2.3973590653897876
Ni 1.1875618474457628 0.011970312060060315 6.765113667896877 -0.1893388650105707 -0.04299887215902917 2.512227727105925
Ni 4.846970788725107 3.4253751876782115 8.863519800424259 0.7451537757697683 -2.0731357576627847 -3.175582627130331
Ni 5.52600852823668 6.386146586329596 9.360480490073297 1.142423409860484 1.5896454646099267 -0.09664622517084001
Ni 6.592870970552884 8.22637722201586 10.30105036729224 0.8937082597741254 0.5123905210269756 -0.5342186726456606
Ni 8.782071212414474 3.904671845739556 9.248175014876955 -0.02338649724474037 -0.9477381929363355 -1.8229769331513637
Ni 7.686931049402562 0.180993241272155 6.4124019425422265 -1.8355969359082194 -0.4337240202630079 -1.4273605183933546
Ni 3.9072044568785858 3.7927807131744156 0.10267410401173856 -0.5695787973125094 0.029915813722825896 -0.5792649142520216
Ni 0.6467851228774392 3.0111815336025094 11.117702933463795 1.3489436717463479 0.2924647843684834 1.3774034697489375
Ni 8.67491941466465 4.113705375413136 6.22149148022529 0.6263793512413213 0.2693773064214006 0.15350231492793562
Ni 7.928851279602069 6.146088570202903 0.8815041712573679 1.4453698104865818 1.6348336311107907 0.6383910309902167
Ni 3.005296937132411 1.1815468959905677 8.309798825835792 -0.06863148512546889 0.03208531057031894 -0.7771552683770293
Ni 2.2749458888443965 7.182745900258034 3.3378306419010655 0.27215384072527327 0.9717327560787199 0.12773754725900582
Ni 0.2611699370702052 1.8605473912206847 13.399524116665027 0.7995014972827135 -1.287908510910898 -1.521971972522353
Ni 0.025003948355698483 1.5352744591219394 5.355479067839678 -0.6067528352596454 0.14879976724594374 -2.693833999358928
P 2.1872635392258624 3.869615665818798 3.759594196182764 1.295058748802434 0.6330364515465227 -0.14218123348816158
P 6.284367276179845 8.175585333179807 7.696130386922272 -0.15905152688093896 0.1907696839198263 0.6589030349006394
P 0.7699938614701181 6.093909331882603 13.47079663587391 -0.46604484388290063 0.4488431352926334 0.3098600970267954
P 1.4579180865371686 2.3330655900569797 6.619092806912203 2.0037403977880976 1.0048632200841017 0.967933694047604
P 9.23274564017664 2.606131350624332 1.6482829201307694 -0.09254660118016964 1.0420400862447152 2.356510149694225
P 6.313147794675214 6.047605378962037 11.849374291529434 0.9064082238392971 -0.036080033552008825 -0.8946721663492915
P 7.388865064907656 0.6002996040847733 4.244454218786646 0.23359680638768157 0.005734074270299801 -0.5057383058177807
P 4.352599507744318 7.78448313360702 3.8353918955885877 -1.3811284840090083 -0.40620164647302304 -0.14192489450298137
Ni 4.402627888810516 6.266853152825012 12.795776623224434 -0.881489092000114 -0.6556346485620128 -0.52558773644354
Ni 3.4628615569639947 9.104671867318729 2.323085053733723 -0.24011918088723158 -0.28464168877963886 0.20417747268529998
Ni 9.265176098254727 3.6038218512057907 3.831303404591721 0.8152114518188025 -1.3548091293881892 -0.9596696542665988
Ni 2.5844644898871203 7.361388096263259 6.033170426576605 -0.017535952001234315 0.42988124947815 -0.3478028948191559
Ni 4.141200966198262 4.337022087025213 10.590488713987789 -0.8235593095628655 1.503882976231126 3.440519124171558
Ni 6.637564108300464 4.598262788230185 10.142601089585593 -0.5228351133990673 -2.4568934733099947 4.26364700262396
Ni 4.327422373479847 8.356592541057507 0.21588833967561488 1.3863928177317413 0.369353624406738 0.8182669508156747
Ni 7.955043320536225 0.6844018471483194 1.54110132695578 1.578045161366837 -0.9159647571794806 0.6690928309494476
Ni 6.567740391640234 2.651290041890117 6.092301310030727 -0.1187649114467503 -0.6442492895432065 0.3744757761246518
Ni 6.014299680269725 8.988637308441573 2.6746524485406282 -0.17609536973710319 -1.0957686861164226 0.4201707070586054
Ni 5.429499283912998 3.2405876852326942 1.8226904413344112 -1.6695669208269182 0.668379864042823 -1.2912136640247314
Ni 8.893515413602138 1.7918037587226874 7.610630552197078 -0.4956441548065722 0.8002838839746927 1.8513493136464696
Ni 6.971384602993434 4.832194120057314 8.044740585781547 -0.7213368758558286 1.3353623335174873 -3.478611045947273
Ni 1.2042286633974648 5.572303170086882 4.4555063885151585 -1.3988719240353586 0.571137657159197 2.7495870858598326
Ni 8.76224794360935 8.555700469722979 8.180253903860356 0.035381979043719716 -0.8274599301688523 1.0989601964705267
Ni 7.983190686246837 7.85715603779866 2.803365891932551 1.4192741418407944 -0.48483060913083603 0.22154681720168298
Ni 7.2332584569831635 2.5931610296071703 2.830881035965442 1.9306691317237201 -1.2168200796045043 1.3561381326122581
Ni 4.8416448564768535 1.4517727800968763 3.5400931612058866 0.005627630599422566 1.2257675186057793 0.4986878267289024
Ni 2.56469708750418 0.6987492754723291 13.433825168779258 -0.7900835464029232 -0.7095892484015972 0.23490626922772445
Ni 2.240764949537862 3.5277504063312635 8.784329146977763 -0.7008187012978189 0.13371561921931163 0.4176674810207775
Ni 5.6249386508550225 1.0233424994344968 7.971164507764591 -0.08383364678720401 -0.5574239071175302 -0.6834064193586424
Ni 7.658336752314474 6.8490557605501605 6.745680532940007 -0.2454007410011451 -0.8845281359367542 -1.1471133591369858
Ni 6.207867522068569 7.062465493294858 4.3971110796197985 1.04286129659443 -1.3477815331174465 -0.23869993194220177
Ni 5.284134853388993 2.4665770280075123 12.191756315422175 -0.009892576523363608 1.3662513097868598 2.8344008371721183
P 0.8018656553263616 5.146703454815182 10.08728588276667 1.675956883513662 -0.09375116301123208 0.6464038739923642
P 4.120781788889836 1.401353334075387 5.575402825411084 0.29987393234836096 -0.513462928155548 0.4809523571223524
P 3.916590015805578 5.412869712242753 8.638989856343741 -2.5736349265688125 -1.1811066853632948 -2.0387210276283403
P 2.9609669311290294 8.130584930110212 12.181030893469792 -0.2829982396389449 -0.5934332353326038 -0.34108048849365774
P 2.7120075317342778 2.5272293403591246 12.395926673044595 -1.1595842379104868 2.0574774823002375 0.7867333989837677
P 8.813449519541422 8.392496028381398 10.307182638234021 -0.3589144313512851 -0.2664560190095475 0.5393637071817098
P 1.2499087746036377 8.912388953230128 2.406214289944223 -0.620960237108279 0.037032627273265256 0.04698253939712554
P 1.0141710951258787 1.6743539171501916 9.45592920348251 1.6847217741904854 -0.6651528724650931 -0.9607641728823584
