# total energy = -340855.7038177944 ev
CRYSTAL
PRIMVEC
9.37718191102480 0.00000000000000 0.00000000000000

0.00000000000000 9.37718191102480 0.00000000000000

0.00000000000000 0.00000000000000 13.72445358685835

PRIMCOORD
 96 1
Ni 3.3324160746615243 2.2150029288158932 9.398231020821154 1.8385812153475238 2.069663739953784 -1.212004660493732
Ni 5.753613859800266 1.8331828296866128 0.3821323592918865 0.8202644408616777 -1.3460722637358236 0.04578774775807598
Ni 8.430208575531989 8.427076596723866 7.646126120382084 -1.4452397126666208 -1.4755874717205426 0.4697423473391458
Ni 2.542838590824311 3.538385878614927 5.8625785907767884 1.420511099571689 -0.8037636149931771 -1.412774907269696
Ni 7.477627535941442 3.1650990151604743 12.514588381350652 -1.9796972407959648 -0.2128667729291818 2.553347122854054
Ni 6.821665519280738 0.42086949838278137 11.485405141509915 -2.242168307015835 -0.13334692302598325 -2.1052136120339355
Ni 5.264049938798707 5.603841507933945 7.299872735089127 0.4664433648728999 -0.35000555889742946 0.295429266313446
Ni 0.43118064777623283 8.347726882130027 0.9723143815181391 -0.5019626408254323 0.5745052880798492 0.4043291120406585
Ni 1.1830065343570835 3.6608237447756173 10.397659524266507 0.34509320919747666 0.4446442667199374 -2.440366165078933
Ni 2.956991213697335 8.454448591157737 9.938440164411919 -0.6313418374529192 0.30463870072685595 -2.3055794242826293
Ni 3.5590531878757186 5.659026224358519 0.6699921564592506 -1.2270373864571384 0.6895094469325866 -0.9866322988983719
Ni 3.9937512166427513 5.4772214185743815 2.9838887227189574 -1.3400455979257697 -0.33621313309902745 0.4439104738777064
Ni 9.224774720225257 2.868508123776811 0.28468937191279337 -0.6871314336187134 0.64300050473777 0.7424366339489213
Ni 9.101849240597433 6.44142078673758 3.9149556935086727 -2.2285221769873105 0.04618755429965594 0.8167916518217287
Ni 3.8063201016224646 7.239400225700778 8.182629401622638 -0.4137720026211132 0.9022839172582783 -1.9849996268454846
Ni 7.22265257854117 8.314062798533728 3.226646149612929 0.9720294613835325 -0.18123911872157175 0.509510114155387
Ni 4.102048292256585 0.17361758812733213 11.462581080375267 2.2299044020468175 0.753754887175218 1.0540540799864555
Ni 5.528739656813398 7.903454750479478 10.637083362938059 0.7281253595325718 1.9669965053998446 -2.0590893068720475
Ni 3.8953845768307236 3.288315187432166 0.3420177121563409 0.10909576378810244 1.269171596623027 0.2731169759694909
Ni 7.2301730785534915 2.895495653746212 10.380257349799091 0.46085095838678697 0.6584134968587305 -2.692018543416744
Ni 3.351864350254484 8.763839336053643 -0.1090631913881556 -2.40565447262936 -0.18271261794330468 0.31216046302519784
Ni 8.013627262505361 0.5827084081242329 13.102269509121435 2.9353523745865315 0.2530808832542222 3.806182187100587
Ni 7.10809154531109 6.876071929594311 13.366094650950169 0.8851927661039465 0.12868705565646868 -0.0016460202438552298
Ni 1.6677787153258543 3.072911938326152 7.7591333545447805 -1.5521960615142172 -1.0392440115568164 1.7916038181567209
P 6.0309815279604155 4.08875144809515 0.48474780029541387 -0.3421012164486883 -0.03352615678190355 -1.1201124050681095
P 8.037679734489904 6.802226620869839 2.023300507367162 0.6402728213939618 -0.9540116846498732 -1.8511222852373281
P 7.252725201408394 4.781697070801481 9.063629721956264 -0.9435267259581491 -0.6435000700820078 0.16676535058542893
P 9.159096937075262 2.543504370750589 11.469374848777917 1.1114848113000988 -0.19846293879902593 0.5404075750651919
P 8.119992638614782 0.9264205770788609 1.7334536853212306 0.5623671100554186 -0.21343524383814205 -1.0570507007209342
P 0.3589875985307762 4.441220967375846 5.768868659575881 -0.6048651313186293 -0.6242594766848409 0.6032165399716127
P 7.680146536896673 0.7764897508357217 6.259613167798825 -0.17397035297430039 -0.16420736005026557 0.4316224005389728
P 4.292995850549466 3.7465030572601266 7.293120226287541 -0.7958857549069971 -1.8418994810874796 1.2742598097792117
Ni 1.499852138990888 1.475752781096044 0.20947218145290597 1.2409604242961336 -2.5714330338214877 0.29091672315507316
Ni 1.8334735223304806 3.3380423838976743 12.468707704966256 -0.21142849782075845 0.8981477836027177 2.048195285667363
Ni 2.197101888262875 2.00002165290259 3.943858981772983 1.0091019407557977 -1.7686212412186186 1.259273877893341
Ni 1.872857686983533 5.100455620575577 4.2099627788423595 0.034520145264056674 0.3803098663079256 -0.1699182943921138
Ni 9.37840109391834 9.50152349436943 3.5419379551793497 -0.05096466397332512 0.45510505704194526 -1.8922640495829604
Ni 0.11838035948322048 2.2746511839011467 5.194087721165384 0.40438927585463263 -1.5734896807856706 1.4072352083983894
Ni 6.952167762013245 6.823822271154596 5.699806651420342 1.2719455598237384 0.35603222470748364 -1.2621571129784068
Ni 0.7700157443413247 6.2426901673346915 13.638291740922298 0.8082874710054596 0.5538207631473042 -1.4237835996753736
Ni 2.1765658595509265 0.1124361637752277 2.4148175504649467 0.3593142378928651 -0.5427367374190007 -0.6199909312164742
Ni 9.056182363964012 3.856656814921889 3.695212684545174 -0.9308383318572033 2.1550243649084755 -1.4781827432515446
Ni 3.671851310878472 8.877275107436493 4.660220365801966 -1.9024168217462465 1.9019643075898598 -0.7268030411767225
Ni 5.451490431001055 3.5167808511481096 2.4893689609985565 1.9144884081987994 1.5866580998468285 0.03846241774125634
Ni 5.500195514621996 4.6463937108541264 12.159701424534822 -0.8147381117268097 -1.245395834359668 1.7726216206272634
Ni 1.909700635298257 3.4373748734619083 1.7505951741273686 -0.3234239517541591 0.09888925556874581 0.8992567003961804
Ni 5.283076241198956 8.896742137393574 6.2589689553912855 1.5510233813623544 0.15421553894487633 0.5777356220916889
Ni 5.124039233457107 4.1418356757382275 5.345537650902283 -0.3701678927779173 -0.8355409074047738 -0.8591878573997527
Ni 8.948138472265807 4.997906757564677 12.245739883092238 -0.5791782680754864 -0.71291368478914 -0.9034977350607214
Ni 3.832988807401817 3.1766329490945826 11.261326123561757 -1.6957206964041507 -1.3031068159178911 4.923997311494087
Ni 4.9800807344681415 3.9716960844370424 9.788253341098534 3.4413130808277637 1.317446629579331 -3.9473195527052662
Ni 7.889942231130656 4.707336017063694 1.2103654007360707 0.6663340372573879 0.7596689386668078 0.283726376054221
Ni 6.532970215191805 5.917030011564251 10.786528451150476 2.493340660393435 0.28582053957908843 -1.0052023485910755
Ni 5.705096319820529 6.293730169288635 1.5498475228633195 1.5793816207900733 -0.4938248422096464 0.4056534872790368
Ni 8.412157500066007 0.8866425707792783 9.250254399319369 1.6321105757526728 2.9768440660724154 0.23100127774636345
Ni 2.848131507159887 4.947260597257264 8.518096214391688 -0.0020437699029061574 -0.07785711748879494 0.10223683188474006
P 1.310001710999056 6.616980389269591 8.192552335678794 0.848159881720365 0.36872601812506817 0.5519528567006301
P 0.8012173799286022 9.074392851525019 12.522466151999469 -0.19658989014602918 0.5004737149847316 0.8481526826315134
P 3.0959516746481874 6.750961566546449 5.811688623735809 -0.6318362605908344 0.6144843995759481 0.3061451100690534
P 5.434939704664712 8.649231416913262 13.44808404229397 2.373289426035093 0.7611712342439472 -0.16516509597784457
P 8.639976138219794 7.139008114563736 11.761349353433319 -0.5025136282328958 -0.666662110020768 0.47045737112829944
P 5.991062863929929 5.488089572582212 3.9865973644489867 2.215990363068887 -0.8253451978186948 -1.5617237984989942
P 3.766954691333533 3.213297730950162 3.642525111703245 -0.07708038722377049 2.3211415403869444 0.783636762336315
P 0.4767312473521057 2.070547439177734 2.937568256495938 -1.535160189077853 0.7874635922815728 -2.771168411575034
Ni 0.7367314366184655 6.626104387414214 5.997119585822645 0.5370643696245718 -1.6581550794455506 1.6813829396252398
Ni 8.005647280572088 8.38563882919962 10.076644824488714 -0.7775447905059641 -3.1260428685289905 0.8199361109879814
Ni 0.26218788584101627 0.9307162641806618 7.248419199406327 1.760446161606994 0.31230855856728795 -0.2311833118501825
Ni 8.555637762769901 2.8690332459721852 7.564465868128598 -0.40394730322120753 0.8855547774290554 0.7293558895055633
Ni 4.846277723650427 6.887877801808167 12.457000293164034 -1.5427691117733624 -0.6728450989030283 0.9005849322893005
Ni 6.038370747423893 2.147618498530933 7.764787795327112 -0.7826792835190521 2.366417381505608 -1.07371324897828
Ni 6.8518225367865035 1.7444559330325224 3.3149360695830117 0.4821008689044987 -0.27162650746689354 0.10987506515628818
Ni 7.705783752649397 4.991098923388935 6.991236853349072 0.21140844321610044 -0.1536784354944837 -1.1041250285009179
Ni 4.874821865841829 7.031161143688795 4.660439791862176 0.003928645630444847 0.5607375448717956 -0.06739427028425812
Ni 4.302935663533331 1.4690668502870856 2.4594491861989156 -0.3166969174429707 -0.566828745371198 -0.17485944044747304
Ni 2.1247381743039218 1.1397308391490275 11.132906552964833 -2.610261576652911 0.24455227695792078 0.3867641065737017
Ni 1.7281958993400481 8.47401877011748 7.222988281658927 1.2178181818517155 0.5583207079001868 -0.3449376574562188
Ni 2.2203666769543564 7.582295642097959 11.822367614817576 0.9744365281631281 -1.1188299388112601 2.157630435072755
Ni 4.142642113395409 0.4822234628847944 8.106266319514988 -1.4027365491970873 -0.5986479467643239 -1.1055085391120056
Ni 4.999060150958089 1.6635214746705005 5.228234729637786 -0.9252780641606064 -0.0058418034927576815 -0.4119218367862519
Ni 9.336391318288419 5.109701522086984 8.770131425216071 0.8046236490006271 -0.6663474069938266 0.327678613265455
Ni 4.1938696589905575 6.14230743337971 10.071951544867558 -0.8727383423906776 -0.322455931413935 1.828034550179929
Ni 6.3137973388975706 0.2793621947843651 8.770186750590225 -0.1466122726763217 -2.8523435376934683 1.245331556780636
Ni 4.596516479475654 8.543822513373986 1.754094738472254 0.4118814704666197 -0.7822835907425302 1.6144928626709096
Ni 8.984146851377169 8.410516493205463 5.317512066878813 -1.5264014690486165 0.6611548070492936 1.3826662608097735
Ni 1.7760101506652655 7.625308776208327 4.106974125992834 -0.4148719205535113 0.4915864397974308 0.4531805863257227
Ni 7.156205866462236 2.7580074103788195 5.603735545776663 -0.11768761922217152 0.5615106755923942 -0.4224967840886208
Ni 0.7628187571100824 5.861864049503797 2.077292446233672 1.1382319974869557 -0.5270270399932278 -0.19466593365043894
Ni 0.7736447137986416 7.2451203067575305 10.23567057961209 -0.48835430601337826 -0.448996373041046 -1.782270456570937
P 1.925088591059128 0.9818284704364693 8.815244110389731 -2.091149934852018 -2.346715017980675 -0.6218927762248773
P 6.214399209058916 7.439077940491753 7.560458060516047 0.552656567635874 2.0811239180745833 1.658494979283473
P 3.194196411093432 5.300236484369214 11.958665893781523 -0.22537261870567638 -0.15911040514333244 0.7711856810571557
P 5.503055555150373 1.7184717615435685 10.507922057240167 -1.8900904389704094 0.06733924867660662 -1.4872535952045614
P 2.598810990541946 1.018577646930591 5.892250807970039 -0.2145495599482434 0.12137432404513937 1.0441828436193308
P 5.550766657472927 0.021213998974904724 3.647616921561961 -1.8538129446956138 0.7400084841234029 0.75050784099283
P 3.4986641354077053 1.4899873434635045 13.154010924293484 -0.09901806783712624 0.31849257589081276 -0.6783346612626898
P 2.571776574662244 7.271526451439197 2.230058932331831 0.577675972498347 -0.2793704130783705 -1.8810833503757929
