# total energy = -381172.220952695 ev
CRYSTAL
PRIMVEC
9.20207829436751 0.00000000000000 0.00000000000000
0.00000000000000 9.20207829436751 0.00000000000000
0.00000000000000 0.00000000000000 13.46817174413692
PRIMCOORD
 96 1
Ni 2.4756351466684494 1.133594833598259 10.604811921596436 0.6702518842545553 0.14604817264273556 -1.600193158218786
Ni 3.6958675482178047 7.272393341920711 12.964933378356218 1.084606498852016 -0.7056976266566749 -0.23125093186332432
Ni 3.4900262569275156 0.34739502259970256 5.990656088892701 -0.6899650464127666 -0.7380606163684128 0.8574361648159684
Ni 4.568049739186776 5.133535859816704 12.594020604039828 -0.3630143124522716 0.4333347552443892 -1.30595534111028
Ni 2.4378974232305906 2.458500876724218 5.970400473961851 -0.6067356088684648 0.46280139724493846 0.027630360122758865
Ni 1.0016002213103645 3.9912082538354827 1.6962356715929796 1.6603063214605986 0.042178176029946716 0.50963609821029
Ni 3.12867904308751 0.16074742639516962 0.04257341562673896 -0.5305836469962346 1.7941980612464585 -0.02197727560203957
Ni 4.398483040871869 8.96001770856535 11.37863861800476 -1.1182846078307516 1.5464923262612205 -0.5513507043402569
Ni 5.914939547563416 1.5945361417489088 12.21755805625224 -2.3477809973513435 -0.09496112415893322 0.4552675507617386
Ni 7.140104263124646 6.189722810079369 13.086241617020999 0.5392505786426133 -0.40957133427620424 -0.3980941868745402
Ni 5.435649295122327 3.9989287975966055 0.9173064227227461 0.2070789626028111 -0.987030562778055 0.39817440529317233
Ni 3.9118955402751534 8.018599079862543 2.221885074706488 -1.4935373713307438 -2.5738740391628125 -0.6567726188211979
Ni 2.8048763090393765 4.933528686219564 6.450661545672069 -1.2098289929986519 0.41230338849538667 0.0920722326469124
Ni 2.8883391599492483 1.617246871191639 8.2180090385728 0.105151948649006 0.9633694717156892 -0.2730557837142523
Ni 0.6105753844858578 8.339834434042556 2.6959779932783494 0.9123713834012673 -0.52972258454752 0.0002236859750318728
Ni 4.2314929245034625 4.925311230225901 8.310306804935655 2.2535032724126802 -1.7517337214346604 0.7150965513730717
Ni 3.5498581705566212 8.73475082981412 8.759402277587267 0.5490508525624866 -1.071975697461883 0.37809100427973596
Ni 7.950015989693715 8.843491790034841 8.882838036773588 0.8694113348999736 0.6972494958893217 -1.0939126067442904
Ni 2.322668997751713 1.049644272534228 2.033061186965 -0.5779878473118111 -1.164403770786317 0.5165058287469297
Ni 5.8136522708307865 6.35378666552282 4.877201844245537 -0.12058705225715362 -0.22760433624967252 0.8486861865374803
Ni 1.4805131885378588 1.8900976972477153 12.481722120317256 -1.1969421097336548 -1.0031547220334271 0.7541616356953333
Ni 2.628113585431027 6.336330322835276 8.367883289153735 -0.8535594554693816 2.069830090328319 1.0438725114677634
Ni 3.7490003487860077 6.745905629466752 10.713391845445503 -1.1453704083039502 -1.3400653954201114 -1.285950872963895
Ni 3.78526573968301 1.9618371003010076 4.1557386546528186 -0.624423255956215 -0.9298371442861987 0.15868617312172026
P 0.9768466304671942 6.660068642334747 5.672430734550903 0.2568982001177834 -1.5956217367980197 -1.5037965871649068
Ni 8.413754729671995 7.4883293131942565 10.781487225460172 -0.6800650136902352 -1.1607481763116008 1.2241598077990272
P 1.824174007730811 6.337627815886907 2.6430752446696553 0.11059445982081599 -0.47400549349087406 0.12223615782480238
Ni 8.283149631219535 2.3899729990256713 5.5859781283752525 -1.5227846982316355 -0.43857697747993496 -0.8706169251723006
P 4.202064677843069 6.73438462733454 6.748618402173283 0.7012434475400633 0.09893682097722961 0.15274641059851757
P 0.8386157696609293 1.7479992028981848 9.166222481951664 -0.045629367803340766 -0.7185814245978785 -0.3043833901829403
P 4.3442643950547835 1.9471505832059521 0.30130181199247563 1.0260395970514007 -0.32050343567325446 1.0194210632936185
Ni 3.2994604157486247 3.0046902389905297 2.198557806012274 0.8289632541872562 1.8421833308764854 -1.0029498051114727
Ni 7.344721677990346 5.600605752168675 2.465106128585641 -0.5884401529933865 0.6940849821184111 -0.5854283627502562
Ni 8.168942636440878 4.707746491079033 8.723456198810064 -1.1887428617523141 -0.9706292386018961 0.3486616432750253
Ni 7.015462111462659 1.2710738846008485 1.4113568088859338 0.1281324687045793 0.5125080204414464 -0.8367992052919073
Ni -0.01174277222117834 6.017947612953175 0.8553718341837282 0.28330034426039596 -0.6036747105549539 0.28799080775752983
Ni 0.04208110443338966 0.7594374064449534 10.982190076182867 -0.44136765285119467 -0.8574950430783619 -0.4277240939258311
Ni 5.412331228506494 6.4785760504388925 1.0219717824288073 0.0720155711063534 0.6399465484027946 1.2032456833541794
Ni 7.149195916564442 4.2662583766244655 4.316791590050216 -0.9005594783680039 -0.555355711734592 0.10120813350990955
Ni 1.8880180275337537 7.449837019329208 0.8019068385859943 -1.133603497576009 1.2200298447910536 0.5161229914862144
Ni 7.4345063567475265 1.9699441313541053 10.141479913482568 -1.181898585136971 -1.50862923266686 0.36762018665539914
Ni 4.678686327553852 5.2177716853105265 3.0912413074048506 0.38691605877053364 -0.017568347901066518 -1.1579981243702897
Ni 7.889043018345446 7.890331309318696 1.3607702234055767 -1.2927064465201739 0.8708300696243713 -0.03648009720390491
Ni 6.624741863432542 5.523096645970895 10.515059450113588 1.0152414779946322 -1.237995685240855 -1.794293449173742
Ni 1.1288557632323732 3.626336643975799 8.23698556460878 0.8750582487731058 0.24944097250878977 -0.6904283592024303
Ni 6.5196725324855835 3.616021114111415 6.820538165962829 -0.5903098592122737 0.24536783088068065 0.02985924945327761
Ni 9.539150511433352 4.9456938338384 3.667787406040134 -1.3852669316574142 2.1501516101972067 0.23189705008775546
Ni 0.07640577699997325 3.343538371190553 10.572528270014615 -0.6171835436746661 -0.6980609360470236 0.6612687069193386
Ni 5.869407663737392 7.289500005629803 11.38860538909853 -0.17102206897925384 0.6928107433916778 1.7626922773286935
Ni -0.1564362526739706 0.3242545560966094 4.511352973661859 0.7020201778050877 0.6645381216992297 1.1866497266687113
Ni 0.42195854350792755 5.953247799860859 7.63336879179415 0.9395055206138981 0.3816486397240072 0.8434838164009343
Ni 7.847385209517552 7.483222159693156 4.208830966076148 1.860119860750248 -0.9383364400064613 0.41230261716443833
Ni 6.929395072371146 0.4633596143490085 3.6542244627153204 -0.07958746991634036 0.6944716760338685 -0.08238765836929682
Ni 4.532943810165699 4.252657704778293 5.152774645086525 1.565592280315465 -1.1057224548950246 0.27874974877523606
Ni 5.867374004415332 8.320215602935628 6.577074177214436 -0.7902545247631487 -1.2919875660762783 -0.25863060942785776
Ni 2.397656734473273 4.162909834334634 4.234164287857281 1.2039015717706234 0.6431131190562343 -1.2651089965178792
P 4.5366614498313655 4.320265374638803 10.5514509094844 0.10437187594987186 0.009149013489119727 -0.2641641376515773
Ni 3.1759685238841837 6.590169654957528 4.494180975196268 -0.7332593383250274 0.16660877040290661 0.3835605120347394
P 4.320145747619858 2.8779316093010605 6.884848731139657 0.8365382383210368 -0.08865266544240216 0.9633926116441409
Ni 2.5169892869097907 3.4954830894070694 10.942902722745757 0.7664594792260799 0.5461570759544594 -0.5495763860486536
P 7.368325009035972 0.547522743423626 6.837872121007916 1.2656831238537942 1.5098435646899353 -0.8717129864499569
P 0.2779128893731127 9.334128205118915 -0.1683437420981574 -0.4703835804675705 -0.4428370383078696 0.280903047672813
P 6.381917419131583 -0.12232414811797333 10.293157771426054 -0.5268830582161959 1.0011253503082242 0.14029635776062288
Ni 0.18838310818706896 1.8154688415829896 1.2528592906547624 -0.08560847929943965 -0.5550489791274505 -0.03599107338262834
Ni 5.669685754570042 2.8774162929117604 3.1050738716262085 0.4031397197182477 0.03819373746090197 -0.17040628977212588
Ni 8.173286017436409 2.322521764497627 7.931944948170363 -0.35823360323417663 0.07216340953812733 0.9150715559412499
Ni 4.691256366621427 1.95781579204879 10.169399019288583 -0.875044621926351 -0.8476528601769595 0.3763899624282292
Ni 6.512301667702914 5.881020686653407 7.3826728896466305 -0.6813179122607298 0.2620748592227164 -0.27771667952503143
Ni 6.049777602070843 3.451994066981485 9.232499531278373 0.2722607986167827 1.6917383147176348 -1.3682436576265404
Ni 5.57141675954617 1.1506646889938281 7.927904315553547 -0.5486088799290617 0.594283499148041 0.8413487723358025
Ni 7.914477562988763 3.6969533934666874 0.9786548388689351 -0.8717669796163439 0.614408037812058 0.4602043259417236
Ni 1.7813567370269925 8.570917026330175 11.788097978448643 -0.3378383274072762 -2.509466105200388 0.07364359362807961
Ni 2.894532158699231 3.382472364817859 13.235468961491796 0.8944970742240079 1.3692276188063643 1.190010415610828
Ni 4.7703850386141475 8.568156402816069 4.32005096621254 -0.5028242174947792 0.606246070826556 1.2829192852264226
Ni 5.352499314877388 8.82689124063667 0.2309013113435258 0.7514514358530219 -0.0893031545422075 0.6564381182999146
Ni 8.202548626685955 5.292520167994197 5.952676350793437 -1.0327753731133376 1.9577287069446736 -0.25453021410623905
Ni 1.7674892049077888 5.965799434771671 12.531312120709021 0.20270705878736056 -0.465739911047972 -1.2706019013116505
Ni 7.98711876972333 2.255834302475153 12.448832971978009 2.403030918963584 -0.4898982534617305 1.5472880826896385
Ni 1.127549068102362 5.236313873246953 10.023242408373314 -0.2772916761724708 2.0782368263347757 0.27266111937899495
Ni 5.748989266051991 1.6973509634926793 5.485060775193513 0.2541239798067559 -0.2650285425344016 -0.034106454765405775
Ni 4.86074024623091 0.7135687265502072 2.357886271921192 0.13552490451390853 2.4704735259872743 -1.0576893627461978
Ni 3.288693984043603 5.347290938514103 1.1489199749329118 -1.2166195335579242 0.42171311184506083 0.34343227655528596
Ni 0.6841045917841302 1.1296103336595629 6.8313257624481265 0.41961406322418704 -0.6126121222538997 0.5071277299661395
Ni 7.219361764214693 8.979351275242488 12.379216488407065 2.4816076882272227 -0.42523346629349346 0.5677052344388803
Ni 0.5723996421170932 4.022292874604342 12.935074474427623 -0.5555657708628691 -0.25247127469468134 -0.7632810814980984
Ni 6.42034529844797 3.7848056357639916 11.957204572844534 -0.08717479534529503 0.4855381767208219 0.29165282999014935
Ni 8.677283850328765 8.024718461985485 6.4960360739577885 -3.7891959369552355 -0.0651440407975007 -0.8287953611508243
Ni 0.677468052856214 3.9665926941680176 5.866075591155863 1.1142937415038034 -0.24342767643517432 0.7007631654695351
P 0.9183729436070299 7.416599112219345 9.64531212908406 1.860451018837422 0.32089218647124096 -1.5725494283595884
Ni 0.7590592010235205 2.597194602073015 3.8104288230141057 0.4732495891614559 -1.7361350956654549 -0.5941585435344025
P 7.926108990061538 2.646784602464779 3.105383061459789 -0.2442224044223278 -0.7067787755359958 -0.9940126505228428
Ni 1.4382204363017208 8.057974773252107 7.179882087339431 3.6525253488726577 1.6041382589094633 2.011154173753665
P 6.159300738953896 7.668340370470873 3.084831139605091 -0.5960683589626057 -1.234316179506739 -2.6736577815213693
P 1.971536090913908 0.5234961167725041 4.106041910151842 0.3704039200481234 0.2896563683854108 0.5778896311710499
P 8.511149527249733 5.29311830308892 11.71963911633795 0.6913105046970675 -0.13073982442043935 -0.6210934202520336
Ni 5.899654895373637 7.3232256228938235 8.96178910865357 -0.8810646028681859 0.9042063310919719 0.5481170278943077
