# total energy = -340863.82733671146 ev
CRYSTAL
PRIMVEC
9.29869927180351 0.00000000000000 0.00000000000000

0.00000000000000 9.29869927180351 0.00000000000000

0.00000000000000 0.00000000000000 13.60958631121257

PRIMCOORD
 96 1
Ni 3.249728014539517 3.226574253383854 6.347932794778775 1.9985627102419 -0.5321383930778641 1.659285336395252
Ni 7.15317318440651 4.2942509023369535 4.8912171662149815 -1.1410725522595446 -1.614535542983387 1.5153367265940225
Ni 3.9061882861484873 4.34014928188087 10.926878252858085 -0.14750470258360404 -0.9051321853403508 0.9453234128472557
Ni 5.146737053031279 6.889545761706028 11.751306508407392 -2.2806824039306335 -0.03837088646871456 2.1074910952142027
Ni 5.72747801657175 7.825385452560739 0.3046969877190428 0.7302197801677554 2.6575320796041004 -0.33804298721891457
Ni 6.008401019894534 8.720915282126374 7.9645200298378285 1.7556387129160214 0.061248562397836465 -1.4973269202801631
Ni 8.390820757120398 4.502885817617921 10.936146266409834 0.16661185572670018 -1.2225983768491782 -1.178175370649113
Ni 0.9239354960629519 8.767445973219923 8.520444624795074 -3.7132573766453922 0.8214535760737723 -1.2659780293863938
Ni 0.44023668786248626 0.7848474122821587 5.405305983334699 -0.1776002364174038 -0.6204041074944928 0.037040854803381366
Ni 1.2018940740618709 8.167159143836397 12.164357519115383 0.6054600845901509 -1.3422845145586173 0.14147135190533056
Ni 7.889583672246962 0.5035636194281133 3.51251204521718 0.37412276366060726 -1.031910454009881 -0.4680289641924649
Ni 7.810098390978446 8.13086632062734 12.290177288923076 0.6515296252547038 -0.7373116540175302 -0.00921406239910026
Ni 4.319468974728182 5.446982753414893 6.755023339261552 -0.0023731282178668803 0.2811331614057481 0.3787571771088251
Ni 2.4986348805686256 7.134175941819755 0.2877519680588161 -0.17047982332253866 -0.03993180319793123 0.5976236192648676
Ni 2.092858242291188 2.609707843220993 0.5986260816958134 0.6447097741193929 -0.9633841270037085 -0.0007857291260889693
Ni 2.7301910895237738 0.661387652346475 12.588186652134828 -2.364611181534805 -0.1904953472125171 1.0049400960686241
Ni 6.623612261589239 6.0103537467389865 1.1213385125086082 1.7710465628306598 -1.153270122767001 3.803747352406849
Ni 4.398870567703365 2.047713057387275 13.609586464484158 0.9357118578994207 0.6376973473573018 -0.7771758372023195
Ni 7.68222267876452 6.044898414487295 6.335588771512051 -0.00020311714974158567 0.743107691874017 -0.5470289370364514
Ni 1.5878737816162534 3.192196962222213 2.906925887125779 1.8932166433042168 0.560976400355479 -0.11242611371291607
Ni 6.313082199824835 7.6601103719258985 10.089031044407681 0.3949001054172747 1.419021145289724 -0.5103683483906243
Ni 0.6850872471486589 5.840150355496716 12.454541097030505 -0.2490591636893388 0.5188550457053968 -0.6264698540725985
Ni 7.249647189221772 1.0859485929976291 0.44346984559494573 0.7900274963540072 -0.9225226129026565 0.33171498811835776
Ni 8.118787310289507 7.265157419586289 8.631295348535144 0.1204402422666442 0.30716326692092266 0.2584143796519937
P 0.9351050936132259 7.842197500821558 1.8402748847009796 2.317728400940337 0.7716914170489806 1.1674595268935055
P 2.960361792289286 0.7410319413723258 1.439472120657343 0.002268484319202545 0.6241003253991574 0.03493486420397209
P 8.462597416702954 8.923943081753983 7.170850011698444 0.5535960487310079 0.7808124055136423 -0.5499499673379883
P 5.704538125499051 4.586825175831644 2.973204225836308 1.4817290658419062 -0.1162377741495224 -1.0647107883693534
P 2.647014224649314 4.964463950150433 1.9068256752998067 0.3245644931165056 0.13059070043708476 -1.24915067341641
P 3.901380858631428 6.5062719756361025 4.786709085239682 -2.2060425078275556 1.158986456425488 -1.6561676167018766
P 8.589310791509467 6.55548069211633 10.81968935688633 -0.6411032877150572 1.4533008924082 -0.5575329218915689
P 4.132676704007316 8.575995054170146 8.776481519290186 -0.8213175647165404 0.5797038015616532 0.7857849190275692
Ni 2.1373711156454687 2.127040260768384 10.147171161526469 -0.36225300880621486 -0.5787959450354032 -0.15314107493377496
Ni 1.4086506520924593 6.735066470911237 9.482547561837757 0.8096612114245346 -0.6001157895591019 1.8638803562339448
Ni 4.284812722588762 6.037877896546522 9.464678251471156 -2.6857797615958843 3.47962740302693 -2.027345181691231
Ni 2.6352234739885185 8.59247234925763 7.105946020738439 2.674528871272413 1.2004233834140359 -0.5213996665041214
Ni 1.6243618775097561 7.116396828835969 4.195441064267755 0.7202621547344111 0.35726943954869433 -0.4979090395813489
Ni 1.501200605820296 4.0482817095298875 11.253944191515307 -0.16355250007508607 0.888996970341385 -0.7594372822719759
Ni 8.606001956679915 2.301985988632899 9.702641264215965 -0.8366919902900816 -0.7809427604439195 -0.30328218669896156
Ni 7.541031229211272 4.446452011813215 8.254553898694878 -0.6126231779974933 -0.720647820208604 0.9396754705328592
Ni 2.3594798461531656 9.020100930794428 9.971171891035876 2.7001627697904333 0.32828436517025394 2.4957934928093017
Ni 4.253531898280468 7.2929605303716025 2.0951280547803837 -0.20286723851430866 0.8262065173777255 2.171600524099602
Ni 7.245918410818792 5.717044876002812 12.599238156204509 -0.46251754745593243 -0.32850213760801494 -1.2243783515677367
Ni 6.555118042845217 6.350472269546491 3.896955607653926 -1.817352902096367 1.0056479207689262 0.21821723860781772
Ni 6.439181860480236 2.88859443140599 10.609311865364168 0.18124837469295235 2.4078447954124598 2.8020069942224453
Ni 7.840635319345995 4.4554159578991825 2.8211174903609364 1.64302568000328 0.4051973735782247 -2.444116890370616
Ni 6.6466730357523085 3.3784127135890025 0.3195405013466672 -0.19059484890485884 0.6739429599528973 0.6132914077091116
Ni 8.553008669601152 7.2595317065344105 3.2685327740516037 0.3068634762923167 0.33092771633037205 3.0184974799471433
Ni 6.436857185665409 0.7029156432385194 11.845294041040717 0.23082849961392501 0.05217153979723273 -0.4325189442113132
Ni 5.259009547888095 0.7262088848830719 1.6576744676062067 -0.7550756628691706 -0.9992502447726984 1.1094096739386248
Ni 9.003837505789908 2.6374737592092696 3.8984936125114147 -1.0653859600595073 -0.31420243315589114 1.6080710183049658
Ni 6.051760854540661 5.335919089461785 10.283893656215698 3.5679008307530427 -2.190736730708421 0.25611787030833316
Ni 2.9075172843986703 4.317506949184469 8.566812588651585 -1.0589651441348278 -0.4579466402557984 0.023432777101643515
Ni 2.1332424931743383 5.038769855931518 5.4396153939917475 -0.913776234168594 0.5107825531099074 0.36339586416140646
Ni 5.590396592091114 0.44211874459256906 4.202014314774155 -0.06085904026890164 -0.03561055011475803 -0.0665450349100854
Ni 3.9016505209099477 2.102203435046787 3.937144585852631 -0.6435250097826724 -0.4115436275112267 0.5109149649227136
P 4.259548156701237 0.17267963485502313 5.787108715181804 -1.8481428908940298 1.3560414591333936 0.5609848849959113
P 2.5695281637215475 6.577286141879394 11.50427819375469 1.2048922178186667 -0.6078818066577659 -0.13347702084594434
P 8.764591272547317 5.925428726403779 0.5351429319826302 -1.439276038884018 0.2145300195642176 1.1120720512621363
P 8.594917907162825 2.3332854103397107 1.6841050903808479 0.30680588358150385 -0.1120910989710005 0.1442856814256741
P 0.8018268371296449 3.6021301190685584 9.040983949590968 0.025475261452969033 0.9085244988513516 -0.8652764867959937
P 6.23011920503334 8.2636238499524 2.7062794843784777 1.0064804439725505 -0.4686362587591607 -0.6986630884073968
P 2.4034533949504064 6.337658661967171 7.452868401793974 -0.3325184578562596 -0.15345834906387765 0.545850343347318
P 4.972265558828987 4.140840961956983 12.806716313297619 0.43862762821221235 -0.6334995072258703 -0.22180212774559868
Ni 4.321923831332637 1.5905704044014513 11.222968364542718 0.1331299219191707 0.5168151324572325 -1.4859870697873117
Ni 5.858664065721987 1.5405991945819602 9.096375371208708 0.5674504381155968 -2.5460541887370667 -1.7864785811150135
Ni 6.627229455601108 2.353603068221286 2.8988146317618892 -1.1168031381892185 1.1186587033407187 -0.18486077463455902
Ni 0.6587393827974256 5.639800581255788 2.4190082590713677 0.7356244961230944 -0.9764689852121249 -0.20909316481936246
Ni 9.411306507332538 0.3279130501597431 11.101693798932972 -0.1608135038773682 2.62124430091666 -0.6236758362672291
Ni 4.550448664329253 5.80837670012768 0.49593868603548535 -0.5301229053097323 -1.4058804941427077 -0.5008794350635826
Ni 5.2266779705635 7.656325801327362 5.86084554056822 1.371705905143528 -0.7093380516227397 1.00795882829029
Ni 9.059564610450908 3.942527602853841 6.331247208827883 0.9014457376276991 -1.2122250040346543 -0.674833847198283
Ni 5.721564043842832 3.4572377872101088 6.938058005611734 -0.15313001919018143 -0.5268254655053831 0.1767540863670246
Ni 0.5918891740824489 0.3107113863999596 0.4930765464034721 0.21331157377608423 0.4887409999288357 -1.6573151000427586
Ni 0.2682693333707257 3.962212949185784 0.34189178475625237 -1.01687669960521 -0.6372936841609799 0.3961895136526596
Ni 2.8312958465701685 4.753550853550936 13.155801571800868 -1.356340221320735 -0.6208679345047887 -0.060799390675559804
Ni 0.8619884914674053 0.7152940716925027 2.7250070646867126 -0.22955991731414654 0.2201656205834402 0.8923319482518889
Ni 0.22795854221172396 5.631971076479455 7.829853477554833 1.8269102067674987 -1.5089048549257496 0.43365820002207894
Ni 8.224550715664813 2.550856375608868 12.33417780394817 0.4343264297336971 -0.6942477329485204 -0.2164784015398401
Ni 0.8215437990390696 7.50319482192517 6.463015356551753 -2.187785104279264 -0.6982378279445202 -1.4978709657090914
Ni 3.563791582022455 1.6340046286416525 8.329393549813446 0.16767809220768543 -1.003722421611439 -0.5972320402534037
Ni 2.9615799218922545 9.074833074634682 3.3963536239399 0.6516864625475421 -0.13511275667715442 0.3171607444532667
Ni 7.47387602316059 1.676797242632962 7.062041282315717 1.285773466845766 -0.2568331512078028 1.4972148201823312
Ni 8.26229413595832 7.937434778635333 1.2513064320558775 -2.571747222627797 1.2725978486957568 -2.7908864588292515
Ni 7.4993172643340404 8.2935098693718 5.370152250784907 0.41296776155226295 0.32736031069408783 -0.12661191829499482
Ni 4.219433568096607 3.491261727799896 2.0077407388813118 -0.3049953127353264 -0.419519960848484 -0.5598016633210874
Ni 0.9852250826208658 1.7696540534363558 7.644055237784786 0.18184718461921587 0.8125321052144265 -0.041769884847934514
Ni 4.300536823036242 4.51410004892464 4.536946023134821 0.6837782008757644 -1.56345080849243 -0.17304629849813422
P 4.567455985274517 9.042808354385645 12.632676278740961 1.4980725401969361 -0.3061975605735436 -0.9153497493033009
P 6.757885478893565 2.0507351346465486 5.203951949573765 -0.20499714037311792 0.5937669645229388 -1.7455227075279423
P 6.094358195847525 6.1961231605413305 7.8558889056109535 0.148120481790732 0.26075331219781545 0.949208863944591
P 0.08335261029046066 5.496702898354383 4.6878899484712235 -1.0682362850241087 0.42595748894371155 -0.2157489795729833
P 7.705069582844625 0.12648648654458663 9.894577575367075 -1.402094287627398 0.1566264623792141 -0.16333909851269934
P 1.0968466685295317 2.1858080400871747 12.173937968962239 -0.4344747823861034 -0.4080543834110456 0.3912259989997972
P 1.6481851450120886 2.651356717203408 5.368015409695119 -2.5324234853275094 -0.9806138606184339 -1.5202758157668526
P 4.785036249242935 3.3593782762052102 9.183884500068077 0.09478860313681094 0.1652247455711864 -0.6828446333179015
