# total energy = -340865.783184043 ev
CRYSTAL
PRIMVEC
9.28929650856911 0.00000000000000 0.00000000000000

0.00000000000000 9.28929650856911 0.00000000000000

0.00000000000000 0.00000000000000 13.59582441677249

PRIMCOORD
 96 1
Ni 2.253044505495633 5.270876776151343 3.756675960153021 1.1039931309087436 0.5911482959531691 -2.3672974701177165
Ni 4.990330738308522 5.46257998409023 8.406950641671253 -5.5421388482066485 0.9283484755558141 -0.9000938515854949
Ni 9.001430306152455 9.103222415111816 2.1894583433275625 0.31017042917836257 0.8049977445105942 0.42021235892981823
Ni 3.2804871238064592 0.31539669080712446 0.35776052662654056 -0.02719250125439188 0.034177674322973396 -0.05429321412592585
Ni 2.9189291328486004 8.591865231867166 4.202360605278488 0.16431303239019443 -1.0739706164047245 -1.3386875412359782
Ni 5.779818742355525 3.276511304985999 2.9750244064727003 0.013066346265654916 1.3258633928881167 0.08241568339375484
Ni 6.696059194545481 1.057920799502254 2.2548809993760184 1.8867690879066603 -0.14721108260258517 0.41560057118941973
Ni 3.0423188557275185 7.232014434417652 13.321841146791169 -1.8465410936245488 1.1242045728596124 -2.3802062077595845
Ni 5.521056104358451 8.376492896931707 3.568916987427143 -0.9905241777536101 -0.7400766183571771 0.2523553179421073
Ni 7.539220752668701 1.6347396538398586 6.148004646230203 -1.743262707849172 -1.4257309532097318 0.846674298313774
Ni 0.9554784398012296 3.1637113798998966 2.9795250705346468 -0.1715311474051885 0.10013264105754369 -0.5607995084579825
Ni 5.027831627509921 6.05812605978776 6.155033856747592 0.8030940997299781 0.6134598149661756 0.04627085804208161
Ni 3.991545599112463 2.900582772637364 12.32041320279506 1.5016178343460331 0.9338776329041595 -0.6151420877646051
Ni 1.828124224410762 7.854685255338885 8.328584280145158 0.5542285401086842 -1.5119711525558992 1.9277324176928994
Ni 0.8261667905250136 7.1906491979515055 4.817870307674738 -0.0667779768564979 3.5443646953043153 -0.13178009275949565
Ni 0.022981719069671214 0.8790814090927453 9.030019973404164 0.8992605570509222 0.6307103745165074 -0.7476721713162477
Ni 1.5403418247428502 2.839004027401773 8.266192721482488 -0.5622203000649091 -0.4327287462292741 -0.6343932226847333
Ni 1.6891749302134533 9.244512611979115 10.71984515435928 0.2274960928065824 0.07685490147652571 -0.15239082703131174
Ni 8.07975561562145 2.164108782628603 0.18332519159735988 -2.1462196221326524 -1.3628816219836786 2.018687763126549
Ni 4.694457361555046 0.013628326615648601 9.343376734741726 0.561478022582246 -1.1437051047863853 -0.5480807753397335
Ni 8.822620641491136 4.374812675545593 8.229959821227332 -0.5308312442306664 0.3039625005954378 -0.9390434933758149
Ni 7.516666341229267 6.968635016154763 3.152558650750726 0.8354707162884708 -0.7099615441393515 -1.4527550472070592
Ni 2.6770637248384834 0.6692408501095853 8.31021655455241 -0.750869595207623 0.43545822934529527 0.2079186848952871
Ni 9.087969390571637 7.07103092937424 0.8760958292588762 0.13330887069919622 0.4843456990746174 -0.8839408959747164
P 0.6355727245654801 6.14362474302028 7.097101339466815 -0.6905916242531719 0.12459411653401768 -0.7449681421215235
P 3.1655785284581035 1.8209343090672192 10.34412470224798 0.175385231043956 -2.9549547221984915 0.826397807452925
P 4.58933039522058 7.602053552906072 7.833261351260314 -0.7418288251615934 -0.29706268815181097 0.729607086284421
P 1.6727514543382802 8.378843088898007 1.3793638932772234 -0.8979377244744406 0.8307599410763628 -0.6685793816481389
P 8.626077710175007 5.568487251314693 12.677562493724437 0.46507219555698615 0.5171606887221093 0.06997900029229884
P 3.5196493465905156 4.045163417410823 7.050060342955573 0.07540814172767013 -0.2146290070359271 -0.04269805308915872
P 8.555088907777906 1.7284593643062747 3.6007588373168025 -0.2448322700921848 0.21516019694904878 -0.820447246296445
P 6.7528446628853755 4.7691061466980855 1.447860377474489 0.5379097483440026 -2.833380366327404 0.23029088194290018
Ni 0.822336813656612 7.009851623879957 11.641261602452884 0.004366761609127963 -0.2550521480479801 0.03334515111934903
Ni 5.477833008630408 2.8084886890251077 0.8063480768487229 -0.0189891395079931 -1.6646491718103267 -0.6304157260942239
Ni 1.983320497853364 8.566663370979528 6.3381825517150725 -0.30716995178914197 1.764698766235761 -0.9636296673556114
Ni 9.026362777447119 4.793016795398705 1.4337610835359493 -0.20987092352565145 -0.6641650546305271 -1.2137532677537224
Ni 4.466730262527969 1.3508308907330027 2.386991513630283 -1.8068440321452433 -0.7785488062904462 0.35762270912305505
Ni 9.204438587699988 2.8531051791995745 5.581548001925832 0.21334782633065838 1.4992521623273343 -0.8637114563017191
Ni 7.613934562885906 5.134760717328428 10.716473139798937 0.616041716760739 0.32915211248718795 1.2207754647078266
Ni 3.75105500695615 1.8786022605565154 6.453801778231103 0.5019158467478969 1.1459062262027622 0.8272470428270979
Ni 5.642309289086187 1.3210958532463344 4.514166983061996 -0.5606866370292021 0.2371217888218045 0.7938522694167361
Ni 7.265762447910019 9.016107394321445 8.766709295933964 -0.15125774186813304 -1.321631614194956 -0.44547241904818763
Ni 3.018761200286659 2.7364594854413444 0.7997489607504632 -1.3893719549647232 -0.43150490112450196 0.09865914183581075
Ni 5.235549582286363 5.935888209651218 2.492617315176569 -1.2532883497338674 -0.6031196093824323 3.0902659680396973
Ni 5.159265880992855 7.50736775562347 12.854974119291176 1.2711395189826753 0.10268497516575219 -1.02637769711711
Ni 8.17553754986857 4.17018805644021 3.600324098249519 -1.432350001188146 -0.9684941945367644 -0.288351019310426
Ni 6.4787082394961 6.718149141169442 0.8576732968179012 2.968600338006384 0.6048278503227906 -1.8031724968309266
Ni 0.45570315119524935 5.080697012807213 5.112464548326397 -1.7853403537455124 -1.3815933394605688 2.1138635743994496
Ni 7.2954881961003775 9.063900823833757 0.21220468489392452 -0.4118439323604649 0.6770462814685695 -0.35738128253621027
Ni 4.400562604915492 8.85789209957826 6.0911875942828555 1.0405205642763953 -0.20331769578816594 0.046785335784654915
Ni 4.07328211733964 9.12632489503351 11.645244852710391 -1.086210353004026 1.113573061287695 -0.20046454261008703
Ni 4.154674931603367 4.1163380057341135 4.7736300340008055 1.8285860518080252 0.39652349995331065 0.21905310424555174
Ni 7.717770317033354 7.657910091615019 11.976452854765895 -0.7015437523893014 -1.9936341625920309 1.15429625003867
Ni 2.5891498245654976 6.078887637039465 6.067380985700902 0.7480552656872794 -0.08825003068734479 -0.11836356224327359
Ni 0.7242799307432967 5.03582042233608 10.077999367996004 0.7862127505936073 -0.38808076850259615 1.9609063333417067
Ni 2.068020301603268 3.4048800906868015 5.088780558455729 0.7512935701189191 -2.0781926033604017 1.202567426340232
P 6.574601645298936 4.616975341037614 9.019306627970431 3.133838967534641 -1.958475869523343 2.099993244175261
P 5.7034049909136835 7.702944600123412 10.589025852292036 -1.147849723082378 -1.6085453868382233 0.7067970303684408
P 3.5286320961217896 4.176374727782329 2.127120662583487 0.2762313532287565 1.1813604532453137 2.0260953684445298
P 0.07224378632851254 2.8999139433030803 10.145421080610262 0.2118807548668286 -0.38101023480905993 -3.4660560921003984
P 5.992134898805164 0.9180927378740675 7.557796558498783 -1.2034799108521725 1.1059700521294564 -0.45657289983672333
P 3.467006904404652 5.673344828056183 11.984855023277825 -0.9567758776585715 -0.4082464448171937 -0.15158787151404218
P 4.035669756582527 6.41189033114196 4.329332280814344 -0.19470758552165177 1.5042156769801966 -0.9750199114704241
P 6.23710293178265 1.6092776926555543 12.545913657496753 -0.12738684878780643 1.4231729626745684 1.9012616250958805
Ni 1.8357135794956132 4.383303092372465 12.73863497231116 0.4466538409507985 1.510097332571954 -0.6175614958393751
Ni 3.223748101948112 7.019995535449918 10.16361230957313 0.4788952174830075 -0.06119379790050106 0.32100891455476327
Ni 7.744226232922773 8.849513154307102 4.338930910690937 1.8067234474069789 3.5493256388540164 -0.663361070671993
Ni 5.677181307432002 2.6578720386630827 10.762155112260103 0.25212468998854 0.2833131997762024 -0.8650759407494133
Ni 6.354296694023139 3.979683167725248 12.747213637452973 1.8443772532040106 0.9344877556843326 -1.2059132028840136
Ni 7.066089023737592 6.382944883841597 7.767865634171156 0.2394830899651295 0.7728669254143206 -1.107244033745874
Ni 7.248094206329374 2.5146589574597193 8.921429957405522 0.6097983069541885 -1.0609739470347406 0.09728000210009698
Ni 6.450942532827043 3.8487969827245743 7.097876995708657 -0.2718424801324415 -0.35016342463153244 -1.686768115196553
Ni 6.526771058601387 0.2785748491659483 10.98938244714573 1.052662856065884 0.8331132717998878 -0.05333033599202428
Ni 1.0565831408336877 0.9319579415456081 4.60974548171994 -0.18627642403516306 -0.796397661546409 -0.36067717967866275
Ni 7.2269053214474335 5.714468542818284 5.0378101896055725 0.04226636486837882 -3.4114242636881316 0.9041675074342364
Ni 2.05783923284807 1.8552582589307742 12.421892262468791 -1.9985657955656932 -1.2757572202603447 -0.6327168634235748
Ni 2.0514203290982143 1.2183469467670969 2.4388731624483997 0.22814761034765224 -1.663190070766297 -0.34435041749418116
Ni 4.6181550816689185 5.07512343502152 0.41224132055205176 -1.5647870108053503 0.31936186586964355 -1.2922552179153681
Ni 4.483283788551475 2.246681337523634 8.65523774022012 0.9797013761064933 1.7304357312878327 -0.39816386377021107
Ni 8.975410987189582 3.228225542769285 12.09219377106358 -1.176118231009768 2.2019040601791495 -1.692731017648207
Ni 3.632272775046738 7.662898443733214 1.8563330305137817 1.2632292629966633 0.466699446747764 1.7963739858518548
Ni 0.2590617533382396 0.1180288699787128 13.242700057952861 1.3273363778892173 -0.4723633299017607 -0.13625329803950084
Ni 5.08670718751945 5.1521038335382405 10.816674921230113 0.9302888871116366 0.23385751624823597 -0.15585461721019608
Ni 2.0692743566050487 5.982501898532225 1.2001510731560736 -0.9323858788499813 -1.6419522444334433 1.7604024528532523
Ni 9.0705055135098 6.957450703398139 8.851955310306867 -0.8645180113634143 0.43569811327024316 1.9602954392305851
Ni 8.758097189325438 8.154878154876272 6.7115918269045745 -0.10762946365522108 0.7273668840999925 0.11945859507966522
Ni 2.2170206144074416 5.2567756243535415 8.304642047837087 0.31796138597769114 0.5682886177461761 0.005633029916061266
Ni 2.8729842733018773 3.7716586661705924 9.966446066474635 0.7953486514566044 2.0540214054308366 1.5187146419273199
P 6.891134417044712 7.562574043590752 5.554628550150569 -1.6395004404588411 0.8537116647765297 2.574974985536475
P 0.31674085198310725 6.102937625184726 3.1587722610521425 -0.9157665251257454 -0.8574816733419233 -2.146431481033142
P 6.353423500170047 3.4290508396840877 5.011501973527474 1.056791790632593 0.1477427867363391 -0.19761756007959516
P 5.628393923214576 8.54867000402805 1.378303984568311 -1.3489971506921026 1.426803360338304 0.8709254575516548
P 3.3178208056742884 1.3732924092093426 4.549475598334356 -0.3249524725835436 -0.030446232304999175 -2.5268737591538737
P 0.667722050162984 1.2253696547770694 6.67864919540224 0.21166478220128065 -1.0876038909174433 2.673407870294093
P 0.675240806595883 3.0132247796862046 0.2551035841807671 2.4963467942096105 -1.2730933002749365 3.2514646231706257
P 8.674279868724936 8.689867307932257 10.504174633012287 2.0497322911371794 0.2526353110763713 -0.7548571191004613
