# total energy = -381162.88202806574 ev
CRYSTAL
PRIMVEC
9.32410041068562 0.00000000000000 0.00000000000000

0.00000000000000 9.32410041068562 0.00000000000000

0.00000000000000 0.00000000000000 13.64676344554928

PRIMCOORD
 96 1
Ni 0.34093293003759345 2.8220694915286653 4.29432255018644 0.8342751533184729 -0.3426892277416744 1.3127080864530811
Ni 3.068141822400302 8.184685914394745 0.3987013258220773 -0.4685848366959349 0.5757448169139052 0.003065012078568915
Ni 8.881019048486847 4.924840589939922 12.072281885635647 -0.2342079576091192 -0.04636830285189434 -1.3677566906877927
Ni 5.4482955804720605 2.0882161778515727 8.33421464599727 0.009417179548841845 -0.23795122670163538 -0.8880878282635544
Ni 1.39429798573574 3.376601708342308 11.132620503388573 0.7730322473475912 -0.007638233271548137 0.4137303507499004
Ni 4.765146724196353 0.2315761521438076 7.148829654229574 -0.19068329485360708 0.6823144718460442 -0.7020232631288813
Ni 8.296090264713198 4.07574139662305 6.87405214819135 1.308296844759263 2.3237254990640364 0.0005049646608765497
Ni 5.603840221584586 2.97465839284784 6.0064725880908165 0.14282478060943143 -0.06619407932856988 0.2104026276594054
Ni 4.03695313939801 4.4451249538891915 5.210825664532113 0.7851133468818413 1.2959072128456586 0.497541371829285
Ni 8.539878191012686 6.343800820954564 10.351015674873357 -1.2328745619642059 1.0498451841114307 -1.427161257898355
Ni 0.25109335888021433 4.055834442494334 9.023144444455555 -0.2465752209252205 0.4699644906522809 0.24908461761063552
Ni 9.151464577528257 6.311492813434188 2.5990938894964866 0.7300516300210073 0.4621938455679266 -0.8350256583312522
Ni 1.443408021986769 5.734759913819388 10.591921521771823 1.112651063694058 -0.06463007727555967 0.6731834560790535
Ni 8.037346481541363 4.013307221051208 2.8588465403201853 -0.006449612280085666 0.19228406368182369 -1.4578710282773861
Ni 6.925652651631034 5.827254988740635 0.494758207055816 0.9759776473980031 0.39232848803535664 -1.4125777036572253
Ni 6.815535027153219 6.335092111279519 2.890180179359787 0.04822823887876856 -0.6518389289650064 -0.28942111244615315
Ni 7.061131828909837 0.10786865148678676 6.334076716757449 -2.5449468146055008 -0.8524736786043705 -0.1351315257302318
Ni 5.459484500825438 3.427380758546049 3.5413762763363392 0.49990575829640355 0.12517390029688763 -1.2237296622401441
Ni 7.003014711774339 3.402373521556252 11.855448068467444 -1.2042003339579648 1.7297302205803757 -0.8326283617436692
Ni 7.202186818164738 4.545461597158097 4.906789131769808 -1.2977730624098036 -0.9086029174977707 -0.861490280280684
Ni 4.479484263474353 8.789754754804472 4.815588241969435 -1.469473388403005 -1.4890150579803583 1.9255426091304322
Ni 4.069755324233993 6.87151692532128 2.789890156592354 1.0159544449012567 0.061923476977673995 0.36167451059492556
Ni 5.547821027015347 5.850360109270357 9.395114507143386 0.37419295477691045 -0.8036484295715515 0.7355003118404042
Ni 2.658114511950519 8.598573402366442 7.434388617438306 -0.600889691610649 -0.7967810130277567 -2.000289977345652
P 1.5028025408626104 0.7393619921310719 8.019261456610188 -1.574445616941037 1.5720670894065314 0.13305124616243538
Ni 3.3845924622946777 3.752036606699568 1.418308476404057 1.2882152435180396 0.0007312217390697083 -0.3842243708709834
P 5.466831891857489 1.1272650774021113 10.457882917988517 -0.5012149640261304 -0.7097555987761325 -0.2370353997555853
Ni 7.071425635634943 4.123014585116066 8.633774678208196 -0.7459780714432765 -0.5966075192955274 2.072324831725715
P 9.039752531900085 8.887844289902407 11.35414807264502 0.5889710857961922 -0.40658602639563524 -0.23947434821438116
P 8.092610423986748 6.47104681767334 8.264889027897778 -0.6478354642325682 -0.046097308578694804 -0.677219316711324
P 9.03033519060266 5.0247576486955765 0.7547215825461697 -1.0141844974850276 0.4987662453753216 -0.3210091716650794
Ni 4.346224222065636 4.29805591994435 7.931771558727019 -2.7341396409565104 -1.878212456585901 1.2669499063813598
Ni 1.788418381083139 4.80919377398748 13.484544615408764 -0.6610529913641067 0.5143275901486883 -2.143981991051385
Ni 4.064375318364078 7.775814792381477 8.9557703605477 -0.37325218813019584 -0.7608920124406315 1.106442878000817
Ni 6.903880877443422 7.993719016263489 12.664782771258444 1.0468477920460035 -1.2102444832695156 0.39523743415203544
Ni 9.033701190808967 0.2797957368167139 5.6160930217815626 2.316578089385978 1.3485855170759806 -2.193982748449544
Ni 2.111489132186596 6.406309589328761 7.120485321744383 1.354015172731984 -0.7593969159523438 0.6752573078889468
Ni 7.6414451830377175 9.116200830214531 9.633155058021359 1.3556658209615298 -0.04372366614019566 -1.0574281386650113
Ni 0.9950773075272602 1.0959547486132455 10.06598911779144 0.33222252388239554 -0.31898159971208934 0.37546487951079854
Ni 8.2954096053917 7.9149769892765995 4.074500358873854 -0.32516124616024 0.4464597226621214 0.17003347981373942
Ni 0.6244275374411279 7.1535989315302 5.52276343988396 1.0690027308764878 1.1610867905979423 -0.20241343880634172
Ni 4.822340755402697 9.109916386616051 12.37936087232404 -0.17414518798926784 0.4982291419249291 -0.16523554420446382
Ni 2.204972561739058 5.708130283378352 4.196843743657793 1.8880857498355548 2.558482901418723 -1.1080593305583175
Ni 4.6937893846426935 3.0720299722231004 10.130074591525435 -0.5573655430757691 1.4164623834236123 1.3383335003306693
Ni 3.43445775066956 0.8944115235179597 9.245668760033482 0.6380074223985528 0.2633449841843916 -0.1262949012752083
Ni 1.1231717973728341 4.282046439738727 2.0863308447720286 -0.16714227430887343 -0.9184355873174762 1.8273799473150656
Ni 3.4490872640315997 2.5224675008664157 6.398271282464889 -1.0786649365566003 -0.7374299247629493 0.5818100492713787
Ni 2.08494341864821 0.917762800295457 5.368431864219747 -0.9673713937862307 -0.8767477206603869 0.2727099703390594
Ni 0.23517432244744768 5.096003099045703 4.6555661678955005 -2.6735035153316926 -1.2724353549759635 0.7351673539810178
Ni 2.0359452716007147 2.129941526669373 2.7515830229425102 0.9532192706555649 0.05598242890289069 0.7949164490151922
Ni 8.006968562781946 1.6891819816489824 3.4760078064018245 -1.5403916126801211 -1.5694319657765294 -0.5512478602138056
Ni 7.206886164713157 0.7887965070723489 11.64940969462019 -0.20694783634158553 1.074883358026981 1.4963337031289583
Ni 7.63089962560466 1.6757739254255193 8.063272142410165 0.6480200694395485 -0.06495403627388167 1.444016896003113
Ni 8.637995698411506 2.5660949661442904 10.694477300910815 -0.25456518110923254 -0.41745742189250035 -1.2803875199435044
Ni 7.663823023744472 2.289719309315592 5.897475720468397 0.5119912287060279 -1.2593037026900118 -2.781030391970778
Ni 3.4172547856262434 1.0179586496499156 0.9463849909694239 -0.12760822076999315 2.728476272023146 -2.5316058745222207
P 2.0685236780296297 7.8672562439694484 4.021755788328037 0.09905072084727456 1.0943124132858701 -0.1982107135789038
Ni 5.893418804430269 7.889205176062656 10.499096373700151 -0.349954651054836 0.4910493363470381 0.5049158099164852
P 6.095313548106656 5.414738143512226 11.941791102014392 -0.5878724534153746 0.6771668662068338 -0.44695928800635926
Ni 2.434998116003894 2.9506861309907304 8.491193333735087 -0.2821405196243399 -0.7626107949039511 1.7639390052516009
P 3.0309200140247357 5.622059513560002 9.07124934269484 0.020866301926047933 0.2706068079531275 0.19614380374754609
P 2.312535382736186 3.6927819493281437 4.414673374737448 -0.5782673262254427 -2.752245349418286 -0.29090386763926673
P 6.3566214588594745 0.45029436998152655 0.2760577050086566 0.9013932871232089 0.7514612060450349 0.0777200776902984
Ni 1.4676693309530076 4.190959303961946 6.941221101892729 0.39644868085131724 1.605581162003577 -2.067394741413949
Ni 5.857884658208004 5.304573898532938 7.023047541257031 2.045145185987129 2.4131613225293664 -2.1078947584105245
Ni 0.8202028740942479 8.512344122843086 0.9519803835561417 -0.10389956429914364 0.12695773167018778 0.0981685753526374
Ni 0.8624848716996288 2.022527891276957 0.8032320791482637 0.515684618397215 -0.844982512433648 1.0693783690483518
Ni 1.194724943032678 7.934277876886175 9.542158366017434 -0.5083639163660857 0.35924558943845875 -0.18477747089213337
Ni 5.511839323978946 6.436286571775517 4.826887186706286 -0.5224149951425132 0.279149555316816 0.9954077310981567
Ni 5.542161298136597 2.300143653444821 12.981060915297373 -1.3497201449010563 -1.4895254219578735 0.9058497802326656
Ni 3.250931484573299 1.6214517171098757 11.693338328337576 1.797034245143673 0.7388337470890115 -1.3620611829649123
Ni 6.1936455098122485 7.937131051576286 8.02892308933533 1.723262610578161 -1.3920173630073702 -0.17019211687879077
Ni 5.464864506695353 1.0271708607408623 2.273932675107007 0.0004365733167863449 0.5729739390369873 -1.008742757644166
Ni 8.831414834920212 3.184245519267174 13.213997453674144 -0.1488589026186533 -2.0529371712277222 1.0116725296964513
Ni 2.36173865999016 6.147435268752802 1.481465269748721 -0.21888289721627466 1.3632202362700199 0.6959179215620919
Ni 4.164646692930922 4.217803388709756 12.227322092922241 -0.5494041221368473 -0.5139383251300698 0.038165198215811685
Ni 9.11030799882842 7.018865682274956 12.56412444652938 1.47645830436127 2.155590264714275 1.340953968672652
Ni 3.9097164667795288 1.5038934605970646 4.109244753801177 0.7543639815141265 2.7890272941333256 0.4548356054306425
Ni 7.474030962250319 2.1584453012696003 1.1993552912389172 -0.06974605834588633 -0.40020326279774304 -0.4170843548237978
Ni 0.644653375799915 0.19339023179779194 3.2596663017291685 0.11622080486865789 -0.5041830455155188 -0.08165669374054324
Ni 6.130204331408603 8.432660361726455 3.4505157161967146 0.522540464976784 -0.3226207391265734 -0.6345958256138425
Ni 4.410112957283418 6.42965713646614 13.416214811220721 0.16896570067085737 -2.5288362821968837 -0.27683839068513616
Ni 5.383110795313347 7.993429969154359 0.8759880337460956 0.9227221305079721 0.9545858119857882 2.858234963477239
Ni 7.835190663056729 6.274345597860978 6.056446968439143 0.44832248690247306 2.3493784237454505 1.062926442775421
Ni 3.922490484182967 6.450337990919298 11.118686567908503 -0.33753596567550903 -0.007541045572051528 -1.018838194206955
Ni 2.891077157808116 8.859368487603064 11.010659406716709 -0.8196923704082916 -2.199445571336328 0.6704408603369099
Ni 0.35125843870370127 2.2957240299052373 7.114248431057405 1.184416209352502 -2.0880998351717843 -0.07429742516199463
Ni 9.098951244669742 8.393592381492581 7.418367015902301 -0.07117636303450967 -1.0902302727966964 2.0592715980861827
P 6.08025512613107 1.0911808092624713 4.370471544881433 0.32357821794383623 0.8632877385007389 1.5267683654697317
Ni 3.197476417585042 9.212751888763878 2.731194945238599 -0.7023634200771194 -2.1010767070474263 0.8317485302418773
P 2.4252544311961617 2.8614917875737294 13.036834886028867 -0.028126325922570916 -0.2726508349663498 1.8963708726624822
Ni 7.908226340663396 8.760775451089225 1.776508707776999 -0.2890773559534892 0.26250243367843823 -0.5001883225338288
P 5.508072387459976 4.9936710983137775 1.7855018025110256 -1.8703541368837464 -0.6014921010813382 1.2227935235791199
P 4.4500014583432055 7.247623158899742 6.777173813721666 0.22297660766967406 -0.05574074520572981 -1.2276539369952149
P 2.31102487848848 6.9217831500088245 12.526159507360342 -0.5111491924207067 -0.38518416368109143 -0.44416347042877696
Ni 1.2657839113769147 0.7339251092493603 12.605132772034535 -0.520021298099356 -1.1370266643249451 -0.40371256150258217
