# total energy = -340861.09556411614 ev
CRYSTAL
PRIMVEC
9.35649869321566 0.00000000000000 0.00000000000000

0.00000000000000 9.35649869321566 0.00000000000000

0.00000000000000 0.00000000000000 13.69418160690477

PRIMCOORD
 96 1
Ni 1.759087239788822 0.7426271683473846 2.356276057627973 1.3940109963986314 -0.26038333045290646 -1.2153944029015713
Ni 5.051582972172444 0.8508650159133 9.433715951860043 0.2260012534286108 0.7575680902737212 2.1780779042938296
Ni 6.083193086211582 2.850195328678988 10.700743056877595 2.0367914147057955 -1.7361723766612935 -2.364965222440114
Ni 4.060748479205924 1.0938869689862118 2.5604423431491714 2.266196037389 -1.4100328257481847 0.8234469523547172
Ni 9.34924735343889 6.950231745673788 5.319450171733706 1.6068456305382972 -0.6219637386721288 -0.20213910209903252
Ni 3.6637335289183315 5.153709154826786 4.633015327267877 -0.8173225846245342 0.012773240505268325 -0.12576936778904146
Ni 7.67291834411985 6.110429853752287 6.698851632365867 -0.5758039522866147 -1.5120919944044797 3.671871100389121
Ni 8.197724352830988 2.4068189276307668 2.2050366779630113 -0.03514929420762334 -0.10731116108385388 1.8569059817986409
Ni 6.556800334365272 8.408357850212075 12.51959025347936 0.6674761212816311 0.5005264225995381 1.5643242122363188
Ni 6.901044632323913 0.830893569566466 0.9049989100940814 -0.9792516901635845 0.3985734405038039 -0.9520990410081925
Ni 6.992064651092713 1.1073135445344466 6.456833631597014 1.7412441347572463 -0.46824339419611616 0.007318902258916428
Ni 7.92716248166144 2.3430076069067525 12.449161081267356 0.13706833774162847 0.40735324357896296 0.5741530469467531
Ni 4.557082662555892 4.098558090209698 2.447587999154337 1.747993794776254 -1.4425521385321285 -0.14784588797310666
Ni 6.960261912215744 8.13503581194376 1.8642851609466387 0.3438176849191627 -0.15769424152209618 -2.039614743087203
Ni 0.32775721170530064 2.6332368382173392 10.58662932816583 -0.5503975963983682 -0.18111442021824936 -0.44088068591244717
Ni 3.1073680502948617 0.8064384890713989 4.888617092762115 -0.38610924659852214 -1.2094366426562397 1.1718080336701884
Ni 2.5367058417496477 0.4939099145523749 7.357623988602876 -0.10780378444955628 -0.710534385923686 0.5100765281818183
Ni 2.7009685318714656 3.956760353322244 9.922817561761383 -0.045988808025288534 0.5461334218053756 0.09270575246585325
Ni 0.31880210685706684 0.5988626954458268 8.6983522334068 1.751510549680261 -0.44016566212329356 0.7062424434165514
Ni 4.58321536325709 6.986609812385661 5.691603033835396 -0.5987677601716398 0.4165143412529407 0.7763456279915404
Ni 2.1967748896639927 1.745277047796352 9.417132493670712 1.9180614702620387 -1.8388524667310395 1.782448119799382
Ni 3.8167029251818083 3.1717220479399892 12.325269811476913 -1.7733862667074296 -2.6947714235715328 0.47840773632362776
Ni 8.924958209616035 5.424196174007217 13.700618036898275 0.6051178707593836 -0.3507416657325056 0.965832331433885
Ni 6.902635237092693 5.676671933305869 12.513153918064983 -0.6050219686114677 -0.27212015927386035 0.37102149902746423
P 3.148695704787233 8.436726754088205 1.9086948460909878 -0.14433916037142883 -0.49705594755243426 0.0019062158837773622
P 3.083377987782197 5.049393551490711 12.03162545816277 -1.5281274506007876 1.916062951774771 -0.8217322836564557
P 8.593401323813076 5.112690264789532 3.992155052027064 1.8422008143779822 1.2618709491965558 0.2779971868799277
P 2.11415700667381 7.9975046384360935 6.295598704435063 0.26695018503714674 -0.3293156346482457 -1.6848757832698467
P 7.108365929186481 0.6764290048203357 11.179518834879955 0.45243008131294343 0.3471979142453053 -1.8372316432981648
P -0.2084609183969054 3.1675864755411602 0.5901246613660384 0.42676275845382633 1.1224084001911379 -2.479083893364104
P 9.577124877813285 0.7318016994210379 3.6083346361214375 -2.7256861108725183 -0.5952656605556523 0.5889970539381211
P 7.5881765359384135 8.154254060150084 6.035108168401487 -0.0903969018270185 1.0641402605778638 -0.13866782101826441
Ni 9.49385203991831 2.5003090620404955 4.759645244210215 0.8639086599141895 -1.5380547370168285 -1.0252960340171569
Ni 5.674388947637737 8.125679313303875 3.596900059133634 -1.7436002936942487 1.3349882380075202 1.7420450333919872
Ni 3.852837722929043 5.988580171965068 8.981753092009999 -0.2947283835916795 -1.5551566868044377 0.6065175793203877
Ni 4.8438687023670015 2.872688351409271 4.489021620149642 -0.18367986695258046 -1.1656510129298572 0.21029078467188944
Ni 6.980275462806458 3.9068434330784583 4.020789680464567 -0.6016327404242606 -2.7001851383879365 -0.09482922656675927
Ni 4.34449365695907 4.943618334366813 0.23490144790335588 1.7753719296788908 0.12353353647998724 -0.05287319384994765
Ni 9.228108765548303 0.6864395227151484 0.96101346050148 0.6813845038326072 0.8808823116540506 0.4315820342193406
Ni 4.871610720834259 4.630203699426592 10.83281003517957 0.0030166753391367403 2.78109338399823 -0.9030794165763802
Ni 0.8976765142585077 4.689355483827945 11.593877926696303 0.7679620319135355 0.27844224483714625 0.5628165388880113
Ni 8.102166432221845 8.39156293515348 3.8066952142365875 0.9430266463932792 0.20081138442654448 0.8833590553293174
Ni 4.960768796373722 0.7196653850352434 7.328879889131286 -0.511663413052964 -0.21831416919699823 -2.1096166261976377
Ni 4.249852673216635 8.933117076430014 11.400364950526477 -0.049902541257397924 0.265067366192137 -0.7219056038751052
Ni 6.409285776808848 7.078593550514367 10.661139805084554 2.5425086374776535 -0.11656790379543151 -3.95149065336382
Ni 8.679836658248332 8.434415698924154 10.216242973007352 -1.1130454709189994 0.5545954365297997 -0.1329442882709259
Ni 1.550025634179236 2.246850870384656 13.09072028695657 -0.9109801594806957 0.17689344015836633 -0.09758210672154807
Ni 6.793173559504681 8.395436525590394 8.402379983231054 0.43333064147933115 0.43435651164068423 -0.5872854705636531
Ni 5.910472121319309 3.4630366330928024 7.091778728397693 1.3442593788968011 -1.4271427459555937 1.4142478922707966
Ni 4.671718483891762 9.183422128044212 0.44538149870674837 -0.2305549342375642 -0.9846839169227493 -0.15582144997941552
Ni 1.9740527960401753 4.5369755469787805 0.4741499250748022 0.06121822338053328 1.1276465086616256 -1.9339568013360564
Ni 1.2286673318937524 4.524147787343498 4.83252581906587 -0.3778981715426395 1.9668720640068384 -1.5419054782214865
Ni 4.486048124881887 6.405402829873296 2.3098519183264568 -1.3356430979826996 1.9061626619419236 -0.3925082081463305
Ni 7.5835918516048695 1.3866330984309276 8.854945401593504 -1.5321162600452065 -0.12375979355818043 1.0126762883706173
Ni 4.401680576646045 7.990468551458901 8.176960411049356 -1.0486010272916846 1.6253030659125363 -0.39413597355774055
Ni 4.741237268786104 6.867295741729849 11.823569676156971 -2.043635434210822 -2.1317337698116514 2.5746996203879013
P 2.7089776947072064 5.090983187945 2.683580414799103 -2.013114897024462 0.16515224046203814 -0.36394505179665704
P 2.4305095821869553 8.525257944218795 9.342567749059876 0.3114420968019346 0.7181571925762664 0.07598046929137238
P 8.290550175837286 5.091460369375633 10.907936169708796 -0.37492571917787687 -0.2783005770529594 -0.391925339059667
P 5.215761453806503 0.8511653595196402 5.1213637390287055 0.6997851178269819 -1.545639491342622 -0.47159354161527167
P 5.883235353778605 6.433154204839194 8.439135116838113 0.9419074451871714 -0.3421608660420301 0.1846381171007917
P 2.878742006029276 1.048143047135815 11.784363139906262 -0.2518405830892179 1.6453589561221469 0.5168143611262841
P 8.885707697821719 8.792516971368466 13.098101628733573 -1.0477199102383117 -0.7625719712462158 -0.1907995087164972
P 9.02929252594939 1.8434080055314637 7.149950887391448 -0.9561955796750694 1.6664214332194012 -0.08990427846131614
Ni 7.237962791847526 1.3676300496933214 4.0624476193589265 -0.9600026121259854 -0.4643435449210777 0.06439687821883103
Ni 8.305408295677422 3.703405083151443 6.1141921018553855 -1.1842822548777991 1.1140435731662104 1.971737876739572
Ni 2.9542863760477065 6.777276868315517 13.323000979590894 0.24710923905181958 0.3359855904692536 1.4378493337398204
Ni 1.4818822545849548 6.8469921396813 1.4396011728811795 0.34038911885358797 -0.10283049960468096 0.8620533518730058
Ni 8.28121239019468 6.284591719435103 9.073517888070533 -1.5955363761730652 -0.4034788482252213 1.2428789814750854
Ni 9.222915908803166 7.92714376866416 7.659059498334453 0.37399600827475593 0.47230625141158017 -0.5256512426916238
Ni 3.196451273845205 2.5223249033401447 1.0883713130379997 0.12683843248350413 0.49467947690045766 -0.6766906979013636
Ni 1.4364845231842338 6.576514476999509 9.244393751431021 -0.434985917694567 -0.4475197884955196 -0.6376528672726115
Ni 2.3343060631716597 7.0602173871856335 11.144092324079761 0.8589749700579979 0.9095226010985625 0.6021096800606791
Ni 3.6290022059670792 2.6782790226697446 7.385409046963877 -2.253118892490068 -0.537088795104604 -1.7911379342638962
Ni 2.233237164863624 4.996576116668561 6.88585903503138 0.7848891466861773 0.5869031475235699 0.7188693881519426
Ni 1.8530264861332653 8.81080892620944 -0.07168387867961341 0.33578787263615073 0.6323646222904787 0.5586351538168122
Ni 0.8376031147411274 0.23606352503442954 11.678069572757714 0.09380926994267715 0.8326149920072305 -2.0284795524059906
Ni 2.1503760129088043 7.5655899482217315 3.9362967551469517 0.564895275793911 -0.012196799176508026 0.07184870651118594
Ni 0.07289928785293445 7.071538750539895 12.009414066041547 -0.08018088052596513 -0.6074730012551215 -0.07583083108738553
Ni 1.114433839999399 3.554496407297677 2.223893765321835 -1.104358998888595 -0.2845645556848002 1.867769921096338
Ni 6.92328502959092 4.226442713619643 1.0439541426947387 -0.3284010932537763 -1.4602279585453368 -1.5036461776299717
Ni 5.450347587705695 1.4565822822627064 12.352932299705733 -0.21457938474491434 -1.4396863869485592 1.521098311668148
Ni 0.4735791786577692 0.2864286215630654 5.9572705205664205 -0.17163887662764635 -1.0158590569739732 -1.1952451816472058
Ni 7.606197152318831 3.7368264962931117 8.953324306542573 0.7401270119791382 0.9314168300684926 0.15924950182435801
Ni 1.0814147562992455 3.314099887743116 8.202376403954739 -1.3525571001292191 0.513388880384503 -0.983387823819145
Ni 6.617916983480999 5.712123706652391 2.7262647615942575 1.0379224645319156 1.600791196814101 -2.907202137404561
Ni 2.6191553077643124 2.60231361021252 3.6389687483182844 -0.5176954781796568 1.832515468769418 -0.08697964861535343
Ni 6.716843243600501 6.293602027625313 4.786691139178665 -0.2552894608697668 1.2601313407976298 0.14061980253831266
P 5.744085506006238 6.991100931732804 0.4739281760570369 -0.7123912366267666 -0.607599756640973 -0.5965501836950307
P 4.67419795603133 3.2957330809130223 8.902806699086108 1.96884641412439 0.9604615540402749 4.007101557859905
P 8.742768468100197 6.986984072331255 1.664842971588718 -0.33854126701157183 -0.929850256912321 0.11222479633538737
P 2.1720269507614973 2.9106008838980846 5.80300524924132 0.05370854526704944 -0.4818152193432799 -0.18939594350075123
P 5.841982551275352 3.677075895978807 12.683071675964747 1.458814880247894 0.11452516233378987 1.252489765091972
P 5.968632116864833 2.263280881996294 2.2695778055809366 -0.08514413806851143 0.668219684315875 0.3514870285389624
P 0.37659813460549924 5.8048559646722895 7.610473072197259 -0.22890634289054768 -1.8361476662053666 -1.9145796823610253
P 5.557666627105173 4.603481539311081 5.496556527538494 -0.38306891711030155 2.493692901526531 -0.3918469204132477
