# total energy = -340856.565056461 ev
CRYSTAL
PRIMVEC
9.41823290247143 0.00000000000000 0.00000000000000
0.00000000000000 9.41823290247143 0.00000000000000
0.00000000000000 0.00000000000000 13.78453586233771
PRIMCOORD
 96 1
Ni 8.599845045434243 4.763280748974833 0.32432438732804797 0.7240956695478885 -0.2839644602069561 0.21049673003510844
Ni 7.015905458955741 4.378602441050325 7.787766382954721 0.5846310636599414 -0.9995166110602077 0.865248975992168
Ni 6.913981341622497 6.626847672694515 7.472114304556673 -0.4885579373837521 0.6834699256067261 -0.0938051561776191
Ni 6.581489462652294 0.7265987799331792 7.911648168662641 -1.0335950408011554 -1.1743570253442872 0.3245650073371378
Ni 0.031235569685428274 0.38150247976291457 12.760014176221862 0.5379406015819381 -0.6719945779772749 1.6227998398747085
Ni 4.501208998012455 6.625689230037706 3.692753529761181 -1.0457465885620247 -0.2661199758263675 0.43439173575399387
Ni 2.222288581545278 6.2711775223551465 10.284380778395503 0.01762645483251158 0.12338492671726492 0.052679846892218954
Ni 5.799220449384697 7.828228053669502 1.3012560326346057 -3.4831598416602203 2.3993087329169906 1.7356417009688045
Ni 6.401723649721262 3.9305770980876167 0.41768827270378106 -0.7207732900428747 0.11662986738161848 0.2386179137513568
Ni 5.878437206997885 1.4730210566472692 10.55222778982256 1.0090078383800944 0.0852698650130983 -0.781467522599138
Ni 0.6999197513645339 8.237902351928739 11.094938396248402 1.096025282211919 -0.39422827616123074 0.4710446110903371
Ni 0.5371915218982803 6.9923222035683406 0.5933006448896686 0.6579175310589186 -0.07157179870071545 -0.5297097290317135
Ni 6.441129536518738 4.717253844390878 5.640370648260509 0.6550625781086267 1.5077563431436032 -1.4608311393469744
Ni 4.321254820421779 3.1215132119856923 7.437928944301223 0.4529808116100908 0.01987565587800448 -1.982734999181024
Ni 5.817294038477517 0.9259036590090601 2.749546693117244 -0.20244609181649006 0.645197769499405 -0.27592256373908614
Ni 6.1210226339201155 1.682077574152908 12.797107886822213 2.6486738578825224 1.000962856588431 1.2827223387242683
Ni 9.54688604472523 4.511286507303398 7.186774809011799 0.19298546062422248 -0.440198572243758 0.1298391669830409
Ni 3.8257239102969116 4.043671239737736 13.014848956960728 1.262495213044116 0.5091599299048198 2.0591170747861893
Ni 0.6335136742537189 9.291934477897387 8.335991364791635 -0.32956734564773565 1.998950432598622 0.9889190380500196
Ni 5.565817799620101 7.931696761211826 12.240171981300074 2.0707705998647175 -1.4777343428602163 1.6103292182115234
Ni 7.493061396532359 9.231601277413487 11.244156170501705 0.29316335309740477 0.14676319643188918 0.2924509004114125
Ni 4.695648417929738 8.426295266271456 6.571929014352075 2.3801439870630814 0.8131771949975931 1.9369976450449091
Ni 8.018212649386209 4.339008189593204 2.5711879641937503 -1.3853011273294593 1.0755500450767026 -0.5343780810416603
Ni 6.389988531425455 6.618361844777562 10.438312378256393 -1.013709100510506 -0.2755088732404352 -1.4955819125645984
P 5.698652557600888 6.231715126159776 0.0369863427443526 -3.443934577611011 -2.0383654440611347 0.1798653783024967
P 3.966620675710452 5.438163069779518 11.235747572095208 1.8507299348949158 1.112579072805542 -0.736699474354828
P 2.5930279046561475 2.7602297947889403 4.194538146586222 -0.1808951051185917 0.5663970571504181 -1.84273226140142
P 3.5368761229661714 0.7317712734869972 7.692157190836035 1.5902884975105644 0.6379788831534626 0.9566622348988426
P 8.968521775522014 1.6499048902857518 11.229916744055936 -0.7549761611768288 1.1823061049880348 -0.8634034381429969
P 2.547829804574625 5.343877139394828 7.517920822488844 -0.028438200736034897 0.7563660995458199 -0.07409893599794336
P 8.048454595492016 3.3456671569617797 4.398549316683303 -1.7663499286859385 -0.4801463162812892 1.6553430639180524
P 5.429583059532744 0.8017713483038154 5.140929287801437 1.1767396666438508 -0.7126115801676889 -0.49833841380928373
Ni 2.5972378547991855 0.9163290833593672 3.120281307111622 -0.5533373957529826 -0.7932678576681756 -0.4728541534952501
Ni 3.4646665306917317 1.303973192849967 5.466932946070209 -0.4278680757028631 0.007377266300677618 0.5563725830348806
Ni 8.504146380102226 7.6992076800465 4.565962175234897 0.1331407205524481 -0.5520001649987977 -0.4481499658803508
Ni 5.769006757977836 3.9559969089065437 11.427918139687081 -1.739487557077456 -1.3058486403290865 -0.7573058377512699
Ni 3.6390639508229166 6.62686650916048 13.047696928132707 0.07474402578110999 -0.016550191049197305 -0.049401176140947176
Ni 3.2428200527962807 6.436910168142718 1.6934029993139896 -0.7350241435349342 1.0848993475020865 -0.5713651997889708
Ni 1.167992745053129 1.889344627391931 9.75775557207994 0.04262580509032659 0.5156108277364863 -0.7075408505130008
Ni 0.43688074787488496 2.3770866588405286 5.3462495922830415 -0.24692411962420702 0.5467396879308067 -1.8002026155693254
Ni 1.755407936152228 1.4538172795965867 6.959798219610949 -1.4995681509058563 1.7415482962612265 1.8027958302177984
Ni 2.6954040971725366 8.95257670708317 9.224762698445119 0.023416322041411284 -0.7131985630194104 0.848433704207042
Ni 1.843628524496388 2.563699527149612 12.931797094877194 0.5115325439020545 0.301449504365597 -0.25654261655057753
Ni 2.507585695041733 8.41641553987314 6.870915529488141 -1.365691323518332 -0.65913212019231 0.7681497224443093
Ni 4.772077378580198 3.234908737091242 4.79456529347177 -2.186636335386802 0.9869338892991907 -2.2925547298881876
Ni 8.435496879895055 8.857942302078138 1.6989720004763575 -0.7562997650842589 0.8013364936089231 -0.19103810708986455
Ni 2.367715517023251 0.7671367383351152 11.2796930471901 1.0444844340201496 -0.4238191024444701 1.5671786509659784
Ni 5.551841141874532 5.149663757069119 2.5130586302276825 2.631519971811055 0.30220926534975695 -1.0320269249830871
Ni 4.867559424553625 4.592970841957918 9.28567700390402 -0.13814588707652337 0.4975508849109819 0.011052144049103546
Ni 1.6777640234470654 2.8322133494718074 1.7223084981596244 0.21613798748128582 -2.137305607472474 2.090720046403451
Ni 0.3705716785637865 4.994705569813171 12.131232222218397 0.2994173044269166 0.2127778127598013 -0.7829142823479935
Ni 1.091855749625117 6.890925507282099 8.16106558179015 0.40281421805802886 -0.7109920422863949 0.5883036274155223
Ni 2.2610446102669837 4.274173073743818 5.563204239967543 0.04512131781867068 0.7055467029011074 0.6058069264066083
Ni 6.181402925568926 8.083923660902938 3.591946414859624 1.2689440539932533 2.052622468200781 -0.658845956410459
Ni 2.494739225254028 3.655103201591584 8.789212746890618 -2.130728468475589 1.1269119444884463 -0.9684713117186288
Ni 1.0593722640695487 9.277006578620618 5.3498614846317105 0.009034342288126376 -0.4007467940060388 -0.37060523742565205
P 4.121823737023937 8.856943969382026 2.4780322217669237 -0.34019242946174955 -0.36357352738985127 -0.008010786119618462
P 9.729788129239331 2.003531284067985 0.42904101074051115 -2.333765142688226 -1.147673345405514 0.9318150939481757
P 2.166947044541938 4.45617100789163 0.5865609573676144 0.3556023362589166 1.9290783901978323 -1.1402960791048362
P 8.831194520408724 2.3657376880969916 7.187959622720958 0.27279378830211726 0.5857281533788623 0.4692299264791016
P 8.360113343105617 6.247057427687762 10.960291570241841 2.10292610155134 -0.24212798378714429 -0.11085388412978973
P 1.8977551094450253 7.9000891713236 12.941418761691796 -0.46836552159627726 1.289068335546954 -0.1503300878475411
P 5.3653507105942175 3.0817305958689283 2.0816300974261868 0.3777505902211816 -0.6720542275706167 0.9694539873468724
P 2.245570453477248 6.198054361481435 3.7617307844761334 -0.5570665237781115 -0.036398593233692156 0.29807107481166734
Ni 4.469450716396516 9.000185874808132 10.705608423053992 0.10512598050707701 0.3685828076789846 -1.2757623624666674
Ni 6.261128267763152 2.54410960254666 6.135221561964062 3.361087205996476 -1.9082514261501524 1.8882883527646641
Ni 7.780562376546645 3.374562295751134 12.345126886006986 2.4021978815393275 -2.3645664443397987 1.00441173436898
Ni 4.384356981402442 0.12731755709982104 13.307990516708047 -0.9852099646295485 -1.1198576087448262 -0.5366691910686823
Ni 8.651805436796979 7.903997738011209 9.477089403740829 -2.3790060168038965 -1.176274296971658 -0.8419324127534145
Ni 2.1231334247087967 0.3087777101443493 0.5922439191490669 -0.814636810262255 -0.44083877693091816 -0.018017005402710905
Ni 4.08908595917785 1.7013566970674479 1.0758937283669037 -0.6839751473779188 1.3372106995801358 0.6296670208536574
Ni 4.138522264101357 6.832720827452174 8.325680283322736 -0.45766330468742467 -0.21782977336141196 0.35225450283260623
Ni 3.4537507986653755 6.523473147482013 5.713896909505858 -0.7377417995764134 -2.2024905288102388 1.663570851144483
Ni 7.573559033831124 6.879943847624867 0.608261507981875 3.035693789220772 -0.1545916913373725 -2.7135474186274555
Ni 8.28908102995395 1.7230751423243746 9.139423147570211 -0.010510669723336738 -1.275056080428262 0.19804307765278795
Ni 7.512764339931097 0.6793192503625929 4.518212675838499 -0.6574087097433 1.9350402642082225 0.30234527670698896
Ni 3.5282113486225577 8.52120280003297 4.744637356786591 -1.1250532940131528 0.9315147890989376 -3.4292936877693845
Ni 6.935718623345387 8.661741672593188 6.178394741954415 1.2649195062148926 -0.41816936035786045 0.38071944304151856
Ni 0.7230622334483675 5.017092709611832 2.088453607221782 1.3286309283309248 1.3133979134312541 0.9245311586922529
Ni 8.714050538576263 2.0366928823982704 2.845982806091767 0.6054431153092864 -0.3093700447642543 -1.3432666759662284
Ni 0.02192564638253491 4.928956885364512 4.659448497639398 -1.022689192521929 -2.5690300808069497 -2.4964966895239136
Ni 2.7542586350782328 3.828483452560693 11.067452225113184 -1.681678873599104 -1.7017712734736046 -1.3551667698379242
Ni 7.997492536825394 3.8333150060805554 10.196186561103694 -0.2169838804213489 1.2970570101793855 -1.1744734963174934
Ni 1.1653368033521516 8.207255421804698 2.5917131193318337 0.8190722203257893 -0.6473703516706915 0.9329944589682577
Ni 6.953245954925241 5.472643220727309 12.466334835371262 2.1311354741060202 1.1194989398538269 -0.7341029172722454
Ni 0.7626574267287863 6.4415251023039914 5.757290476147993 2.5200909319040856 3.3213497781975376 1.81941878348646
Ni 3.488899644154903 4.235322862692291 2.435782970432124 -1.1617575914127216 -1.1771546426940824 1.1519786576490871
Ni 3.9938111143300303 2.223437605969105 9.473242997390903 -0.24293428173852352 -2.247938376730393 1.359195431381343
P 9.282553917847126 0.1638226281387838 3.6954414934542976 1.7913878454911727 0.01265548398048143 -2.2486410592243726
P 9.249147445459304 8.158403047326084 6.8798892218735705 -1.709805970852623 -1.3335152530064196 -1.3814982086436012
P 6.253932737764759 2.6635704696927394 8.763614931468327 -1.1927064743857523 1.186061201155093 0.5357145404648967
P 7.995222742676687 6.690637364682877 2.5449977419168808 0.8095658234972508 -0.6844608287650857 2.2550775588783356
P 6.432728472698626 6.7783493684459994 5.109802969618602 -0.5458413444862535 -1.3922688168965442 1.9337143463079474
P 5.932733320140202 8.082284888364038 8.910999917583299 0.018638183926477578 0.9347662061566997 -0.5637472782323969
P 6.6578901686038074 9.42793376216019 0.11515767649651742 0.9396698141059042 -0.9442476632845738 -0.17506641425195654
P 4.255751010030658 2.0465349358646576 12.228675144298714 -3.163787948488248 -0.07954890336892108 -1.660344888008018
