# total energy = -340867.366078814 ev
CRYSTAL
PRIMVEC
9.28802387270350 0.00000000000000 0.00000000000000

0.00000000000000 9.28802387270350 0.00000000000000

0.00000000000000 0.00000000000000 13.59396178554336

PRIMCOORD
 96 1
Ni 9.321089002453414 3.730999095505537 1.3758172942966238 -0.5607228895837763 0.08230821128161307 1.350217910473081
Ni 2.234336254453342 8.322914390068837 12.322980099957046 0.47775750433413844 -0.41208690160920647 -0.9752410263422946
Ni 4.902999070280918 3.9961814584026705 1.6143643918062014 0.2453308069951581 0.8625899411027661 1.0247859271499575
Ni 6.913967644256758 3.8336317567087637 11.559013220438231 0.23242592600803197 1.1690047598934383 1.2586323876546
Ni 3.3791966241576077 7.1456481058905394 2.994817338700701 -1.0369264191672336 -1.410683829068622 0.18463657443889492
Ni 2.2327851545057458 2.6283156411427964 11.912455956760684 -1.1141577301465715 -0.12129461984713949 1.1016189742496123
Ni 0.4800227088723117 6.987881736370357 11.102745560823239 0.7212564003268804 -0.2888235880714703 0.716360762797476
Ni 1.3411627492997584 0.8251944601448579 10.474664324737498 2.1556663693678484 -1.2478864619920056 0.6621040583364404
Ni 6.792601039375078 9.44684884251601 2.627984987501273 0.5930591398226367 1.508511476142073 0.9924118816946264
Ni 3.615158864688646 4.279382587158108 6.341310831627851 2.1141895902803007 0.10460070413122632 -0.24579334845387346
Ni 1.3212027865010496 0.6787622658704948 2.3438708460221904 -0.18031043625971527 -0.10443718197016852 -0.9556427924953929
Ni 1.5162977230235635 4.257760068128143 5.646483071270186 -0.747878373789783 0.5395249153499225 -0.9753870650018558
Ni 6.97999620430144 6.434789216733168 11.729264551333019 -0.8614005487803552 -0.2859213268230108 1.1154962464523368
Ni 3.538876326547279 4.230053893615091 12.850875140265888 0.5378467563165511 -0.144745394670912 -0.7170122803385458
Ni 0.06225112083098521 0.336371348875256 12.326677662167453 1.8836182009825044 -1.9020913200860274 0.05467605138664132
Ni 3.169315154002918 8.16408918585389 1.0040799378138088 -0.2942956669296351 1.1659885987749339 -0.36583069885514413
Ni 3.8385636972607013 7.640876238261114 7.681893079450215 1.8147419468360808 0.6193155024160044 -0.3350988169889261
Ni 5.663808950565073 7.611498219493168 3.5210535379877435 0.6785933142407151 0.6387155042091709 0.1638810870590984
Ni 0.016198313225197054 2.589909663398421 10.945450094101519 -0.030391467807663792 1.7665527887253638 -0.5980195691517055
Ni 3.058741232588944 5.547077069478905 0.9249701252769433 -0.6165911615063058 1.2248900010968322 1.441709588026175
Ni 5.678075354873504 5.334994337721938 3.752966200212483 0.8153986281289441 -0.8802634471231291 0.7372957131779302
Ni 2.0095753704300945 0.6338704612194943 8.201155830589622 0.6657149156161503 1.0002678874039352 -1.7874679416114767
Ni 0.37463521985796483 2.851441833005703 4.04902938410224 0.18010680488934142 1.801239798584588 -0.7950066947361535
Ni 8.065348206555111 6.968906304077308 3.592706925147781 0.9358913209000786 0.35492485057591777 1.1007813088396654
P 2.017860287515459 7.594909809275162 6.676891769691487 -1.2951819046438597 -0.34812839647937466 -0.5410094703152488
P 0.9452886057880907 7.993979032918405 3.1512295143744185 0.018853128150761077 -0.08589541441223918 -0.3841531513134158
P 3.732122946365771 8.456959147216798 10.509885439176298 -0.2818602693797597 0.10969637348657883 0.5145463910277138
P 0.21033844091769352 4.990557269119182 8.184380731096486 0.36954182915814415 0.7526369715206909 -0.3972755476279868
P 8.916484116721744 5.182522141675588 4.537772618368552 0.5310672715008724 -1.5607220967073574 -0.5616338314338198
P 7.4742769582609085 3.296681822154941 9.634231004209278 1.845712941296299 2.245542622804707 -1.187896968812251
P 5.098233327158006 5.688440789253848 7.278084177344347 -0.9122927076445321 0.7395012054696812 -0.6416319065250176
P 5.143818947174788 3.17275172274909 4.436430063648685 -1.5690943799314525 -0.7293903422879245 -1.1756333209535494
Ni 0.2556584234584197 4.691083522949441 12.109528313515792 0.19661380140542914 -0.4253411955159514 -0.14140424611282099
Ni 5.6707656802701605 0.49765602174962625 5.137810524683171 -1.1942668768943367 -1.0643814300543928 0.07249636739751386
Ni 5.338170841806238 1.9499091065776486 2.4360646974583307 -0.8198273533242589 -1.1025705395296042 1.0974720419607744
Ni 2.8908787813739294 1.9661631479446753 3.3890428580165706 0.901259589758822 0.8955368283424319 0.18177750772354498
Ni 3.283214187879404 2.5319338198481462 0.8955159447151628 -0.6864292653453661 -0.49561870088527543 0.2957683948204196
Ni 5.483444819532904 0.16376643279052433 0.13644106724664262 -0.14374909219591372 1.3982844269630048 2.3681595610076958
Ni 3.9445957751155465 1.291508974929401 10.966384370579885 -1.0134321927000352 -0.08881001695587286 0.8924386490330823
Ni 3.442364472921693 1.724563077065188 5.694483577432925 0.14137107888204042 1.1712501042841892 0.8605034908873825
Ni 6.452845134686024 6.77017046228858 9.407374742053232 -3.0623723269532226 0.8427335684984711 -0.7445243697158854
Ni 0.5852337254375307 8.223105288051654 0.7409520857454672 0.23223772125662584 -1.0107333057116334 0.2623142289270321
Ni 0.8453086041359626 5.864736765932441 2.4280714243152084 0.26072631561462195 0.26576722047263907 0.03469112362428219
Ni 6.690887892512042 6.822025498261215 5.6982350101804355 -0.3252329799384399 -0.5205540306743744 -0.9110696338707084
Ni 7.270627751967519 7.569432760435302 1.5436351629981748 -0.6264611123218501 -0.8866706362010537 -1.9412415079229277
Ni 1.7236249866777196 6.557753361680636 4.720856282722016 0.16389805633996288 0.15509691310856516 -0.21215432024318948
Ni 5.734871619421715 4.9286525915699055 13.298891319680616 0.8387897533593748 1.1554218790026811 0.41361850776238446
Ni 8.759609397470838 0.7531769824581992 7.277024413847217 0.8407887860672745 0.6719593538639653 -1.674860822236006
Ni 6.867146717096082 8.526805084976823 7.231851182079975 -1.8478826952541079 0.9161395921944481 0.7621942761918229
Ni 0.3450463629534291 0.6620131728435465 4.62968225628136 -0.06312521059525902 -1.4625663768705264 0.3694582683054024
Ni 5.969273471981518 2.1021305259857646 10.263862411440252 -2.0481412925009757 -0.20239646952547724 0.7132823809824683
Ni 2.524800617693931 5.653443516184729 8.091234857237419 -1.3464898108892165 -0.48216823180732443 -3.360016598640116
Ni 3.586886120733658 6.5289512003782635 9.686009878388079 2.4531643452848657 -1.0676428744144837 3.158023278090329
Ni 2.66569064826332 9.007599628613477 4.687347879842117 -0.18837907220046265 -0.7987286236724308 0.02870430991322798
Ni 1.6361225159812853 4.521827868188681 9.923211141272468 -0.674989913160173 0.11148174752177574 1.1131989657777281
Ni 7.158772083291459 5.447156511178062 7.600886652486408 1.9440470956925229 0.06208931313157694 -0.5332537376292301
P 1.2627161016506676 1.9902377052151516 6.195896604744245 -0.5464244706832331 -0.02863051925249908 -0.15892811392919726
P 0.028364695389007617 9.148433931041037 9.222469696264298 1.2836183681759763 -1.6849102360522081 -0.9217014025529418
P 1.9948538529633872 3.8281611107858042 2.4205954940887398 -0.04249570727036552 -0.5997902878988831 -0.8787662937523123
P 4.149080903536383 9.075346473031246 3.0637530501441717 0.8792645735449696 2.6494223060127724 -0.39584292894651824
P 4.362287486153583 0.43687055104876493 7.197091682415998 1.41682645163125 0.5433013516732191 0.06987178529047322
P 7.152762731997478 8.281814885469355 12.997948208171294 1.6862104429208702 -0.3388094330712939 0.062450810236053735
P 7.9579507892254355 8.798340456042553 5.397264963402565 -1.412105134896181 -0.32243330570611567 -0.10330872479268015
P 2.596336975756126 0.7317439391104555 -0.042623669278527405 -0.7273869387046504 0.24389201766610258 0.25526015029372817
Ni 5.7841910249410935 9.089482845008739 11.538269348444452 -0.31211906826430114 -0.6196458891722296 -0.5379971658514864
Ni 4.063928302820439 2.648479940461548 8.126252563958543 -0.25903170152101845 -1.5347737522727116 -0.07754627111659548
Ni 3.333072298769804 4.863088432707139 3.6849286406548356 -0.31966577026330756 -1.4160453504908515 0.3319286467910606
Ni 6.876193252119788 2.7661963520533757 0.5107186981945329 0.4669100200966733 0.009805416126196016 0.24365573328558035
Ni 8.626660627112198 3.6776765517980503 6.566589987370116 0.0900703717255352 -0.4159378999241804 -0.1778195515170615
Ni 5.374747078893868 0.1130965486341367 9.377155228343655 -0.19729128708842797 -1.4657213775597402 -2.9735620528870337
Ni 7.154267391826883 3.5136686303929303 3.606165271399679 1.2333802979560307 1.0303706203265868 -1.9151157573701536
Ni 4.137025048853868 3.949379107289271 10.626929397856713 -0.5581687557033548 -1.823119629376815 -1.5328220278629796
Ni 7.613829513426381 1.4580153746932243 11.924418931206816 -2.882123082948746 0.5723908128400078 0.7977415771688132
Ni 8.242981658637618 5.605907411203904 9.909780659091485 1.3285005734006474 -2.0389601402223403 -0.11350366304781098
Ni 9.193880230703243 6.417754981380524 6.258564757836591 -0.00455316658832119 -0.7516622663122474 0.49615091923966165
Ni 8.378865444465964 0.9015930985817033 0.7030718101390202 -0.48316736249580006 -0.3279586063997191 0.554546071349103
Ni 6.10801796909046 3.6526174640219145 6.198139662452895 0.2559106393935334 0.6657686516722211 0.8077272276266154
Ni 4.619249948130821 7.261479048683793 12.973913589402462 0.4642286166097683 -0.2652655982458722 0.01613675766086253
Ni 1.6852747370751746 7.713341398687139 9.134584558993964 -0.15867974536381704 0.3032587896601939 0.01361784789375074
Ni 5.653415652113814 4.106606771438432 8.762912218676618 0.2589165160993928 0.4631775496374346 0.2237687645536662
Ni 7.9344520894205335 1.279128039419546 9.4330672730415 -1.3151840587973995 -0.4409771022809954 0.03973665646798962
Ni 8.608298204379276 7.447908259151771 8.148573542366107 0.3346203346906108 -0.5797559949558273 1.472323199146974
Ni 6.309335881450635 1.6805842851378325 7.63504800342808 -0.11822189445908672 -0.07340293837218327 -0.4721702400543481
Ni 8.55158553204381 6.083599754945366 13.743222940118027 -0.2819620850649467 -0.08364595625643013 0.6436335103360786
Ni 1.8323598794113103 3.4181598833202806 7.82234564410624 -1.0608086251014697 -1.283777262351344 -0.1450510988367889
Ni 7.440189911508343 1.9219800194972771 5.06247257854582 1.2417014162272162 -1.3424063848484624 1.1638460985106345
Ni 7.8534790993418255 8.167813683332847 10.51564958664623 0.25559696480785654 1.939406511596718 0.19588900742426263
Ni 4.17490160925086 6.458743029696346 5.147557376689205 0.11240451644636126 0.9287166575285103 2.252494885752824
P 7.298798327662486 4.660126540162984 1.550812947665854 -0.008104631385005397 0.6526233725395147 -0.2832800325454218
P 2.5434416811360014 2.472917717650381 9.696613086173564 -0.3276349045117131 0.5003832121534543 0.04618909696155271
P 5.328604177458788 2.2682561167804174 12.756505104891295 -0.8111372817494289 0.19310553114185453 -1.0429710826994167
P 8.564003619648219 1.585177706325204 2.6737963064924655 -0.7051317268508759 0.23453114527649283 1.1274055962954133
P 4.602838010361943 5.721766218068071 11.484613364688348 1.3530654072242052 0.704505920341419 0.4894241420387894
P 5.290885513463647 6.173712160284163 1.8165200838985516 -0.9388671156989508 0.9946199450895387 -1.0561150762805425
P 9.350810678095979 2.7043752667168435 13.19459795985086 -0.1948572237256386 -1.1512368943870561 -2.256714066040494
P 1.4844583779914673 6.237010041379184 13.016516825028987 -0.24388944656294123 0.7585669638518807 0.8544197465871478
