# total energy = -340867.89959214506 ev
CRYSTAL
PRIMVEC
9.28246388041378 0.00000000000000 0.00000000000000

0.00000000000000 9.28246388041378 0.00000000000000

0.00000000000000 0.00000000000000 13.58582417481158

PRIMCOORD
 96 1
Ni 7.666980742917366 3.077359453698874 2.550548085533813 0.5450725846410289 -0.5022704018738383 -2.772723671877296
Ni 7.947199753270347 3.16398340376559 6.334974139282719 -2.473714144411759 0.733160350853318 1.6766302554316028
Ni 1.2514803038892799 1.7811933701673772 12.427917323353315 1.2008789828942157 -0.25943716448955323 0.4958169329390105
Ni 7.891941247618059 0.39323578909786777 2.8637690386292065 -0.5154601610912348 1.8150232255219256 0.39331887697308393
Ni 0.7851042713113777 2.7140531119006326 6.564507185539654 2.5129527781974073 0.9280620546636469 0.26605364136480636
Ni 9.01867452354478 6.391625942717371 6.280536203410317 -0.38794758535884155 0.7890854441557119 0.6590087072405683
Ni 1.1026824128081123 6.484747617285447 8.611360950191534 -1.2260593388145853 -0.9852827268490127 0.18988111066728586
Ni 5.316855897874391 2.4249415014443607 0.769385347496228 0.5728158161925683 0.052271555710206745 0.7092282655177528
Ni 3.959128515924285 3.3515355802655895 8.015744249035205 -2.4526881769793953 -1.5368074948732888 -0.6365732610551875
Ni 8.318962419383931 3.894253378009982 0.09040098449472124 0.8263065332906995 -1.0517321167214981 1.894053280272899
Ni 4.006905355936436 4.696128276259373 0.8532524058816521 0.8068471390145072 1.3857050476360975 0.8842337446247869
Ni 1.0756333139553038 7.644749242659138 4.0878382275863165 3.1842377317021677 -0.33285218704659447 -0.5794407777082536
Ni 1.8849341830633926 0.6590966847955554 10.485090271475508 0.6394775791861761 0.4429751065476306 -1.0571229487197666
Ni 9.016279647942849 2.8729410408860563 8.94214803735318 0.14722728055250128 0.9023641356769105 1.0470082288832678
Ni 2.8461889808675958 2.8662019723317878 0.48431253694073056 -0.15487965489143649 -2.6792879832239533 -0.12847648230755937
Ni 2.2461334056304785 4.3444899911728605 2.8370188351034606 0.20075867681173812 -0.14216297865571648 0.3972187262481224
Ni 1.583087032584453 5.299961814170852 5.001063702369173 -0.4426768585809215 0.46952380357043655 0.1086396500872903
Ni 2.3395614014964767 7.638242235694204 6.1968882111652235 0.34020528497755603 -2.2573786962076863 -0.46939859084648194
Ni 8.43801929717601 2.2441655233529234 11.918312857914215 -0.9658711550916204 -0.7022598046197196 -0.8652178656439163
Ni 0.9257846479976305 8.50788840049279 12.031687011506676 0.23727219835673974 0.6351295866301255 1.9395867459283243
Ni 2.604362239854085 5.315342856311931 7.367252778872228 0.1052661056293671 -1.3980620265395534 -0.5081034636158475
Ni 9.140850309097512 5.15244490306281 2.092719345414273 0.14089079681151218 -0.05740270628918501 0.16084461422561977
Ni 6.9011125208690896 5.290066708001637 5.166811371935319 -0.8779448262922817 -0.8929474703487008 -0.025681978147136415
Ni 2.5886191816336446 8.196730939049758 8.64934664762649 0.3304494911423728 1.391710887510545 0.27570350574974456
P 9.257438051579078 7.387457917332388 0.059639828458920824 -0.4354083499439662 0.07803066695218175 0.07136508200654806
P 2.825925362886923 0.6864613874098587 1.2831854864704921 -0.8240611888999485 1.0478914028191695 -0.9162522065129124
P 2.2950055763442867 1.7648005394968007 8.526761505430171 -0.3707286503773938 0.018219608331820236 -0.6078779500030241
P 3.2710659035480196 8.8779338108453 4.6013960942613155 -0.5073871542751133 1.3041709955163476 1.8778622723353335
P 3.3908653784259704 6.276634783970428 2.806260463806732 -0.07729353167584108 -0.9788410849887271 -0.1516457213351711
P 5.936163302562684 3.822212178217035 8.015527039387587 2.057061477808741 1.9024055088923364 0.31256026956677785
P 5.107824100665607 8.156964865101427 13.237211694736901 0.468261134807929 0.7890551051384087 0.5412061597070873
P 6.757679893733331 7.335884549718728 3.29270054139848 -0.31722245092913753 0.9368621694537801 0.053532167590185226
Ni 3.5662482451812774 1.0203376784487215 12.573829296509519 -0.08553571707997526 1.907807653744514 1.3791690462897925
Ni 6.69005714660131 0.3347330624266851 9.672400374916782 0.6397974244194401 -0.6733762888161499 1.255973095654882
Ni 4.70335931538303 4.581127835048855 9.854586359225014 -0.16977122729128827 -0.32495890034144675 0.796283504566048
Ni 4.196722453548338 1.3160398380420881 5.949598740338784 -0.4812644890461324 -0.5744235269993204 0.20853317855083442
Ni 8.80767484405844 3.9843860993074327 4.373752029341562 1.1503673472979092 0.10324033344858993 -0.361253621007423
Ni 5.219371465426828 6.815398252232563 1.6402168828931338 -0.549935312049969 0.16646350307429397 0.015295492706489788
Ni 1.7958132502954394 0.391409000266628 6.639745265787271 0.17743722847697826 2.9621144731717246 0.3247159310927053
Ni 2.0797452460777697 3.7720218976758075 9.699612845128481 0.14924251121031717 -0.04035449255764663 -0.18152271140026158
Ni 4.4074065292731825 6.263676464821999 12.579711593675965 -0.24152248899266143 -1.332906672888143 -0.14713549216964336
Ni 7.316790522148301 6.278797597983024 0.7326954819761143 1.8117934057307186 0.8899091977430093 -1.5713412669841003
Ni 4.174806557051604 6.823965966110786 9.848893424315465 0.2852075885854378 -0.17711789746434659 -0.7930588269811633
Ni 6.712195822223804 5.182770711557019 2.7636418888023053 -0.42972004130993735 -0.2833839051131377 -0.05605493401203894
Ni 6.291987978720787 6.972383276185446 11.49995129641594 0.9542623672080984 1.3255864850776462 -1.058965401245144
Ni 6.863221504562581 7.655832504165746 5.569372323938998 -1.7252567581900544 -1.6328963048787621 -2.71189214241222
Ni 4.511695007520027 4.646587768168282 3.881904916718324 -0.16906777346636045 -0.05993524290305161 -1.3562967696773094
Ni 6.924792085444763 4.821088800884118 12.176851746345225 -0.9197298806488676 0.7449455164137041 -2.4961961275643594
Ni 0.5751507254697577 0.45529648405672424 0.7007907264280744 -0.5752393380323965 -0.7824555975440202 -0.6504489905960152
Ni 4.364475135246333 8.730621113935872 11.180779355923658 0.35039996612237073 -1.2399936895074903 -0.5930005186705594
Ni 8.892785752562697 6.183039703760109 11.49625594766738 -0.07033329830792404 0.9249880437240134 0.5026861492550181
Ni 8.159350458239784 5.2241890640214095 8.981914111301508 -0.6708411810991222 0.7552651531721574 -0.028219142746693338
Ni 0.8128263487732559 4.146996296185779 12.101042794587846 2.226509774542972 -0.382232023031303 0.5127769578321169
Ni 8.804797280350694 8.732774645484895 5.1781684661173415 -0.032284828175634724 1.834350465095628 0.7946148586143733
Ni 6.659360039564165 2.990531289433544 10.109673099453088 -0.5118637019892281 -0.1939740497897369 -0.00022394308534800142
Ni 4.312446926917577 6.089064042543281 5.738638047199452 0.705369811003611 -1.0157109614318829 -1.908771046099048
P 8.463703873883535 4.138326475208249 10.82379901305067 0.032138789516073685 -0.1968418582558352 -1.0593508096090205
P 5.63556928466615 2.9505238714323068 2.9719533668377958 -2.1040154779607767 0.07503893131370946 -0.32344760590324295
P 1.382001024194476 4.256965642139527 0.8756936898166384 -1.0702633427564665 1.6629342460017487 -1.799844460898958
P 4.096926687671005 6.993148147199082 7.4813323996962655 -0.4518862929943314 0.9698571363225619 2.4360279427148948
P 6.647459921263101 7.2910224032686175 9.35879884081488 -0.38626634100167667 -0.3135388314299632 0.4217959013668542
P 3.1485281019159244 3.9872450980880316 5.504051627773173 0.1301415287148081 -1.0558510239858785 0.6584489780823564
P 7.43490987111947 1.6165967260843292 0.2998096497245843 1.0880970285037777 0.4614307421496569 1.44290669365807
P 8.923482859599842 0.8391170703521198 10.099212691252253 -0.25217302672797215 1.7818315692613054 -0.056273734891064374
Ni 5.2094113820126 3.5076202052518544 5.83557295780347 1.1622854388917339 0.13031739217104008 0.8242223970681611
Ni 6.081108971260901 1.7465697810386962 7.931770442318686 0.545860370649647 0.4336476584991176 -1.3574979890742622
Ni 8.920679555600682 1.1078713099456279 7.568825188353449 -1.5529344823421383 -2.2131490369653495 0.32439325764596394
Ni 0.5261346765705621 2.6479434063310707 1.9650669063532487 0.588175072257458 -1.0608299652577085 0.38302469413592743
Ni 3.5522874199669245 8.41409838854743 2.6031388111551146 -0.7984918250712764 0.016940227398764374 -0.38720762186902347
Ni 3.6734328520630144 1.829081599742408 3.258166063920103 1.4643910887840907 -0.6964187724579103 -1.8253978838880307
Ni 9.218247490372297 8.063982427486952 9.821993773126188 0.28233438080270085 -0.49280642824746096 -2.159748252746706
Ni 6.894781880712048 2.216819385665767 4.4405672021427 -0.3911444950295844 -1.1987405963949742 2.5752367238382936
Ni 5.597733963141081 -0.0852120873572058 1.7754902245478967 -0.42672367768577474 0.8486404209012094 -0.12005200568929002
Ni 6.338196082389037 1.1080755241442422 12.116313375412401 0.8338712330118349 -1.2411805107267397 1.550443854709801
Ni 1.1083168681971498 0.38852772357345305 2.955487204704989 0.9411625966013469 0.5645517764115632 0.7171513770195714
Ni 2.0134406087731667 2.2210336241280784 4.6423707449668985 -0.9710005058983857 0.5041401080927252 0.4935772449752145
Ni 1.5710198299390683 7.040015305781041 1.687726387954371 0.4988780883628376 -0.42903741342061597 -0.32293775614636
Ni 4.937481611630641 3.4833279980803376 12.090744829499545 -0.40914016027605665 -0.8706349228944296 0.5346706725814147
Ni 6.370220581717173 5.910887154252389 7.330924001185118 -0.4363691711953388 0.4336751693029434 1.1402850233612427
Ni 5.100899382839871 8.866906244120132 8.0088297419194 -1.187507189573 -1.0862877432091809 1.0560633971070006
Ni 5.5008436083622145 9.507192016484248 4.156094038734042 0.08237454574317427 -0.8224233961862094 0.4129626193459404
Ni 8.116493323921521 8.714386085146042 11.62966908362204 -2.9817505022350974 0.7122531683870056 0.9081930836538618
Ni 2.066582712730727 6.168447671022767 12.70051728760527 -1.4356674955971533 -1.0935997034895615 0.004005778725283423
Ni 8.646716925696154 7.749603951183958 2.166572482096742 0.2386613653947825 -0.5137004980876507 -0.4253003149756869
Ni 8.663016931730997 6.315584001124301 4.03705479762275 -1.0369811836645688 -0.05227695502684545 -0.3184115861412323
Ni 7.171306470562826 8.694995018741267 0.28331471195470065 1.40656440758361 -0.05764850375140394 -0.6656179850269698
Ni 2.827401274595089 8.205048026411498 -0.2601466111219193 1.227466503574757 0.7602515506431552 1.5063530350381735
Ni 7.532227219222712 8.268465817544783 7.578905943794132 0.24432396299719852 -0.412225998290232 2.431301483773503
P 3.0821492049027346 4.451832399935345 11.617998242171238 -0.29393596959737117 0.29011351052748746 -0.4665706344793835
P -0.2282511380374527 1.801224926558716 4.369350285115068 0.874156820004759 -0.9666316874067289 -0.39682329058191657
P 2.1414550639135523 7.4575497997749265 10.857641018746472 1.757431028929754 -0.9247209061055558 -2.538559937242551
P 0.27865120225543816 4.695766260180011 7.358978390842922 0.8348060861212783 -0.9915338499650472 0.8944646783241758
P 4.842438467102876 1.4989229353646811 10.887176889590586 -1.224567070539775 1.8226511743808287 -2.722891064625885
P 6.201808845105469 4.567714675185332 0.4928069193567241 -2.0915230019207205 -1.1831751378565496 1.3080057958814053
P 6.3006021049168766 0.22142202958652227 6.414437596948935 -1.1815777114624426 2.0328468282357504 -2.2965587088412573
P 0.3162061933805902 8.258153000514765 7.419952109317338 2.3461396050931786 -0.3737412119514725 0.1080521530149365
