# total energy = -340877.26809704525 ev
CRYSTAL
PRIMVEC
9.16716166225667 0.00000000000000 0.00000000000000
0.00000000000000 9.16716166225667 0.00000000000000
0.00000000000000 0.00000000000000 13.41706772360992
PRIMCOORD
 96 1
Ni 6.013529722224468 1.4663791824322865 4.93624613374534 -0.6725239681181837 -1.5528858884923902 0.33961727368456995
Ni 4.13177727688152 2.5278448334315016 3.693047919440971 0.2585164524474967 -0.5730513292421422 0.3514312356003625
Ni 8.811429971605412 6.246833986996297 6.807041987447608 0.7030869285067052 -0.369519460560641 0.3832429807943206
Ni 4.073015770508734 1.105963053796954 13.103269558295263 1.046948836400242 -1.2526903111385521 0.443463616148275
Ni 1.906916304156255 6.602959883965099 1.2782268558021932 0.033890996320490016 0.619832551261739 1.0982837392287925
Ni 3.8467610530693035 6.514203424573316 2.873855684201905 0.30622507137736943 0.7042102434778711 0.5914282890874331
Ni 6.600796433808472 1.2006139981493757 0.2531117510151484 -1.10084610063933 0.21290893902102687 -0.5486932121127518
Ni 6.413382980409836 3.9243610766957686 8.034757782389574 -0.47829692177737626 -0.34506569839365087 0.1765995630670313
Ni 5.917219521607855 5.101818824439893 1.0393425397153702 -0.7777574207374025 1.2127477093073435 0.531636256630465
Ni 1.8060316898610103 -0.05611494679559112 9.011385935615474 0.6430107891504151 0.4028347868833191 1.173922766020346
Ni 1.1111149986614637 4.306787560526274 7.539345114129235 -0.023403466525604856 0.18185695481122874 0.015538719065547433
Ni 0.8756637846240335 8.611512509674409 6.977881212527678 -0.2523044100995139 -0.7695049509206232 0.3930267996539618
Ni 8.515495658231574 3.7435846483539037 2.7686652540652723 0.7182206988243501 1.0205168674609584 0.13092005875204552
Ni 2.8358064629303157 8.880917057144528 2.9701493839274935 1.9139636460435812 -1.0487370386489163 -0.02535699070754988
Ni 3.3582888429173634 0.7110738136616428 7.223977334708647 0.4618742574449787 0.0035643203124906355 -1.1812491244784302
Ni 6.304293756410435 1.201356538245506 7.790727938451418 -2.8730337190529682 0.7158686536524058 -2.309619398679958
Ni 5.2672402569667165 8.079835466521697 7.105249756918241 -0.2640476666783711 0.7821241823465304 0.6525434112311987
Ni 0.13146351551329513 7.959131448672948 4.949529351020561 -0.3945892590450753 -1.4957793732873852 -1.441613685878259
Ni 8.459777649536754 1.1383689703379527 8.032610833123973 2.3860999475362004 0.18703155703363272 0.9302284661873463
Ni 8.059530203399119 5.228325655632475 4.678169447963967 0.6146376373243608 -0.11741559650770746 -0.17669495099431506
Ni 0.9130263854857443 2.9888888958350215 4.718796475100147 -0.4337471601914594 0.2959486291520258 0.22174067838004388
Ni 7.614629512715175 7.538294557400636 11.534585768223405 -0.6056218069789957 -1.1980893359642206 -0.7631630678629954
Ni 9.229223365199756 1.1683730905186285 0.6464251560575608 -1.7391741396020952 0.3531199361566951 0.14908618813811098
Ni 3.804298760164663 4.307685942370975 2.2540409650708533 -0.28397320195770454 -0.6109655877894123 -1.2414016255986104
P 3.545500618759025 3.7448497166658297 10.970022449257629 -1.1265417056332212 0.3158011451015787 -0.7309083215943477
P 1.868285884834114 6.40976195154599 7.264188172704527 0.6651587860023642 0.5493771255536538 0.29655001018145055
P 9.431084265407053 5.666525151127886 10.868146864784709 -1.5492398070993705 -0.003237533100691198 -0.16043709437455594
P 2.951486876178084 8.230158583760536 10.712938567086267 0.9197195962362225 0.7987985576784179 -1.256350790709275
P 5.5040647118239034 5.9179437273806235 8.178963652638934 -0.2165640192751109 0.839897898821889 -0.38253104232896057
P 1.5760459376175668 7.076654629487876 3.3725144444133526 0.4662459041501132 0.5305602499574669 1.6699176192981176
P 3.3161107320248218 5.237492817313098 0.31829302071287463 0.5371116779227395 -0.36613743146228556 -0.0828568846962315
P 3.8475952647822402 0.6748131056339427 4.718782724357626 0.37522396714458606 -1.4045604897797035 0.505067505003001
Ni 5.133940558968792 7.782966102656435 4.753089910231186 0.97645535836537 0.6401278111756653 -1.4749670645277244
Ni 0.6233669942822924 9.233531931189649 2.695140033805844 -1.4945737830150583 0.09890673907024257 0.4529658992117554
Ni 5.4888563905957515 3.5379377103725114 12.56328614994374 0.8540513075041356 -0.15954337891569295 -0.45500195580517766
Ni 8.985422700303616 2.9419805295152788 11.978489988432665 -1.0016796801497976 1.052121638850433 0.6633875530345542
Ni 3.138194458127311 3.6956495599259314 6.554599439235145 -0.021147066391260357 -1.153724179585284 -1.0989388563142881
Ni 7.686344218542681 5.694686671810756 9.386339349243936 0.38857544875082756 0.4197829847018835 -0.482217339877705
Ni 0.7171580588690716 7.084410048269683 9.107290947685804 -0.1353788658543475 -1.8960952504035928 -1.3597921844250773
Ni 6.563467751444978 6.343061683157785 6.121858988520546 -0.2945602334449314 -1.288614535838987 0.3092039515000352
Ni 9.001767749580166 7.677947098443231 0.2053425882135955 -1.1670612630138224 -0.9279581820959308 0.4532008980406969
Ni 2.907420329979334 1.698785065359414 1.6731756824884287 -0.3921104584872795 0.7572973531108377 0.24825826505459822
Ni 5.195131363186944 2.5628175552430745 10.189404713654453 -0.21440660661247593 -0.5825811231094483 -1.1508453153755922
Ni 7.168821273024849 3.829508454786373 10.620776507130135 0.4730215323110498 -0.1809418991961271 -0.3985706122903265
Ni 4.120290823295701 5.929430180966443 6.257277217582861 0.09217841920747351 -0.894837488282562 0.34788568434094924
Ni 3.367025147998996 7.004389893959534 12.389574853109131 0.8669271350255393 0.30259518793426593 2.963673590128728
Ni 1.2795707617045726 5.500837870912324 12.779153556482859 0.15554042840388696 -0.6177543285764715 -1.5232986617535766
Ni 8.678771974925132 6.87405118918445 2.71607049735504 -0.6622459832309433 -0.6363909698410524 -0.7804221120537591
Ni 2.322912934061198 6.134252074396579 10.598785402974492 1.33148896660501 -2.3585037830854865 -1.525614711481263
Ni 0.7492541253452651 1.4293713507276158 10.548982046996008 -0.10789428728083354 -0.2326796938900509 -1.4155339580720718
Ni 2.947865847314238 7.807928283912769 5.6673831974611915 -1.1670543210352866 0.6078784642236563 -0.18405062002843786
Ni 5.00537111639807 -0.5770334089999248 11.707826789663798 0.2078623777360549 0.614359958182942 -0.43230708531082324
Ni 7.123572162969299 1.8351740968437076 2.608412267293984 -0.7332246284323501 -0.009950940565124798 -0.0853058604573563
Ni 7.426757701232509 3.3979551515094144 0.7815216177448864 0.8184194172331388 0.2770636193220648 -1.3206885335553964
Ni 1.010578736510083 3.361121495876675 0.58925506895253 0.1328671551760873 0.9791917834599264 1.0030410792736983
Ni 1.6357974974518605 0.7055845172472864 4.975853772502635 1.0112254148567037 0.06829544194228884 -0.0558513026416651
P 9.051316258463928 5.433761748895214 0.9071933205083645 -1.433019773561661 -0.4984435719285803 1.3628996197058074
P 4.057706610502096 8.427426735965838 0.8118960912574591 -0.765421781990185 -0.09733708059027753 0.41968322589922563
P 5.223054537666118 2.8571017795144003 1.3587732051928099 0.4264277437119107 -0.6076727759707534 -0.10849052610393575
P 8.751925925136495 8.663334474654965 9.867944438580924 -1.127375000167794 1.9612099806250545 -0.4288422666906743
P 1.5497086821091401 1.636200852565808 12.60200732416652 0.8174552535476567 -0.08991327732238064 -0.2771569503668195
P 0.9186412720151252 2.3140482887160365 2.5073415596166226 0.7307334865793803 -0.8327034379559788 1.0148686680362458
P 6.423136840438017 6.411008685534555 3.2308167095998113 -0.03292554708342717 0.610005280758672 0.14486906473296987
P 8.446796948596994 3.293898699272675 8.91094592866174 -1.5125835893289175 -0.7120155984549027 -1.3908883916092498
Ni 6.077342334683277 7.7119756026017 0.2130457541738221 0.4661433171339779 -0.21151257289413247 0.31524475837747645
Ni 5.383544037208767 -0.025929316813639174 2.4666476122001737 -1.3610255426115463 0.16646401729492621 -0.8118119392189502
Ni 3.651307998876763 7.284428348979173 8.683901918601608 -1.326425950259806 -0.05928321114134951 -0.23697626438287575
Ni 8.43186364221926 1.0239994612105132 5.402959168932156 -0.0223822243499421 0.10916441224250877 0.879981397106336
Ni 5.8456056545588355 7.567803650850558 9.699694936675627 -0.38885981276046583 -2.3995861549480932 -0.0033090097685749466
Ni 3.067552310216438 1.49517323727112 10.904453408620812 -0.15674807555874296 0.49663891461967363 2.78805207470425
Ni 6.627216193772023 0.4742392749266068 9.827009394812274 2.1932630966746998 0.730440895039626 2.080004716868476
Ni 8.39578169384433 3.4179303968114896 6.626112467505678 -0.8535476283948397 -0.29152427483208504 -0.3693757358939251
Ni 3.1683177514098344 4.847420920640953 8.64495248205298 0.3553010029684139 -0.050772859677493204 0.5313534352827237
Ni 2.4077458482536738 2.2210657677894883 8.933324803756474 0.7161802713555537 1.3963391303111758 -2.7419653076485164
Ni 7.78582625710079 5.27024708599796 12.38816677707499 0.1911628055931869 0.21447216974308872 1.140269596742275
Ni 0.993527815784126 3.883530538570278 9.775407441712053 1.3162477241752233 0.926777017303636 2.3006930427246055
Ni 0.8923223508300596 7.841076740549898 11.46782316313577 0.45218994027767934 0.5157956900537827 0.4785589171895113
Ni 1.8135670967624815 8.83897729245568 0.25339226616257543 2.0073643676939303 0.5426081822609365 -0.2953464767916526
Ni 6.062601538700838 4.318604031932596 3.484774589638081 0.07701019610746736 -0.27326198618778746 -2.4178895812429713
Ni 1.6107344774170405 4.84560582262819 3.310514179818802 0.2850720914488381 -0.26769554784360344 -2.5243877595072264
Ni 8.265351317452444 0.4783314959008364 11.810776765485688 -0.1920138407395725 0.32852527753646643 1.5365665825070762
Ni 7.327211492542635 8.87814857431698 3.588032582092438 1.0682979914999795 -1.6143041436988714 0.8006757200964726
Ni 7.6166646226082735 7.902203374636286 8.054507515514306 0.18000961718984482 0.5498011004649499 0.778092435479318
Ni 5.152201545036591 4.963027996595277 10.219619678553782 -0.04832285547510387 1.4321689955255914 -0.4758680006209095
Ni 4.355721869577434 0.41380567826327463 9.527499888382994 0.1208269361821016 -1.4461650526943675 -2.1939444390124407
Ni 5.607305286671068 3.8508862758255837 5.547528058784069 -0.4581543853912303 -0.22647022264522934 2.7390684457166956
Ni 1.4872894782257853 5.3514956399733125 5.392802870506195 0.224444193354136 1.0683360438267664 1.1754134916332597
Ni 3.238923230673985 3.120905191197658 13.005338603493515 -1.662264473628234 2.103917518930331 0.49141777543005044
P 4.515184647011853 2.6222115957718244 7.807740357098316 0.5543876913943678 -0.33331344295372917 0.5147772760915973
P 7.536928650310223 2.898839866646272 4.653991975747495 0.44318850811001737 1.290975836982312 -0.7276733595968178
P 7.651884857785222 8.898756353775015 1.3791673897836898 -0.022077034404697462 -0.48279352409614923 1.450972758495656
P 7.204032341040118 8.4071031385199 6.040725940782369 0.19826136431118113 1.1596819398306157 -1.4442218129250675
P 5.784451518987407 6.335333765861021 11.773342660762866 -0.08564730295717508 0.4437371815246358 0.7469892863166103
P 6.830002977309062 2.000173839933222 11.586536990183658 -0.045247816094205945 -0.5284570875715351 0.37551090225738554
P 3.6861248789397654 4.544079540629173 4.491685544759747 -0.22051400506179442 0.48692014467001304 0.14042362736710653
P 1.2550302698855476 1.6299213468145821 6.940165675941264 -0.28495742024784476 0.991841096792821 -0.2098189872417935
