# total energy = -340873.90667030646 ev
CRYSTAL
PRIMVEC
9.24002925653626 0.00000000000000 0.00000000000000

0.00000000000000 9.24002925653626 0.00000000000000

0.00000000000000 0.00000000000000 13.52371681340980

PRIMCOORD
 96 1
Ni 5.876815767586475 8.230824133057626 13.05595823641947 0.47904485568699434 -0.08906918415453047 -1.183382111661033
Ni 8.408962659517297 4.820754329434674 4.450290135401887 0.059075723116233735 -0.8349122726818395 -0.4442691427687059
Ni 5.727774093651391 3.4215736402038055 1.2532131730712475 0.8222611595767323 0.31590476055897854 -0.9393481691004273
Ni 0.7498311563753369 3.750777407033263 10.640785496452763 -0.4139185555013066 -1.9798167970929643 -0.49825176763274837
Ni 0.7701823210896594 5.811331679354736 6.1094741634129495 1.5984036704185312 -0.37432356681750373 -0.6173534935936271
Ni 3.0113440557217297 8.44206044476438 8.174857275089566 -0.5689794731656137 -0.21448528236921124 -0.4867052004457295
Ni 8.085238230111491 7.881818983262088 8.119585267331049 0.361779411603906 -0.24439749654761134 -0.3231791827332047
Ni 4.502472277334992 5.341429985122334 0.1130776315736368 -1.555203223771657 -1.4182585560920866 0.36576462150389905
Ni 2.1273412046961035 7.686170601123126 5.594531945956953 -0.2915034488964786 -0.5944678472447051 -0.21566850404403504
Ni -0.35282405393920635 8.905900679722052 2.5873033993220607 0.694636740856823 -0.5894063735613978 -0.2659117164703033
Ni 4.518032486814637 7.768998224505277 6.223668914538895 0.529482957732888 2.710330711462371 0.3423814666932684
Ni 9.218740354515612 8.618267805083168 5.068770578097324 -0.7449380602145363 -0.24646543482023356 0.4214616579558871
Ni 1.8591585919067757 4.670252730857202 3.8203686883253947 -0.6461045975843905 0.7446418691303562 1.5958716480252966
Ni 5.542049503068925 1.016754353159869 0.8577417635184408 1.4766904749767342 0.17164787548871083 0.7628051703029444
Ni 2.0776575667079484 4.58787786891478 12.304432458655434 -0.3103933438224461 0.6495835572719264 1.8293668958381073
Ni 2.9496298994779337 2.3714350608860038 4.577534580024332 0.5932712558334429 0.7905807977543159 1.4828361828631558
Ni 6.491444042032468 2.9581954067152445 3.5983908424618187 0.5756761684594988 0.6684983918985584 -0.5360762946796896
Ni 1.5939512685785202 3.609118516574567 8.259934845626287 1.5299141101875653 0.2980037119088416 0.9791277629912105
Ni 4.3902059203411135 3.629964022860838 6.447364481864624 -0.11183681686834934 -0.2573167757124407 -0.48244616805905943
Ni 1.6815190270337457 0.5970241704670022 3.7864106563428264 -0.8873735758053493 0.6630548522854838 0.3749023221391092
Ni 7.431755632113295 0.6278276564184833 12.037054652425299 -0.7952879734219981 0.3186861799588576 0.6454481949473143
Ni 6.661174141754324 5.859158071437067 8.912738301464888 -0.7395207458537071 0.40854957787990925 -0.2766712689796525
Ni 6.385571785371081 6.255546091904589 0.7074037134610331 1.5105210503729338 0.33842299626615263 1.113072724612509
Ni 8.169562738253559 5.050609300346586 10.737182102982693 -0.661185660287229 0.5031276076678108 0.9808236626363946
P 5.22843366580726 0.4099292835271544 11.057762150389731 1.2717696963675067 -0.15315881554558783 0.5389114501356397
P 2.19912699296651 5.175303496859541 10.055126562125883 0.9837480353720413 -0.13659808297342926 -0.5595818340007975
P 1.6788671386010507 9.451533654771067 0.3959463470630526 0.9094837774408273 0.25435460776032326 0.441032380998963
P 5.122727729674752 1.0728228514511329 3.109697700474811 0.7909003858772637 0.9656191869818143 -0.28928175865481154
P 0.6818226921163785 6.63505257869081 3.9516574938084337 -0.2102229075484315 0.4419559212544969 0.650264385389035
P 0.48121795821679814 2.5113475857914613 3.761162276055931 0.1342285542999882 0.5227114433370095 0.354585464958628
P 6.986404695949431 8.3216905820023 1.4846204689193707 0.7327726284965961 0.5588673244322762 -0.41901113953286545
P 2.9168924753767564 0.343115555067316 5.644826349887272 1.44874566893735 1.862804606671263 0.17008541609759742
Ni 8.296724022611563 1.7335034323380716 5.348576223846537 -1.1102154576693717 -0.5255468559032755 -0.9374386107825404
Ni 5.694214306935197 2.072159749225532 9.601947473069407 -0.7414657853952199 0.8102553933651078 0.5561643236788164
Ni 2.87534930327433 5.857531826265798 7.531858414428429 -0.16528542360579274 0.7625807129969641 0.8454517387605828
Ni 5.445315635466546 1.7036858575216727 5.195662977600306 -0.6299632119378377 -0.15774000715836706 0.3926979555596334
Ni 6.206379895561837 6.016783732668225 11.604065951571895 -2.02575598282724 -0.5616032353062006 1.0673646810524327
Ni 7.0058457177696045 0.15943393498125735 4.074276379722142 -1.3817347501344397 -0.13760518408170497 -0.03050922433245068
Ni 1.417346586996298 8.940098028465618 11.731797345742782 -1.288888101215348 1.7580210971052692 1.80459817353386
Ni 7.546313516393963 2.691962440125564 10.959228325063698 0.9031727476211348 0.9028660150139934 0.357068636391798
Ni 7.614190772235693 4.440120559063824 13.113920940734086 -0.5068870747102432 -0.48678413331278103 -0.3538087346936036
Ni 5.953424851194396 5.469275031654622 4.315242485966164 0.526323329057984 0.38841552613419555 -0.63348690882038
Ni 3.29887529003741 0.7231838356399751 1.8867474716361852 0.006590251623008005 -0.21849260375639146 -0.4924500733493066
Ni 6.813800947089706 7.853137932059702 10.419239159961338 0.11987974177748388 -0.13034413164391745 0.4970310078517698
Ni 5.326470377552532 7.506950991225738 2.6663093465517282 2.926301063017541 -0.09796700086479257 -0.09513698761516519
Ni 4.188560759133096 4.732807729774779 11.414395868443224 0.33700734686554856 -0.6411811921408441 -2.002240673314119
Ni 2.1644399226656854 2.88562421594735 2.410751385907317 0.6555965962352258 -1.728806937435158 -1.350023535074088
Ni 8.1174397325085 1.7640232493875185 2.493408068745896 -0.24746379417776088 0.6980282830368753 -0.9185361174510825
Ni 3.3615226892488086 2.6124150271740985 10.312740429307837 -0.4339065685874592 0.8985427050482911 -0.6162373777113129
Ni 8.262766914631934 3.706647026703817 8.526757326090552 0.2872423596272795 0.10898623479343167 0.8189076697234671
Ni 1.5643924145848236 7.049412456306735 13.467850102187407 0.6077563368234953 0.5784154217675329 -0.504157591594222
Ni 7.685699359624634 0.5567182382988543 9.684455391434932 1.1212454902312883 1.3507678694392802 -1.7637292032336398
Ni 3.976040083342215 8.658351052543203 3.934779656138885 -1.0686728583408949 0.2568966574558866 0.952271819140631
Ni 4.376807877736906 4.215985166339502 8.778893703854731 0.5649994054719432 0.6461398216977002 0.6516563806405551
Ni 5.464313135876374 5.856570863210048 6.680297306563751 1.7680046906805422 -1.5397295536160902 1.3174625704189311
Ni 7.73973505145181 7.227301501973085 3.724932120848277 -0.5156146843912282 -1.631854750988125 0.26940635988712314
P -0.23044540878943476 7.649081123182927 10.699775692034683 -0.37817045136741967 -0.0972370646773035 -0.8660832989680052
P 3.671303914316856 6.752216151257261 12.149477165915735 -0.26908548621259465 0.7728414714930237 0.6311009250867066
P 7.2627000545363405 5.161859254108422 2.4181896095599975 -0.4213019924495712 -0.522332719841352 0.43904466114497287
P 1.0355023727763777 7.4880643711684955 7.583816947650485 -0.2644749840237768 0.1551791884097263 0.33913724872435785
P 6.182448219461908 4.2829384192430116 10.287356220589022 -1.3481072918879813 -1.2565994163849712 -0.07427711344702047
P 2.3283580439061304 4.226278559071287 6.173603663337254 -0.08653176244465743 -0.7434360217477132 -0.7946572818165347
P 6.549868747816196 3.8035010146881665 5.630234495486882 0.19743321198293093 0.5623074604620767 -0.012691736535055563
P 4.614341313065435 6.954120033287981 8.477666897988735 1.1343424326245626 -0.14917926207254953 -0.5280819636203035
Ni 2.3052025302743067 4.975894422762018 1.475370275504838 0.8038903703790284 1.1779665970724165 -1.118927640731389
Ni 6.412414070726406 2.703882078028618 7.445198026858537 -0.28094109999960004 0.5126802843532526 -0.16222581084386256
Ni 1.0701432429302915 0.9844419704102729 6.801780592866385 0.6964745653965102 -0.40472943280287077 -0.779094137270955
Ni 9.277913502679297 4.14212961148748 1.951689170143187 -0.9951943295357699 -0.5508655371737223 0.5399350063041476
Ni 3.8777538908036235 0.3290605463740329 12.831249037870512 -1.0701034201398345 0.25397279894087227 -0.47802772727638965
Ni 3.897980315121286 7.631118506063906 0.8017804495680105 -1.0006239851917733 -0.2173777734256579 -0.06441256194811487
Ni 0.13848863637765865 5.8725376339825095 9.068937302159434 1.289873862167385 0.7546149211826682 -1.2399322401419355
Ni 4.4724976220190955 0.9314781219914324 7.186503076238865 -2.2561450809109016 1.8785680401531066 -0.4642764391285682
Ni 3.7473678361912266 5.848652158029492 5.163165794263066 -1.1787561828532473 -0.9623024639037556 -1.7570525625444127
Ni 5.4695707125948525 9.094092358149569 8.845822932681846 -0.8502684434229356 -2.0624535953585896 1.6432524513021056
Ni 5.284437483892849 2.47976516536306 12.178959327665561 -0.216892092038491 0.03836934380681779 0.29269206988794105
Ni 1.8704221877236924 7.472735162423406 10.195773669367227 0.8911911497792265 -2.634958822289275 -1.3129346006415905
Ni 3.1984823707996735 0.29233882160324515 10.33857093144581 0.30137468526360356 -0.14723319408977226 -0.4463712767133732
Ni 9.208576322195178 6.491425561973703 1.7667250339788774 -0.7281706109482105 1.1231059404787946 0.6912112601150417
Ni 0.5062501218161493 2.207378339204826 0.6367821688927849 -0.0936514042085742 -0.8820344229806228 -0.12041247435250228
Ni 6.663484149099877 0.4323252667437604 7.0386348860353225 2.260376602493746 -1.3419834383784308 -1.6032874808733937
Ni 4.466537803067569 4.008860667707833 3.1151206737192316 -2.1685807634366716 0.7927202126948218 0.1297995719943571
Ni 2.091841011809644 2.1294848915127766 12.283808713074336 0.04848997718058745 -0.6470065405733696 0.2728135857964592
Ni 0.9086303013380364 0.2479672765069238 9.109237690309952 -0.4646657041471869 -0.02288693190050252 0.2842305693841492
Ni 8.019975902584925 5.564687575055346 6.90000302920224 -2.391920153762403 -0.10551010331937312 -0.08142298046318236
Ni 8.107802381862854 6.839321908243376 12.474777020331208 1.3653205704424745 0.9488949322485981 1.1203929124230059
Ni 8.835482415800213 9.082385240922305 0.1806009942900291 -0.11744824951785579 -0.7551096014308996 0.23287664039220538
Ni 0.2549906228403433 3.273289648678064 6.402803516165967 0.4577154980815988 1.6191714990935016 -0.5726039572920784
Ni 1.9217413109124992 7.924701959624935 2.666079269820111 0.5551119711549021 -1.6965236519214202 -1.2630811674545732
P 3.58052062563662 3.187431295658548 13.788376557424028 -0.12029703182056058 0.3985089058144556 0.1555211451301773
P 6.882232604694369 7.72435964255981 5.7903826847393844 -0.07620621214893326 -0.2757256172369316 0.5896460003760297
P 3.7075248294951275 6.246666423668283 2.7704010495511633 -1.5321427424077676 -1.259493964323947 0.3144675138918197
P 2.656249726563314 1.5641429337915038 8.391709676654829 0.23039038363524192 0.06499877346888806 0.7518669261238857
P 0.27384767480356204 1.576339772576024 10.81045368797776 -0.029700355277910137 -0.039297512048041994 0.5416504463333575
P 0.26049860435508 5.301559258338088 13.528044273597828 1.284093250929866 -0.5576463075409815 -0.9400176843636262
P 8.474030946426835 1.619546149967248 7.7166054099022565 -0.6615744110852155 0.03897123905687482 0.3060939451161438
P 7.582229510602621 2.3499242724842135 0.18097429147707048 -0.7893276420735051 -1.1178791448622167 0.060210350941309214
