# total energy = -340873.86358829116 ev
CRYSTAL
PRIMVEC
9.22497587360432 0.00000000000000 0.00000000000000
0.00000000000000 9.22497587360432 0.00000000000000
0.00000000000000 0.00000000000000 13.50168466587038
PRIMCOORD
 96 1
Ni 7.968644863270499 3.261849995784907 6.005387341874345 -0.9479233123639482 0.9630987345528057 0.46622019311850027
Ni 1.4449171967730494 6.685884292483855 0.3142829357004807 -0.13377346904044057 0.16219804292972068 0.32601228130662563
Ni 3.7179328032014443 2.7622437521751824 1.9874481756414695 -0.0007487052405664524 0.3020575702632411 0.025302997541162872
Ni 1.4130172301863508 2.501462909075302 1.755961243442706 -1.3224083444599806 -0.5305905889747701 0.2100069348828835
Ni 0.7804717041915485 3.5233780619309187 11.052128105455886 -0.6395184597264406 1.0465323176881136 0.15083608094968215
Ni 0.6968749727836064 7.39379971639845 7.807970690907715 -1.6991122385842028 0.7223267505729237 0.5232829995697633
Ni 6.221010083055425 6.906324316068513 4.225514038457844 1.7833896577770447 -0.75784576941514 2.6267624025214116
Ni 7.773545848423162 7.831165047758188 11.257015742207546 -0.32522938039401406 -0.8551545678706434 2.24434963093787
Ni 8.656136190590834 5.337515693251692 9.806260058201206 0.04545170457489592 0.37638970531791305 -1.3204175392821969
Ni 9.324605617650391 7.809135805361127 1.9236122650621472 -2.0226030390205554 -2.0999523636349964 0.7461961009913536
Ni 5.109317464953495 8.796641798191184 13.268524499934449 0.1639898447228208 0.4038634852581496 0.1664899854368552
Ni 5.781550682171344 0.251078013471225 8.598062199945014 -0.7763744243469468 0.9131807666764402 -0.28290619414577084
Ni 3.6833299186824426 7.059864814584712 1.0454951136977975 1.192962042039984 -1.0740940293564663 -0.9448675562567598
Ni 0.24450152816768034 4.995342887978752 7.530011097727513 1.0260390828307684 0.030076764780722392 -1.093098338373111
Ni 0.5740739388886337 5.999564537100046 11.665644351209206 0.42200441783323445 0.7098245043408549 1.1286420398056756
Ni 3.321240390488541 4.490478408118472 6.023304090024919 0.21056846381330835 0.16665376470822912 0.7243036717936364
Ni 7.652301990456423 3.594936199817854 13.268699774476135 -0.37400449291518817 -0.580239105239833 0.6754036036588239
Ni 4.90812074105069 3.0217423236279974 7.262380710038094 0.7501116339956758 1.0275773738521656 -0.49268532928856446
Ni 5.116171622030972 2.6079929305163656 4.1994424116309705 0.03451988815374055 -0.39754268524644437 -0.656566673457979
Ni 6.090725748728084 6.120974444632591 9.714367305986029 1.640960055723503 0.1040620580189369 0.6421062750582749
Ni 7.796617513094455 8.358520018809436 9.057929092466775 -0.3559998288076514 0.33496871916896503 -2.0702646067625765
Ni 2.9924438002389415 3.3310649897987883 12.312807773980552 0.0032912691567620737 -0.7197430490061476 0.27499850926291997
Ni 7.482627009129312 0.894123407010556 6.216972311113552 -0.5459367324135371 -0.3321579891930473 1.6568674709823787
Ni 8.190201108936416 6.000975958409406 0.5187545260400344 0.018343792614510343 -0.17917066622831723 -1.0984341487637277
P 0.4751194676387205 8.770977915298126 5.919111677471382 0.1595724323814155 -0.2764486114458852 -0.4158923913982257
P 7.614156715200206 1.6731154250712468 8.423201859676785 -0.2749504296338039 -0.11644603350558655 -0.151557532496739
P 7.782687799518424 4.888683716875394 11.654586372624049 0.012212225795475741 1.1311776617433358 0.27848981024563
P 1.7880124996338067 1.5905703409134155 11.468398684475023 -0.05548029245549154 -0.9592125121245222 0.6729721113991958
P 0.35026587661085573 7.848046753615232 10.03981246249909 1.782256572613866 -0.38775603817332577 0.5435008692785349
P 3.3062221297588867 6.219543311890797 4.878995647208144 -0.4623676521416295 2.2906366869298678 0.14037143397293245
P 5.883938689443111 5.155202494971493 1.7680994667031973 0.39587609617729885 1.6414513935376247 -0.07559506092749563
P 7.574627693562264 6.31218974463522 8.029680993670798 0.47320947995213997 1.237315628454695 0.41711649361331393
Ni 2.745850970039681 8.468601655963594 4.808516831498954 -0.9313301838919573 -0.06339183399308437 -0.7147885332143495
Ni 7.838111454594447 8.546681851796391 4.259052360760505 1.0705705895842401 0.6252910032731489 -0.22080145439522617
Ni 0.7475920451665886 8.943337364605783 12.352029603921752 0.5131482251286066 -1.0847872474042544 0.3851805641366657
Ni 0.05403160621600722 3.5368465267130413 3.89433186944615 0.21501415828948778 -0.5604881478651509 0.10562348896878583
Ni 4.13242019438333 1.0570254110479174 5.872165775227394 0.7973564259152526 -0.8569329999273048 0.28394800514672386
Ni 1.1538876577686623 4.276864866683655 13.573918248878728 -0.5914773971578137 0.6249161364322334 -0.45121214974544227
Ni 2.7866530383488097 2.5752442661488755 4.7454502839078705 -1.6015134196921064 -1.279902609887286 -0.24702850641255522
Ni 6.796390278528407 7.747623666205514 6.578304468787856 0.47379157770785496 1.1351464165830967 0.4904746947904907
Ni 7.495394375744694 0.7591878398454435 1.9018339420089725 1.1518794130670613 -0.6145029115187094 -1.0920860950585127
Ni 2.344813593688162 2.340487080001302 9.620706125895005 1.6289864283013946 1.5708203614836236 -1.4303399127366527
Ni 4.982760020880933 4.32206724848667 13.56257706353411 -1.141543321248376 0.2872935245801891 -0.4008324117413097
Ni 0.14496588343744268 2.930193663013076 8.639566288918472 -0.5526347132590032 0.002027057732357799 0.21909295634455173
Ni 4.4583570421106975 7.741922631112807 6.453467482716572 -0.12504148848408142 0.12053691574550855 -1.0067655793131371
Ni 6.540941471486107 7.39767420626728 2.018542801834004 0.2781182858388242 0.11189723779263955 -1.5885969687407546
Ni 7.138959757764109 4.287316764353618 8.152290148067504 -0.7109699307992078 -2.5253112997627603 0.2785458602945461
Ni 5.408492657658303 5.698378299653798 7.237132873557141 0.7693913081608943 -0.3574054509059264 -1.7232435844147675
Ni 7.028398421864287 4.628733121604549 3.5679014855093 0.8509258745012764 -0.3071766366573613 0.19214625255237877
Ni 4.939753183336922 2.892712586020087 9.65849808457509 0.02531122507127899 -0.6350861349866999 -1.1107209365508808
Ni 2.2251010817171992 6.619750440413281 3.001532246474111 -1.432219903368185 -0.43781875915767177 0.037911173223476646
Ni 1.0738609920255706 6.531319821645179 5.479105235517727 0.5118446758258346 -0.26340437666741734 0.12788564280109588
Ni 0.6050818503079137 0.410067705238656 3.3262347924289806 0.013202357622886941 0.9894854520764508 0.7303015412482842
Ni 3.9055595875874665 0.6374246157367643 11.265819136688078 0.027396132624765722 0.3572902654843008 -0.08158367441076272
Ni 5.418068182619839 2.5679380852533678 11.865401978875019 0.1482438947424737 -0.8133288900841089 1.8135407274391282
Ni 7.407581830360431 1.8780574891805868 3.998551034429733 0.004511771827424488 0.10933641904399881 -0.5307566822389892
P 8.270504523955854 3.0427937185819727 1.8637587765694292 0.8229638420707117 0.11455935800583497 0.5482101018287462
P 3.8351637966611802 1.4069748709861518 8.136560641697644 -0.2526000869630617 -0.7653590470730497 1.2216835783443927
P 7.76399799838926 8.110810966528918 -0.0016678756387724484 -0.7854815288545376 0.3664230810235044 0.8828895718920665
P 3.9423672413413495 7.904586630772512 8.647127079148216 -0.16930071541277295 -0.46607826822399734 0.7367696654711311
P 1.7464078584232772 4.45673344635614 9.167157419352202 0.010989666242284299 0.8873566065244847 -0.023761621195971982
P 2.7713764782945667 4.897659618404849 1.3451121827471695 -0.0968439430039429 0.005447139157500297 -0.20615105147190305
P 5.882988516927659 9.19568657975302 5.038828501770839 -0.39361635360884467 -0.34632811004584224 -0.31925747908129537
P 6.388738594472243 0.1895105244603438 10.754820970366406 -1.0638978055497548 0.48053918084433367 0.32166968806721374
Ni 0.2594155466699116 5.130461109666252 2.24319679439981 0.20383782995769414 0.5406122348768302 0.23803067378931908
Ni 6.065098765738538 2.8692073474825195 1.744310098908582 1.2880195825674656 -0.15202830148557042 0.2898977949722556
Ni 2.7181299175257916 6.323564139892999 7.7107449801373695 -0.35816675455198316 0.0059022244170479 -1.0758053556206182
Ni 7.60060522563518 1.0463890138603917 12.557579593941464 -1.951856821544929 -1.0729802274669973 -0.15515296315748117
Ni 3.2285570578406055 6.001160457926968 12.198339660796327 0.7251937877080736 -4.55516433547751 0.4883548202340106
Ni 2.446786477045411 7.015077556696215 10.281546497903319 -0.5783511441885006 0.09058407813716013 -1.3151516628975672
Ni 0.4852706310950546 0.7094596848766007 7.860303056566964 -1.5147384308883913 0.11880270666322122 -0.25018916352872395
Ni 0.2055795099425215 1.655145172060579 5.367661991923952 2.5237930633460213 -0.32155835930033005 0.13082621348665857
Ni 2.5740265693329576 8.735000509373277 2.2651642294584873 0.3038637702340444 1.20371516679143 -0.7362168782914547
Ni 7.313330251813206 3.02389174300761 10.560652755585178 0.8555978260556492 -0.08645977155614142 -0.5299429280884422
Ni 0.3342402485153055 2.120166981103059 13.014084905253219 0.7474693112768224 -0.7323057161625065 0.9021090822433109
Ni 7.660235469711647 5.695878331190815 5.95930581987014 0.1166452940005862 -0.8079732821991504 -1.671863687280895
Ni 2.7839501204165074 0.9410582392834901 -0.015674156514592183 -0.5500235008884011 -0.44070610800779586 0.11236646411957422
Ni 4.478559739283882 7.3832094440903155 3.1636206076390176 -1.598895265342969 1.4181626539441705 -0.08430852954109351
Ni 2.2446488056030334 2.352110549607791 7.087614464523824 -0.8060012460744441 0.3037151604713221 -0.19059073513980077
Ni 5.099059291776975 0.7013260236448217 2.5515757455382646 2.981032650232466 -1.6591922624608133 -1.728644443715365
Ni 2.4571368999807137 8.914915213925152 7.08811445821642 0.3035678362601804 0.3132529247584282 0.8266346060540796
Ni 4.194365907405215 5.224408264009496 8.97168018049386 -1.8073790787131068 -2.030532578280277 2.376949905605816
Ni 2.0307492899159936 0.09552923770635005 9.57932380660314 0.1519138873948932 -1.1604992935255887 0.112923879284941
Ni 4.689544162593421 7.563096473714555 10.972873570193798 0.8216816329241784 0.7677794835890841 -0.3116236166851214
Ni 2.4627918101940294 4.3386168552121 3.4571602625798543 -1.2025766823116129 0.44329623733247525 -0.5034505382248684
Ni 6.060790702003435 6.636263147235199 13.031623429392788 -0.032948944122194866 -0.7291512296939249 -0.5207226950417548
Ni 8.955311383295642 1.0788609289515367 10.536106939768553 0.19186086010147604 -0.1606774925201362 -0.9342974940503973
Ni 4.654775228508612 5.02135731995518 3.7533742380277704 0.9325717696085423 -0.7574891574066696 -0.3980052267051597
P 4.358026204459762 4.394400284347371 11.070625104589197 0.6486805858416829 0.6187753136418181 -0.07333069037335113
P 3.4545781918315552 1.0012327569367683 3.518417792401229 -3.0490475848198586 0.38339544721178487 1.7813600289415257
P 5.793607725644107 4.070474481361443 5.518314150492696 1.276721641056143 1.2058815783151298 1.2076512686210426
P 4.841359590620401 1.6237156792436667 0.3605406547439573 0.3070614512357357 1.1245562997720762 -0.11141772705305972
P 8.709954699864056 6.515259138641292 3.9398451329362585 -0.47298013755015317 -0.8390052118042904 -0.6006364379492624
P 3.0481165296636745 7.908562595376003 12.56774643985679 -0.28349857631413117 3.431957607754793 0.3532783161114303
P 1.165575702206299 3.868272235087918 5.74912489195959 -0.6014188246412417 0.011559422702825253 0.19297106244651926
P 0.8373473704707944 0.26790252447782453 1.1322689267981798 0.7848667780886741 2.8156726646349957 -1.0878962253468811
