# total energy = -340892.236236165 ev
CRYSTAL
PRIMVEC
9.04008989132683 0.00000000000000 0.00000000000000

0.00000000000000 9.04008989132683 0.00000000000000

0.00000000000000 0.00000000000000 13.23108534224529

PRIMCOORD
 96 1
Ni 6.678031877408919 1.9538346146126975 11.39196411820499 -0.2086771603278664 -0.7788326560794523 0.46157729502985023
Ni 4.362430948043198 0.3707982685005806 5.9705273271686305 0.6339939303637856 -0.5876955615178783 0.2540118797089238
Ni 2.7986490892565965 1.694374996447709 4.795090551239539 -0.892913788897288 0.4461470765177091 -0.6715011832806241
Ni 3.4190252537307386 4.550473856563805 5.020349701565714 0.10673960485110004 -0.5287221683074635 -1.2770767104027168
Ni 4.855079683331837 4.699029652713948 2.9441945354938817 0.5603228259318802 -0.366688161759433 -0.6779682790622066
Ni 7.059062623586269 6.094692960961743 2.835289477340096 0.7298863080877366 -0.5231511019775894 -0.8314258567951359
Ni 5.082609704222907 4.570371094276119 11.426616590535223 0.812243370329414 -0.6556079090891354 0.8285451928132311
Ni 5.465159185491428 7.870871730266669 12.261749128972902 0.9870660440016807 0.32454520984279595 1.7090714066794437
Ni 1.9093844929264412 6.634720807041041 0.19025411449263402 -0.43223792263578464 -0.3412800060989735 0.1442319453696032
Ni 3.0198510472677844 1.8556230787169297 0.3999769664397163 -0.13762652423794364 -0.7695121500094747 -0.37296371035549963
Ni 0.46365264716403715 -0.026760473910037975 4.777030259780356 1.3516343312046333 0.970545420638838 -0.6749189507129215
Ni 8.609085465654042 2.457132575719195 1.3840901852494736 -0.389260133522678 0.5239203760434461 -0.0656412921488934
Ni 6.957958258945412 0.6501533163599182 4.761418024646705 -1.3915661344025647 0.3334319708094644 -0.11732946455180437
Ni 0.9930719478297046 7.16218292825886 2.42172525588829 -0.878661392743332 1.135127133309387 0.06679417480641399
Ni 6.98870360445181 3.707738602580439 4.104811892167272 1.3651112826451455 -1.1498045328159037 -1.9593865542630708
Ni 7.749833967554184 3.9497598874664392 12.645397885164558 0.11931821284705901 -0.8961765188089599 0.2278740449712914
Ni 7.888789188306563 8.823859919797236 6.843077701415052 1.426235660760292 1.10021052393786 1.131891914201541
Ni 6.936108361830162 0.5450152636376281 0.3660739175562573 -0.45016365387626983 0.23573159334249724 -0.38220991154411593
Ni 1.7683138911542153 6.4357393898280675 8.934144495658837 0.7699998882791707 0.0620412335024609 1.0410435266594007
Ni 9.155802978206358 5.099243469507169 1.265896434797004 -0.48671111398300043 -0.693964654490463 0.008663332101952822
Ni 6.386787303407266 1.9242554406941637 7.019831345757949 0.5717084420610025 -1.3194939990266632 -0.016001517634578893
Ni 3.448432665942533 4.2791355603642955 0.43589685936389205 0.31851134494389016 -0.5833331707841245 1.0384778228147533
Ni 5.949572398946394 5.570910156304086 5.016381102131046 -0.4386643949874187 1.8627017625448115 -0.3380830964282307
Ni 5.527924529170029 2.652290034934755 9.119207790572002 -0.41039665839097705 1.2280905103120012 1.3012597354068236
P 0.11162883721908348 5.651900321076745 12.347394035998208 0.2811143923526707 0.16278631133302288 0.972646269031925
P 3.9778836069226 6.102395117495543 12.778754578286208 0.9980953052326487 1.1407131120375966 -0.9170983565632915
P 2.0751978205590054 8.719175679584332 1.3687030483525493 2.421865278061268 -0.4466484416341598 -0.21143492557866167
P 6.32156305529534 7.88003838135267 5.841233250415866 -1.3396951565648862 -0.5852504424114954 -0.6178674571155681
P 4.916443813087036 1.0874052851890879 12.716131164017913 -0.3819232335416326 -0.8393296850232448 -0.5781143455873463
P 3.9463427335113024 6.231351998897709 8.25598588501951 -0.07800649858246565 -0.16177972444537944 1.2418975913984225
P 4.871966571131294 1.2151417544644196 3.939700979514375 -0.5374443786718098 -0.495369818099263 -0.135065962599619
P 0.16014247928320713 5.5004788164509995 3.455973004868404 -0.6902470964295596 0.06292415032804648 1.5714595377295195
Ni 1.5228121716842804 1.3831970243744276 2.4710506980190043 -0.29725320689606227 -0.6107771259276901 0.8915878709970129
Ni 1.8314317983361237 6.5189895770578286 4.789917811839727 -0.053271457729630836 -0.4826559700770203 -0.23836903096534431
Ni 5.948180225112819 5.566516672647481 9.173693315976768 0.36919215912820935 -0.09184906089251278 -0.33364434393058673
Ni 8.714755075658243 2.4839545222400665 9.976674774939731 0.5605390557077443 -1.2101174707733484 1.5025999957536444
Ni 2.4699604631856986 5.1904398956960955 6.952948241162511 -1.250824461574407 0.15824754292240487 0.7444824607343565
Ni 0.7130488373320479 -0.14825295314089176 8.860275209644008 -0.49054514301710994 0.18417531853176022 0.5547543307051671
Ni 1.5115753400275758 1.3615460092354028 11.38657893669421 -0.21999978442953724 -0.9352387749177441 0.10912558858477335
Ni 3.8497493736948183 6.9172326542684575 1.5883392628054582 0.7803974294634107 0.3596821627552451 0.3511054768298276
Ni 5.813238804244251 8.13586388340664 8.0945000483878 -1.637668786566741 -0.26503831272641454 -0.4247333867286233
Ni 5.074157220233351 2.8517324967289777 5.339973829565673 -0.6200202417925128 -0.34187675914270804 -1.3676106520282316
Ni 0.6398051255333456 7.179964784951329 6.861058440083745 0.06563383594972566 0.8004900864482278 -0.3345581139941077
Ni 4.9916302401898625 4.523254146090484 7.055753950709073 -0.8238035643631877 0.7196373766662186 1.4611594692206706
Ni 8.281237567937186 6.917169373639659 9.192984867670578 -0.48172625917389933 1.2657078064441427 1.023570823795934
Ni 4.556313754592954 0.37937098568485494 10.569030276981758 0.41476264866915663 -0.7636137822471688 -1.5278582560998009
Ni 8.167368596458624 7.23773999904465 4.7946936912960725 -0.5342508114351767 -1.4523873794549953 -0.7191645507948582
Ni 7.274280042131054 6.363888755871922 7.024925436376255 -0.9483457446133473 -1.4150274507492986 0.06194173181011913
Ni 2.29749362943943 5.162090173994225 2.6627955233243417 0.36320097454178096 -0.7069304706225116 -0.20654725846905717
Ni 2.5193464739182634 5.083956677607339 11.556056212734225 -0.42985553844653707 0.5206237075700453 -1.411905360180549
Ni 0.8707107159663414 3.3145218153144023 3.7134230110645388 -0.39755219832814115 0.757715928705495 0.605450571508454
Ni 3.9027243000892593 2.558408702066792 2.5108234772280453 -0.4192723636140521 0.7812075840695321 0.27019363167510885
Ni 1.201843782326839 3.3149828598956512 8.15626284610443 -0.7217410532727828 1.063434749870407 -0.008688528912933424
Ni 3.385052596155601 2.7506642924474343 7.069501215311126 0.5202277576832073 -0.1541152659215862 0.5094437796938258
Ni 4.293156739688148 6.920197803732173 6.25074841563353 -0.27212427303891845 0.2816810634894181 -0.8555872845326878
Ni 0.9194946567163342 7.255539935916776 11.193326224405494 0.5598952514761584 -0.6818190202668645 -0.5625990235605666
P -0.025926977627859237 5.464237096328932 7.891059154862475 1.8431012147050647 -1.6431161828345575 0.7913091912799082
P 8.694921118574726 1.6778316320617317 7.9618322101110754 -1.1171219549812181 -1.4936301881548664 -0.24524596059083573
P 1.7897027436882165 3.2867235390920637 10.332392365588571 1.5854854196949664 -0.06846050676524339 0.3780634934759102
P 3.8662746579011387 6.398647901262131 3.8321058303767246 -0.7191511810584196 -0.6961056120928657 0.3561306979585609
P 7.058791420891417 3.8248258460379123 10.436375998839774 -1.012086220195102 1.5722437241937115 -0.44282264013016637
P 6.437628768602203 7.781908206265357 10.161724509718153 -0.807610499543093 -0.578119487793669 0.5747248602898231
P 2.2956494511144356 8.25512074842293 5.951884853924498 0.7044665824630513 1.0941949138713993 -0.3089730664361518
P 6.792569815534783 3.9799628275831327 1.8623941059984033 0.03011198889403201 0.19424298718040742 -0.6160766837637326
Ni 5.646629948706787 2.902727643450998 0.3187472392866029 -0.5233886719096922 0.6827600440238952 0.1865780144359819
Ni 1.3982397338488899 1.0593086860024121 6.813108899624914 0.4247557553261265 0.38366232771992637 0.04616801391563017
Ni 7.080315874772844 0.6815350841902358 9.278774416133137 0.4530042086488585 0.4273294295905737 -0.3698850714301759
Ni 2.6742484131279456 1.6165488631149891 9.171404365232215 0.172777875328096 -0.24299367422154924 0.4390893983399793
Ni 6.397228607159072 1.6765208190366134 2.4211430741033406 0.5130798337845163 1.149859554423555 0.8254128178318365
Ni 4.367158915023453 6.671839415876463 10.64309844497281 -1.0054232063526298 0.865960914457528 -1.572194359013015
Ni 7.7883989907621505 7.350759202079343 0.12240552830352247 0.19025109241219493 -1.3239463783710619 0.699989263417988
Ni 7.656052075674333 3.6271281215805713 8.184669520372221 -0.04425614160489798 1.4519940006713188 -0.28568787065596607
Ni 3.1028842723416643 8.671914089961442 12.411472000719892 -0.22821214503700052 -0.4185619678105888 0.8302611470630732
Ni 0.2438500950582857 4.838075274364612 10.29447190078537 -0.2614855623781496 0.3328727558718848 -0.3489958866859925
Ni 8.527001450012145 2.3026103202823065 5.706460879227088 0.4492635106595037 0.5128944572465877 0.07418249685068513
Ni 3.96667389553538 2.5519811981987974 11.20895201967389 -0.8855897444320491 0.23354975519983004 0.8627385508654883
Ni 1.236566767357734 3.4339323618577753 12.546045489932446 -1.3870044831738113 0.014499479167755673 1.0079506007601737
Ni 3.087507079543551 8.523150371745245 8.108008654618382 0.4851897922424676 -1.2917345695252074 -0.014585096903026494
Ni 5.482787360656814 7.819117215999063 3.725582835892723 -0.06359572247377436 0.5985417602037627 0.6248138065264143
Ni 2.8236087772728165 8.507673737959019 3.535505003151743 -0.06184531544157091 -0.2276058789115693 0.804011212227609
Ni 3.693111737238083 4.307331600539083 9.452380301197785 -0.7190218545694069 0.015846994334585612 -0.969301520929408
Ni 7.1166660759728515 5.92067123176499 11.377952882979947 0.41124306555167245 1.0036188061540394 -0.6808448292790533
Ni 0.5571244639627736 8.729454261719225 -0.03925839809780485 -0.06216053268914455 0.9404601712176835 -0.1814239810388682
Ni 4.478885385212683 0.2415358320622146 1.9981183986461115 -0.1201157690476899 0.1060243239516303 -1.9952986947786477
Ni 6.110621599239389 5.5872365585341806 0.3852298679026428 -1.0812108429069056 0.01760845711038258 0.8592297663812815
Ni 8.128017085435587 8.597423749775402 11.261678343598048 -0.8215679901644496 1.233962652822062 -0.031300866995810604
Ni -0.1578933049339005 4.836267256398932 5.662957254945865 0.4177937221859966 -0.031106748707133525 -0.06911048164441647
Ni 7.96012453714249 -0.33675509822478134 2.609408368833726 0.12139694975295869 -0.9304161567181202 -0.5288386392806699
P 8.44598416497 1.5670724514841405 3.4789022887091647 0.6380714428672688 0.5736779070825474 0.276802138130562
P 1.677949153229501 3.331905908054421 1.5601965591606575 1.0114033351954645 0.22603210666654622 -0.4295310652275829
P 4.560191953129339 1.12367412558064 8.08388879094722 0.23631883330453493 -0.5459007369692792 -0.013781627165124651
P 8.630383917289759 1.579764737603218 12.523764380532382 -0.18338393297871644 0.3135894821622406 -0.5881568174250129
P 6.1118148910967385 7.739817548024313 1.5525486431658286 0.6428063864490929 -0.2177953205790507 -0.5509295576424382
P 1.6206892242563975 3.2493789280109318 5.970593319824379 0.04373575032505371 0.10394378727351776 -1.508501963060376
P 6.773639867434107 3.996976276640187 6.178029933053858 1.4472971094162816 -0.42197125060245394 0.5228716230639575
P 2.346463796039888 8.589016466234987 10.313710115949194 0.9374314116936887 0.4346619586962449 -0.6583487050590662
