# total energy = -381163.15344665345 ev
CRYSTAL
PRIMVEC
9.28571778996065 0.00000000000000 0.00000000000000
0.00000000000000 9.28571778996065 0.00000000000000
0.00000000000000 0.00000000000000 13.59058660034625
PRIMCOORD
 96 1
Ni 5.276116817271721 8.073792066599266 7.748931240420579 -0.6754686525688045 2.135190875122316 1.6626771356856203
Ni 0.610817281814545 8.303065716997377 9.999138229753106 1.0860028649789102 0.411834162168452 -0.6225432653246827
Ni 1.5676426828058998 1.5061340901917046 10.3191416971159 0.37440841322182616 0.17139436471700803 -0.3467988790346737
Ni 6.689755875605033 6.061744230725314 7.69460979313902 0.1485367433925442 -0.24646672037181427 0.1310900086710065
Ni 3.2753882710107995 0.45066929808277556 8.896723921473189 -0.35986342552811573 -1.1981950083041493 -1.644924953908522
Ni 2.449488700828981 7.744761953270251 7.823950551974033 -0.30781195624851504 0.04590447584159836 -0.6652595732462865
Ni 8.39576503464042 2.7422395159479027 12.733496028700568 -1.1561086206570605 -0.008979834901107115 -0.072094761083721
Ni 4.324033632199459 0.08972231661766303 2.669571348061403 1.011586140630232 -0.46077176840941936 -0.8097727973017343
Ni 7.656854065848966 5.987941348162267 5.308876828555369 -0.2956161855132715 1.333840240446006 1.521912322929011
Ni 3.985550658471705 2.332665089162437 9.763802862981422 -0.9235718801027771 0.2010337848499957 0.7703606140526991
Ni 3.6313933936309133 7.14326103180743 12.055379580848788 -0.09414299913301206 2.3181438912112013 1.3810444089356344
Ni 2.279058642127149 4.047133536825772 0.26157680438154535 2.742789346211709 1.544761459613043 -1.5930717166826565
Ni 1.021661066180077 2.3766979614716934 3.0580588390123915 -0.09081187787725005 -0.23675540662132127 -0.8412546699600996
Ni 0.5733846974929351 3.1251267906842743 0.7658794780803129 -2.408189580346388 -3.694536917417753 1.8780054827814172
Ni 7.020318132318912 4.345075068018264 3.796801736317384 1.0644097121891667 -0.4584179234652621 0.7157213294412642
Ni 3.970777081954618 4.724721627352712 9.879553974278561 0.15621791408688582 -0.6102222818654846 0.42031648860785037
Ni 3.082143204450713 6.552067256751879 2.1052086536759487 1.2370286933418952 -1.3467435787712354 2.5340713053435775
Ni 7.072828864691084 6.541648681734801 3.172993735742685 1.2848995488812451 -1.490878079331026 0.9681836052748809
Ni 0.2549598021024277 5.188580358549799 13.430611054524665 -3.0662775755448997 -2.2938510801021077 -1.0616041244195717
Ni 6.206044280427095 3.9740920830964157 13.52102979995363 -2.537140945407837 -2.778428435571557 -0.5981031300044474
Ni 7.65872978078074 4.26376004001064 1.4349887799725862 2.274604830277986 0.28353328620680845 1.6970224459347096
Ni 2.1820043229840977 1.7408213138830044 12.744069675199627 -0.4677921655913105 -0.10730756153942811 0.49272003918124163
Ni 0.428928647737423 1.1155025270736543 4.8887241124121 -0.6718500819796106 -0.8395112049064316 0.4556524449049831
Ni 5.845777013481814 7.766518389335325 13.088998794004794 -1.2094703241076525 -0.28756554729465317 0.7664810764926347
P 1.556741250479652 8.403379322977322 5.429452798657209 -0.7726409254464435 0.0773395544224281 1.2589609746386126
Ni 5.609585503558101 5.727616258497569 1.4937822287944518 -0.7586566953522096 0.44529089916500086 -0.08492636563075051
P 1.967123534686228 5.195071075071134 4.1842696554886265 1.308177288462263 0.7013532336450501 1.4826960577408659
Ni 0.701867456032424 7.948964166461489 2.0118008357888755 -0.27293262787282674 1.5140702011767733 -0.41372803675705516
P 0.29571667328331924 5.105176044108268 7.361164321146351 0.20034370076150657 -1.4915056856126958 0.7514771468846349
P 4.906461689950088 4.79029736422491 6.272748231973604 1.1920202469520051 1.925628226865703 -0.3515405074847171
P 5.066547459374715 7.442019706138517 3.364553444579421 -0.23935762013085873 0.9471969757208849 -0.4636699158928208
Ni 7.10832816263252 3.9036784874150383 6.739666607081678 -0.046335649841746006 1.057361547093134 1.7977814077223426
Ni 4.442389387250868 5.652689804118955 4.223206526042649 -0.5133662546766836 -1.2729850568318464 0.6832164148350233
Ni 3.9551956480164203 3.525415499985712 7.531155165411189 -0.05342726658120476 -1.8602725842780283 1.1353536474978965
Ni 8.892866634430325 4.662052320053013 11.101987109611278 1.1745670844725642 -0.8645239249006853 1.5872278563073696
Ni 5.434057585957538 2.7777016710194014 5.552556341058201 -0.319392719107579 -0.8773501301310761 -0.7663643484091124
Ni 7.267457503156292 7.785145538608284 11.246889802377773 -1.8657564902107353 1.7460287006300832 -0.0865639012341735
Ni 3.013986038117954 3.6965791303687827 3.145989940727386 0.1820726703664606 -0.6938906067194178 0.2974103012992168
Ni 3.4538504753363157 8.183734961610146 0.613185139772972 -0.3389300178095582 0.8414508451313057 -0.34742442843381455
Ni 5.293694680468985 6.126688538808599 11.08713181878033 2.1790204707127567 -1.0710488147722392 0.08194080063986532
Ni 1.7923013316144503 5.940519188971341 11.828702217059211 0.8157660387706919 -1.2038951440127204 -0.8000661115369317
Ni 7.923827729232228 2.509845864475157 10.421383946617276 -2.480770022817276 -0.7445778486616402 1.8306797011122602
Ni 5.936062044579008 2.9341195820378374 8.968509017626957 1.5310970747520727 0.8370540016151906 0.027804166696461796
Ni 7.979597748441295 8.484555065222686 4.456434963517207 -0.1942013353091946 0.8295273542208422 -0.954555472968485
Ni 2.3407065205036046 3.6664748342855673 11.18880299665644 -0.23981013428724504 0.06639925336084049 1.7402807424027125
Ni 0.27933202478275354 7.038118852735792 6.539748823937569 1.0470316259220356 -1.949513261013417 9.693058918047822e-05
Ni 8.457180770079775 0.9494646127417665 1.8013103347174535 1.1623492022501338 -0.13662045157093247 -0.5720411428100729
Ni 2.043080703705569 3.622330533366503 8.997375527569552 -0.9114331878577142 -0.6285141381961369 -1.9391388597576282
Ni 2.5469701629762973 5.155365347109434 6.544166039744721 -1.459062991702958 0.7027634837290155 -1.1426800059559803
Ni 4.176743581467822 6.089768526092108 8.125852441673464 0.7054037495653399 -0.5493925521726216 -1.1286865198903657
Ni 5.83377986649245 9.175384588881847 5.3257703343740594 -1.1415908866568598 2.712670415339141 -1.0982235754148182
Ni 7.703904796340532 8.191451392839372 6.694274305732761 -1.45923885515919 0.8590639302273786 0.9953377970921697
Ni 2.965273164196748 6.9637031128187985 9.903174982414429 0.19542440908301825 0.9237598277438671 0.5490878764480092
Ni 4.566325858510177 2.752138090785875 12.079381303401501 -0.012807436177313426 -0.5599132491982873 0.023700686051049503
Ni 6.6212737091603335 1.0218189233773054 3.218984965869323 -0.26271480679956044 0.9052496847548217 1.1108759740715062
Ni 5.2922089656715405 1.1929918394778602 7.442191491911971 -1.0581647597207195 -0.1294964389316415 1.5166305057047815
P 1.3808790470496637 0.6137961399834209 1.3708142578687268 0.32895336621282056 1.6199412873799908 -0.0032946115908717454
Ni 8.973986662370784 0.7708287654992992 11.366554843594427 -0.7327371472729703 -1.0086100887210434 0.9975569162306755
P 4.2722007572036205 0.6101338530077207 13.230979271479066 1.1986192403257614 0.6831943033478364 -0.471826226451368
Ni 7.8460041309985975 7.792211969613629 9.032017753787212 0.1314247663026059 -0.2769911142129165 -0.2624301856796061
P 6.7280037459217406 2.116493586134287 1.1884084093277443 0.3995378612996022 0.6674869199149085 0.7040940296149809
P 7.140345316517445 0.5009133868170975 8.629369543673082 -2.0953197499589913 -0.6578614810100025 1.6969393993025998
P 4.12594142111271 1.3987911960763517 4.271616685573875 0.6517234864330648 1.7924134585422098 -0.9481655102817411
Ni 0.3909658489474752 7.023642419178193 4.018274455457164 0.44880688273805924 -1.6479277452905876 0.7401331826267253
Ni 7.228123203893953 5.794789138777021 12.798961265534706 -0.10589911122767567 0.45234446357767255 -0.5226769905546482
Ni 0.14138619155529278 2.8087438245685044 6.648528218547701 0.5927737473717339 0.9760810057450866 0.7811929287815127
Ni 5.818588432688582 7.162278181214717 5.94116547490823 -0.7131003468786493 -3.8347522854287956 -3.0496967883680832
Ni 5.072490318564492 8.029155622653548 10.052630462463343 0.11848954629817657 1.3326217946578727 -0.4922752383343393
Ni 3.365450444888378 0.8358770736184056 6.096002956810884 -0.4914002919285537 -1.1910928500417293 1.013725298460422
Ni 1.5482448189817672 8.764361590168873 12.208682133651333 -0.526893342628841 -1.071899849918625 0.6160430023123197
Ni 0.9406988954368449 4.964070281220992 2.349580880703089 -0.28073104087132295 -0.15741656238067728 -0.3914034051179259
Ni 7.381374685250336 1.3156654531593417 6.748052538541502 1.5969206581151014 0.5998285973359864 -2.3938631364213867
Ni 0.5651584803738355 9.171354587493779 7.19098311967309 0.12308667875055576 1.1879915854085863 0.3390611440707838
Ni 4.131893566019971 5.006942438844746 12.711547378283573 -0.21538722535819033 -0.2997906286059353 0.9844805426626916
Ni 5.400415431512907 3.1534575147280406 3.0852260626554098 -1.8314564313772848 -1.1297262740087899 -1.8856380596260107
Ni 1.062555365979732 5.90332060473033 9.447278753959896 -1.4448697309217118 -0.6246109464869888 -0.8300415748530996
Ni 6.791963767951719 8.318145722191439 2.084850646663968 -0.31500564578347684 1.637270779797374 -2.2022748132550074
Ni -0.0005794287710032883 4.638968026387721 4.855726386760861 1.7476546662692805 -1.5367288191165536 0.3752206247104764
Ni 3.5082462083577464 0.24484672719057382 11.231994582961645 0.03805978298619897 0.05736773928619152 0.15434537965452128
Ni 5.773951988742864 0.8844311617706346 11.026762583701426 0.9017810094799308 -0.014359096935149463 -1.0193506150669993
Ni 2.3056807941538544 8.697476567131426 3.6007031687744555 0.23428303382142876 0.8037841838184674 -1.5285136302956128
Ni 3.4404233278544125 1.9865863985327483 1.2311654240546954 -0.34052898686556193 -0.12269381418751127 0.19643433840477137
Ni 1.5947848350117109 6.594642271416144 0.47920152219594553 2.0507633035048554 2.135564456411651 -1.0527554157796901
Ni 7.21817820046856 5.452981878189985 9.817228238525772 -0.33063306790808866 0.6296644497504963 -0.48658024483209106
Ni 8.957318799486956 1.4773483659912205 8.644821906138251 1.558324285899142 -0.23913753370025267 0.8015995174623227
Ni 2.187501467734642 2.843778836635738 5.313348830095676 0.3699994855208531 0.3417803427741598 0.025326651690246702
Ni 6.683153730473889 0.6497773666622773 13.200971546857684 0.30072059661937245 0.30395581572721847 0.21389187175958646
Ni 9.088024558792121 6.853732360655466 11.695745599835917 1.5538371966620659 0.39839963393010097 -0.9235880780526933
P 8.685219420052512 6.2570785837193075 1.5867963322602023 -1.0891586369990727 -0.5280359408737164 1.329825205749342
Ni 8.85133162012427 3.77930558743398 9.044657472426469 0.9847448520676717 2.0182401340661693 -3.427687519624529
P 7.87695342737286 2.8506502675739185 5.154121060966574 0.04912478255110895 -1.2406112684868311 -2.380696517132442
Ni 3.5550090816073063 7.623174768534401 5.656103233866083 -0.14836190837757676 -0.23584497899190995 -0.13452423116353607
P 6.563061546252967 4.179232153753541 11.411199644685881 -0.40032744708043316 -1.2658828985694264 -0.3254553803618911
P 1.8692892152745186 1.686787723843451 7.508323443261463 0.3801044351653389 0.7278116849468949 0.8809363048204376
P 4.01279495356984 4.268895041779307 1.4057833413418241 1.4516145058447127 0.583500549599924 -0.8002969966008153
Ni 8.358603593269343 7.596079044916009 0.10235182096768823 -0.5585896452908573 2.689018066027524 -0.17855128747676347
