# total energy = -340870.31199506833 ev
CRYSTAL
PRIMVEC
9.23310517614577 0.00000000000000 0.00000000000000

0.00000000000000 9.23310517614577 0.00000000000000

0.00000000000000 0.00000000000000 13.51358272186542

PRIMCOORD
 96 1
Ni 0.5701700925230027 3.0092628467889644 1.7703740377852595 1.067121197583059 -1.296338386845806 0.6693535408100021
Ni 3.24907428551077 4.27041267218501 4.722834822008616 -0.015107802175715914 0.41098569812522767 1.9749820947084822
Ni 6.469886036315213 1.7973624039880023 13.02691781179155 2.817350566558051 0.4081137758940714 0.4735691772844038
Ni 1.2897078194655234 0.6201322708316862 1.7173335422367557 0.4030710712638413 0.05704532294976627 0.7225792329033621
Ni 6.60741313675649 3.444363691447894 3.094002438761435 -0.6449671415458376 -0.15116261105116546 -0.7276772162515597
Ni 5.2287812820878825 2.067633856429565 4.3087245184804805 -1.3315797265466036 0.684341529578402 0.17188467408986527
Ni 8.731452032232431 6.701849335703344 7.286375060033403 -1.3142682318513494 0.25680358352144805 0.9865464240527849
Ni 9.20949604870421 3.9116326742697924 8.040446446665113 -0.45936331809766695 -0.16534430186818622 1.06121305962874
Ni 1.5696463329451538 5.518165262083218 7.3404561265265 1.9945739007974814 -0.338565692491604 0.9652412348171054
Ni 5.228310393727861 5.299636130613318 9.644981913845744 -1.2334713150079402 -2.9362057237257626 -0.37854069022264486
Ni 2.0724627703960494 4.9098328995673395 1.0357955826373784 -1.0184409587685364 0.09393294000473501 -0.9346602767064549
Ni 8.01226700990467 6.521148235821757 4.995133864329795 0.6693039185189893 0.012167488600469368 -1.7608647372016513
Ni 4.349743511190814 1.8373417490642516 12.930890748836234 -2.96295753789831 -0.4095479372374366 -0.9944823910704098
Ni 5.689282398872623 0.4543084731952167 10.944461128436947 1.087251649784347 0.45747998503202497 -0.05114978340093771
Ni 6.0073444033037156 0.8482398255307085 2.208591978725423 1.52688869309768 0.6919172850431309 -0.6039475046003664
Ni 2.6948571519768536 1.970178432115521 8.396326326268909 -0.7523145551842656 0.7465503990069788 -0.5999077873133539
Ni 6.384498280364831 2.8999982810540144 10.652338609469414 -0.22840369222251636 0.46167473983966295 0.37250553977215844
Ni 1.0317071636997888 1.6879870409918711 4.130196891539066 -0.5743731333773592 0.026327582150935305 0.6707637908939674
Ni 8.39561630048684 8.806775703625512 9.272290396478706 0.2755081019094868 -2.2021174617415364 0.33193276055611864
Ni 1.5283835862602215 0.7354251308854081 6.617614794579757 -0.7750562197561555 0.9901709081792495 -0.7118687884643934
Ni 1.9642138462219283 7.464826975513009 1.8910636477690201 -0.6499550816787322 0.09401135865115422 2.1256659663510167
Ni 0.44002855284996795 7.133386201794276 0.2603200117664631 0.8883464812415798 -0.19912371231147644 -2.262208770606478
Ni 7.608844948838492 5.0189405025156155 9.622184454047185 0.801623942942355 -0.2922966342217353 -0.17108428967575698
Ni 6.1691176377335 7.244543554074406 6.239396340500793 -0.6241679454122991 0.4509959199695781 1.104451558602401
P 0.29122044459941526 1.4208456111786798 8.409988551883073 -0.3644181347783337 0.8351418721941423 0.2612629048443823
P 5.556565746187633 -0.1212491361527262 0.19028783290529852 -0.2214097774031864 0.4431244876413014 -0.8623888808355535
P 6.87770305540825 3.8415995720981178 0.9167882444025536 1.1570229049412137 -2.580095594592492 -2.124871495474179
P 3.251308696944593 1.9442611061041974 5.908057130938142 0.7197029397968315 0.5756059773431957 -0.8401809772799466
P 3.410311999844844 6.819857651966518 5.7487722183323875 0.3300676823229219 -0.10979484673765608 0.6201927628146351
P 1.3973473587031477 4.855256015330455 3.1823540214484165 0.27542068440200307 -0.3396285865384796 0.17304655560845036
P 2.2435429747650617 9.156322596442289 3.6377076821407766 0.9619916175315562 -0.40493743504861873 -1.2218766681918054
P 8.4106570286922 3.807806407437824 11.393949920770778 -0.2282100881544715 0.003440907360748913 -0.30290217765172345
Ni 1.8991573876983137 0.9459593166505679 12.906336229137441 0.6465938785159833 0.1826622243213435 -0.7630818210030986
Ni 5.9052539602302545 5.38365738700913 1.6739951935256938 -2.3355266054640227 1.242006349062145 1.2997782657652905
Ni 7.47394928335027 8.53873866261777 12.57855084172718 0.19928749158285033 0.29571543009529716 -0.09415945419324429
Ni 4.43801199593191 6.023733164853449 7.494240878425113 -0.016071194530249744 -0.40228019993142977 -0.8996786184249472
Ni 4.569048223488983 9.237906313092113 3.7759789708529885 -2.107447643570777 -1.5209227053222323 0.7301922693639294
Ni 2.9728013147552206 2.0825545542686457 2.943420651021472 0.4569793912465226 0.016513681384307043 0.12993404068969236
Ni 8.492960927539702 3.86468233484422 4.204008180317023 0.9483729983068571 -0.7246075761873004 0.1369716642627641
Ni 3.660824607375743 8.742208599672114 11.425179975455745 0.3234568618746236 0.019102525157405813 -1.4047777479968322
Ni 5.697435230674547 7.00254386944427 13.045323083494782 -2.6548619889711054 0.9258272517958571 -0.12119614659606223
Ni 2.892353270032505 7.9593059190600135 13.376095380404388 -0.04876714210137408 -1.4933478810277572 -0.6466668978457637
Ni 4.469062928377967 3.414116039145402 7.113631050125652 -0.6683081302646232 2.4223964679743895 -2.772622627523057
Ni 5.002468643019997 1.9147798015248756 8.508881570660943 0.9905750855962037 -1.9733484157598018 2.5475330872754385
Ni 2.17349140638319 7.9424001036247684 7.525295504113209 -0.19664182642988715 -1.4124182952612256 -0.04477319045063256
Ni 7.156912153585104 4.998830799611211 6.559750001617318 -0.04977809986439169 -1.4050999072229413 1.6731644083701898
Ni 8.394729922397389 6.545440535335755 11.299976300389357 0.6381238933717591 0.29666082472770194 0.3819502301248261
Ni 3.8423197542957963 4.454345358851052 2.700500425813021 0.5284059226186255 0.7586314985412289 -1.982191210862412
Ni 5.779037413534567 7.744876286253821 1.9761993399502145 -1.6623009832931241 0.10343419462695089 -0.22712559684104108
Ni 1.4602709699490226 4.795111568719211 10.287538627030015 -0.20981590191799995 2.1740600413836884 -0.5672709751149391
Ni 8.794218680691632 2.2588514630182766 6.533073714366903 -0.42052191975043707 -0.6962048566748913 -0.5923346029517863
Ni 7.951374681780452 1.4284629228848935 4.440941660179645 -1.0546734587380093 0.0158711627043017 0.560504345815067
Ni 7.534278392063483 6.5115088740989835 0.6308989946869782 1.8554337681284885 0.34793299263911687 -1.2443172565835086
Ni 8.831261898346577 1.3752987037280708 0.22729873469239895 -0.663728738424057 -0.19062467370152975 -0.5451088371956031
Ni 4.496845341619175 4.343224938991315 0.12860607429516394 -0.9798008777988351 0.8206153964431931 -2.0805320501268554
Ni 3.6066539797631907 6.8172816156440526 3.5538563148787756 -0.7148137300253302 0.6703750400959809 0.4988914580992763
P 6.696272540223886 3.3869522439457884 8.40513747846435 -0.3308873500107398 1.4075635382720855 -0.45795898155097264
P 0.10019488659675137 4.677001688299954 5.852192228540025 -1.1368253469474163 1.9344049446170686 1.9509919024414721
P 5.928419820922243 0.08783545211197835 5.625312676819095 -0.7673997316521622 0.8858553393886098 -0.15013879777234143
P 3.712225303458764 9.063686852989632 9.017762311540494 -0.4666619086416092 0.10340334138901547 1.2158415177413189
P 8.100378531859091 1.4569747514288791 2.360863424698401 1.1312445104255293 0.19198761548732743 -0.7517638248871182
P 5.871414630044469 4.030241142364365 5.217283296308794 -1.2928378298917151 0.3514579750732399 -1.472229096771271
P 1.7329522628212783 5.689947182439711 12.323914729459318 -0.18296587160469135 -0.7093750755082622 0.9684283742958353
P 3.198836960670153 4.199299296716818 8.598638431943908 -1.0599365069091617 1.3642623043812891 0.9424034109869834
Ni 5.928050496718305 7.081376120774759 10.685662732390709 1.074737576477736 2.0637183210036265 0.33417270563023094
Ni 6.679717582782382 4.987243252712667 12.471456055690364 0.4939467124994913 -1.597042014184314 -0.9692945789508726
Ni 8.62693328251808 4.850297837892592 2.063037616711561 -0.6115780245624307 1.1236767253806001 -0.32776988742768065
Ni 8.54632827500869 1.2137378307155515 11.244516731305062 -0.27140410704344226 0.5051736915635623 -0.00046819788567016145
Ni 7.296452070937841 1.454250985424839 8.800963463966044 0.9231044535480553 0.4542360241734306 0.034865958639249635
Ni 1.2547420504577276 6.398560299429756 5.024944790761131 0.8387370457445684 -0.39962322192455696 -0.7085374100983153
Ni 6.340964189825683 2.184580365606418 6.324680685674071 1.2216941198673539 -0.3100981811795304 1.398818959310236
Ni 5.816948543068766 8.877095032055237 8.564976377376011 0.2360961757707676 -1.6058243883626344 -0.23422055601460953
Ni 6.896326228391805 8.609307284885157 3.866371069766725 0.7744003313397115 -1.2541962062601175 0.5756517429794666
Ni 5.742815942233384 6.074173618006232 3.925884895299746 0.8721145927637497 -0.8268572635878471 1.4837854341503027
Ni 1.169751318026579 2.607558143271095 10.281498329674614 -0.583942265123033 -1.5007030358412476 -0.9448297610402889
Ni 3.2948520205888405 6.754773494127607 9.382290840690002 -0.5295953149410362 0.7225902886469555 0.45184798355722827
Ni 1.6225150927388265 7.452750074044249 11.03269175744714 -0.5598451149645133 -0.9823462699285083 0.2163871273776144
Ni 1.5860627938101817 3.3085908809753204 6.088166388782919 1.1983726715325942 -1.0980351135530961 0.9054833980321824
Ni 1.5130566317968093 0.17633199454900508 9.604008163350393 0.8747697709984096 -0.5780960907549011 0.624005708802822
Ni 3.843233831700542 6.088134072915074 11.632031998907648 -0.6378014770353337 -0.22913131441716023 0.6346526469937069
Ni 3.5407388424654207 1.8632590750755753 10.688757669219704 -0.11322726945797273 0.7502165350046563 -0.0627750263446919
Ni 3.966929740704355 0.07819055052614696 6.823372695077494 1.0007502263569925 -0.13826364360131024 -0.7659673700810099
Ni 1.0000837787376284 3.235058431971337 12.529294072648016 -0.11167046649381412 0.8247597576288698 0.6450640721350182
Ni 4.802507285903062 2.6215370643901346 1.5691025030548558 0.5543295844629228 -0.2024743739512642 0.38885852720888514
Ni 3.7440887491534833 0.19782112335511645 1.3890070948677262 -0.03922063606351955 0.5900938865467257 0.38602028642914166
Ni 0.23058479679693408 8.266168167006699 3.8122761536159793 0.8885909931522179 0.4694425567105399 1.5237840860304275
Ni 7.703262681575148 -0.04754495139391169 6.829616120745059 0.8753616389461375 -0.08019990668935864 -0.17523610706060144
Ni 8.518204236878839 8.512147319934261 1.8475360204034401 -1.3367908384338976 0.2100233899431157 -1.7151469234495624
P 0.6984640878658392 6.9604316770902805 9.039329921739943 0.9513503357676261 0.0019530099613127652 1.3413807717974253
P 3.7332213844526185 6.3283887006816055 1.31466120930457 1.4079306918035173 0.19942273160913396 -0.27734412667696107
P 7.546826181892264 6.679385190998837 2.709027198371431 0.7871576310053798 0.404436069932168 1.9453601580769913
P 0.4021903648460472 8.761607353483939 12.204197365442422 -0.8286094703922632 0.5347418921389824 0.3925508884588078
P 6.636460485396185 6.736658141924467 8.541814209926063 -0.5529275619090736 0.7749500331955944 -0.9896271198606377
P 0.3588464762719262 8.224332967805662 6.059166128979226 -0.06963858623374458 0.35423476648742863 -1.0733640931689774
P 2.642136121864756 2.707054083811894 0.7354749896529397 0.0792596542632764 -0.3623656231246791 0.02967721534945857
P 4.288980446537974 3.976698365898506 11.291760683472765 0.9188644473247788 -1.0955987361974615 0.5769784322106902
