# total energy = -340859.17665229255 ev
CRYSTAL
PRIMVEC
9.40211538409692 0.00000000000000 0.00000000000000

0.00000000000000 9.40211538409692 0.00000000000000

0.00000000000000 0.00000000000000 13.76094624501264

PRIMCOORD
 96 1
Ni 3.975618640971925 4.058178615445605 9.930793425617034 0.2526355681866875 1.5385581590158084 -0.09710439575418116
Ni 0.7582796589573947 8.70526812499592 13.009406076762158 -1.2288893520642126 0.3964597365949108 0.8418151704492599
Ni 5.844843782201618 7.591352514499474 1.5296113343781037 -1.049921545875321 0.8286359527548244 -1.7674225929248273
Ni 4.893678787596234 1.975816922417271 10.074113630023378 0.20298679481130846 0.3564402587791797 0.03360971763464534
Ni 7.588813943367724 8.389958786202007 12.987966433237238 -0.38515408177410443 -0.11566158993107821 1.1463625970138902
Ni 1.9200435744412008 1.167564080414089 3.4090405913459008 0.546968001891529 0.07192429694412775 1.4838713089958897
Ni 4.620284078822098 9.253279817533551 10.986340704313843 0.10532164145765088 -0.5891549196722241 -0.894749042333814
Ni 1.5643427483065602 0.6079313733622258 11.384775084711134 1.1375447416119442 1.5815115226488827 -0.9868457004607585
Ni 6.388784358813147 6.983571574982093 5.73235593450767 -1.0619082859235518 1.421352621636378 0.4065392323180999
Ni 0.013587937035572602 1.2926404202869246 8.045653323814332 0.6856034270099611 -0.18984871476745369 1.0378232199498902
Ni 3.7511055296569245 9.356007329331687 1.944449585344148 0.8836241360652458 -0.06066415064927617 1.1557936605198031
Ni 4.615338566172838 8.106108925211183 12.921583738353513 0.025533368384414095 0.5089825237866912 2.2648852889973767
Ni 6.622069643705638 3.246653837317057 8.84614189900048 0.6568119566995656 0.23858706051342132 1.112307307201394
Ni 6.821968017157968 0.8602079909547947 9.118511777206614 0.34592033308446235 0.7152266491930328 0.34287948937560947
Ni 7.503198281420641 2.637528395311379 1.0546371539355008 -2.5426042825152533 -1.3108468648746263 1.6136084031834275
Ni 4.660120841359962 6.4472091033046 7.304667915744864 1.121444750726288 -0.20245766178071584 1.6772645465814922
Ni 0.3431396000901312 5.342629793303812 9.503997564408918 0.4326834948136355 0.10208076592285001 -0.5277418066720654
Ni 8.761840652772726 0.5077029438115678 11.472844698752242 -1.7853007587568288 0.2897923797426429 -2.3299120874907233
Ni 6.554459032563373 6.6408362658499795 11.593872487775702 0.15443588248579854 0.17126143868356955 -0.574308855798327
Ni 2.843857815630809 6.934831009252498 6.267078677276357 -1.1606787565262462 0.6559994881005992 -0.7876422839512822
Ni 5.880741058427619 5.554290212999916 3.538145737625976 0.0905128585795925 1.5118868203722091 -1.0211431881910478
Ni 8.76937174713025 0.8199631766127902 3.466919072938263 1.2606201075085903 0.13976696761971413 -0.05202781513051685
Ni 1.0691051289634135 7.520723824345016 8.41641445824096 0.4446383531826665 0.4697181789694298 1.1524172878484022
Ni 6.181552335424651 1.2398193365159265 6.200668716258256 -0.03622324399809246 0.7802544761276433 -0.15169945739124194
P 5.414894451520952 5.722588076919616 9.374231449423059 -0.10613076762250753 -0.14492948565726008 0.11065359519352556
P 7.769673033331932 0.038888089103813896 1.210242162196452 0.6967882399821871 -0.3660361299977309 0.22381581574151777
P 2.4782471599670415 3.875627144726897 6.776935645703791 1.767418222049453 4.195154357069201 0.6434339927307628
P 6.482532850497132 3.6927183936266825 5.413322417842328 0.8686510596951814 -0.8553707976465076 0.28381122245854346
P 7.409713048965133 4.646252721288367 2.0102540501367505 0.21824886317670153 1.784208297023598 -0.673270359365905
P 4.948784585385807 8.758709748376901 6.120318238880728 0.49546957690192095 -1.1708029894444416 -0.5117989101895637
P 4.982622798360499 1.35547475685538 8.040217960957797 0.1333191551118414 -1.127047441625046 -0.0361867343332022
P 8.588794720625124 6.248279147728455 13.00884194984399 -0.5947321566496854 0.31125672026400586 0.17061197802502875
Ni 1.6571322242296613 2.383191774255971 13.167064507005236 -0.0682825864264824 0.7269912459281286 0.5564178344505192
Ni 5.743197513663302 8.423608956870645 8.307868917493465 -0.7606914663940513 -0.7614350294282951 -0.5669809546783461
Ni 2.325237135529657 4.359290760132326 0.953505181104246 1.0365993748451179 0.4605935909603423 -0.8300829696139963
Ni 2.1133604671815887 7.832093676827066 11.104808297340359 -0.7135379486367002 -1.4650608611576057 0.6499103444837259
Ni 7.8926997120687625 6.962144154207064 1.7647996074078762 1.7179550823223186 -0.6977295208495339 -0.36384863542810886
Ni 4.1453080179564346 6.505746673179687 11.393829321747708 0.014168063970265921 -1.8033763853116167 -0.3323148264858858
Ni 8.808851229286608 1.5221742611736075 13.49233256632785 -0.3299231863252576 -3.2678669757880496 2.2315689342334344
Ni 7.698499020489915 9.058956898455765 6.893298105114014 0.748070435195931 -1.0414628735850064 -1.3634714330488775
Ni 2.912972765221519 3.41218747933774 3.6429765026173437 -0.4854736420314736 1.3836736190283654 -0.35901213327141396
Ni 9.248682183150493 4.028223476090959 0.851908743777034 1.2471305576625877 0.6658257301624017 -0.004172386210134749
Ni 1.167140985225464 5.555446673182157 4.973508387785988 0.22113929735061913 -0.6607711984576298 0.04227253551596591
Ni 2.0147040713095548 2.168278222665106 6.077108937583757 -0.8000967076645511 -3.3238846288042496 -2.1333018856297197
Ni 5.61759465533351 8.40453206492131 3.5986803167913726 -0.7507713790668619 -1.246689356360111 1.8055836773755805
Ni 1.2407313417002956 0.790596609676098 1.1806245587811757 -0.9537486607964737 0.6144576601030708 0.6167492843507248
Ni 5.653971439439952 4.265429443064708 11.57795094572198 0.9903943370439652 0.055776226429355556 -0.7830294677696192
Ni 6.926669973169688 4.523968809660456 13.601304963110088 -0.00181725571439687 0.9349829501531962 -0.378984976848915
Ni 2.1540810285579135 7.173212240639093 13.641969111794598 2.713214717878385 -0.806352715876592 -0.15653750220983365
Ni 4.565441540261003 3.3008100214610496 7.519297523453585 -0.29761778932433264 1.2997903499501486 -0.4983443273465546
Ni 3.4818101431548 1.8197324062758782 11.837922254478341 1.2340467278954361 -1.294648657848209 1.1082393077796076
Ni 1.9308183985781824 3.2517685880417675 10.833057078321149 -1.815373409772493 0.6943557192812945 0.5327932530530437
Ni 8.945078477908536 7.559018639973225 11.073887560744117 0.404369992580923 -1.624944397021537 0.4284146922349525
Ni 5.873115942917067 0.8363247376626818 0.32686829934714623 -0.40279082101926117 -0.2413111443128038 -0.417410627814965
Ni 0.5248119730280302 7.7348099897892375 6.197145743654305 -1.6432169700784796 -0.09021538194383173 -0.03908205360312624
Ni 3.6487635045862024 7.586585642040966 9.367020967197359 0.9635561338051988 -1.3616940294334805 -1.6379374668470954
P 1.403265708939393 2.951709480268958 2.158693706325456 -1.349592103963624 -1.0094991761942163 0.31728184341216326
P 8.437984791168589 2.132559586629858 9.786702247755864 -0.12747298074370952 0.8985627596529492 0.10669795297988721
P 9.163057119088108 1.0918394437655268 6.003336180072052 -0.4886430408983907 0.6558066553635028 -1.911438565628882
P 0.015407246346659857 6.521410597274112 3.318507623095466 -0.32575311410796803 0.8155225553013181 1.1805667536994249
P 6.803662098663463 8.839755982286835 10.817631027743884 0.32451332816359596 -0.7893965476382275 0.5215433911708374
P 2.1075875683856835 5.608737862718295 10.90739396275102 0.8742149269362041 -0.33107221232803624 -1.7286984368817517
P 4.209336423168343 6.097995736728875 0.34657607323329603 0.21634727527861447 -0.357444531673978 -1.7211324516090356
P 4.575812073439965 1.9287969437880856 2.968539266660928 -0.02697010083094065 -0.28725341537087307 -0.14977832910912917
Ni 3.566711244338872 2.160794138884096 1.0017634183188069 0.25269958865540354 0.25764047760044656 -0.403362377252015
Ni 1.4755303671565332 8.376786422662818 2.743024830066182 -1.2913080235107504 -1.2216874349991347 0.07422594849411088
Ni 2.3859653982702906 2.8703717807846387 8.604815925101056 -0.4060792619625458 -1.5104845407080438 -0.12000006940543205
Ni 6.4998609490001495 3.257033772611322 3.2115980504106547 -0.6383450082436297 -1.5414079697597778 1.6718570024126758
Ni 6.949178637204535 2.162759180982376 11.740990206552837 -0.21409061803395388 0.08026932647471337 -0.13811554805922022
Ni 1.0991354852404815 6.174782812406652 1.5626926770709229 -1.1142430907715262 0.23127252912987914 0.2760025250474021
Ni 4.714154798005019 4.814748029629425 5.396864015004818 -1.6119760097863272 1.6375464020562638 1.337345168275471
Ni 8.17703848305533 3.194913996805878 6.79068247848798 0.4268830860817745 -0.7181811038356664 -0.5147772760915973
Ni 8.343784997950072 8.543194461406658 9.034515159514669 0.7112008158630913 0.27388419315281864 0.32006454836362297
Ni 7.8899542944003525 8.12065399758458 4.162135923925344 1.090085519688716 -0.5521503174234169 -0.07868912647178707
Ni 3.707893407725364 6.9583080911635316 2.163386302073071 -0.9368493139379735 -1.689871436712225 -1.022762983182658
Ni 7.555568063657105 6.410089552089239 9.135851158247993 -0.826445372861409 -0.9120746780964551 0.4677343157701815
Ni 2.47377175308292 5.547172811715714 8.532405534096721 0.5620428939467804 -0.5655012848090261 -0.7814461824428993
Ni 1.1055007173004612 5.146172594052296 12.671946294526434 -0.7954653795401267 -0.3420425952966109 0.7205411194274106
Ni 6.620424273527653 0.8127997049636048 2.821806094399677 -1.2252895505280963 1.002890669738763 0.022757091190857583
Ni 2.216877756665158 0.14964500737052108 7.245055684090669 0.07047573742305926 -0.9088767399844476 0.929061956683071
Ni 3.5453590404862663 3.9855848831928675 12.47695394483909 -0.26952874439760033 1.5689195449164852 1.175354613370866
Ni 7.9017821554512455 5.559978492758097 4.840564357827788 1.4622555304983267 -1.0875408988899915 0.08171171534819476
Ni 8.361395159912172 4.8898521266680035 11.228368076014856 -0.7960960711455902 -1.115138606002602 1.0946983358703792
Ni 3.337102186529767 7.9532869430798545 4.016132355811589 1.6271257209435719 0.38881764666862073 2.2744963297245797
Ni 4.561069556645212 4.341708804516133 1.7839282109913752 0.5505485201539357 0.028084931161674216 -0.47279501812254054
Ni 4.4441072422786725 2.5478322153228903 5.104237279378853 0.7324864647147449 -1.3435577248440862 0.10576104298791464
Ni 0.3277906468583486 2.8681716858037887 4.466073404260549 -0.09977525771812494 0.06088603685209515 -0.08023178836855858
Ni 6.551563181050118 4.940144041422555 7.24542706764513 0.08300857978274735 1.053582539666676 -0.4706293779297894
P 3.3259324735500684 5.663787247816051 3.917411085343966 -0.06284136080625306 -0.013080744443358118 0.061602603303145514
P 5.3083966914864025 2.8680682625354583 13.389621038125728 0.36089495211642364 0.47028382166491267 -0.2664344217429927
P 2.5602053990613447 -0.09598149406839393 9.585118075029744 -0.771639994985755 1.429184716086287 -0.8788992197857508
P 2.8580079991614875 0.04659406280596952 0.05618986168398322 0.48603517096189836 -0.17967408822729702 -2.112230409671401
P 1.8617034489874724 8.806679340651668 5.099008763058979 -0.03317880074481382 2.1532631592429947 -0.36618679664298226
P 8.23941211597395 6.654102650542198 7.0661494134748475 -0.9328764453331547 0.2641847064768676 0.0954627463857001
P 9.2554799125144 2.8732770344131966 12.201555645293935 0.08425993569134523 3.6355411556098356 -3.148370071271281
P 0.36384305798684513 4.744824498122676 7.045769388344549 -0.41355782972777805 0.48455087310688805 0.1341205679672142
