# total energy = -340863.7917378267 ev
CRYSTAL
PRIMVEC
9.31995090496920 0.00000000000000 0.00000000000000

0.00000000000000 9.31995090496920 0.00000000000000

0.00000000000000 0.00000000000000 13.64069022449929

PRIMCOORD
 96 1
Ni 3.65669210107464 1.8810270736552026 9.232305264640395 0.7027094905626284 -0.43443415895615506 0.2349407220100857
Ni 6.107270701267999 3.3507460690727404 8.954062787033525 0.2884492354511871 1.232413306057071 -0.675487678732198
Ni 7.523903255698458 7.576122941241049 13.080167268959915 0.39136792389430014 -0.6070929922078835 -2.360875368641457
Ni 7.661027694996718 4.541761249308117 12.958573596034704 -0.3788913886938442 -0.022310490571742222 0.2580922204258846
Ni 1.5717631390916107 3.092835064607253 9.107302353633532 0.3171275772224861 -2.0397551253198096 0.033880969018161004
Ni 2.5994741376248136 1.0194814817860833 13.671245086359704 0.7654850311279527 0.13481425160012914 -0.2871526281269506
Ni 0.8644692605028351 4.216699997772422 3.638858374805543 1.1547449075403147 -1.0760979471603727 -0.24663281363603334
Ni 8.781751804669499 2.343380523607444 11.599634334378527 0.9451920294757142 0.18710200526025195 -0.5608625004854341
Ni 6.134196039753193 9.05905762719926 6.850559162675629 0.674362049768187 0.1744886873716156 -0.9709843079484696
Ni 6.682237119346445 5.880190094763405 7.79433095437842 -1.0090446051553008 -0.1105792903121644 0.3218298677941619
Ni 4.875601894700875 3.676208078502122 2.852609599189708 -0.5198932571619239 1.158280945718031 -0.7603374254887421
Ni 6.17252899828196 2.494205290899208 4.424248782932806 1.3528337508293735 0.8001998089013186 0.18807156826237287
Ni 0.9417251304596799 8.547159317646017 5.001004631606323 -1.402883616297913 -1.219284481984597 -0.4533844748064127
Ni 3.561880239388975 5.567142260087322 11.768042121257057 -2.0904092000312513 1.5025516590142123 0.34023588110517533
Ni 6.557992852352285 5.15355079385074 4.203488035212155 -0.5896894520194554 -1.1096256466041727 0.5623447414579154
Ni 5.361963538470305 4.230102087333416 12.194790562342911 2.5583335203250517 -1.2196315809113705 4.3257977651210915
Ni 4.855974077861199 6.259288422289809 2.5911448974018234 -0.5066564467566758 -0.6168570135731828 -0.04266411452742975
Ni 3.0996572687509576 5.521017822509188 4.2851960457693385 1.3918042185553 -1.8616874623476842 -3.6779520164758783
Ni 0.2000229247149713 4.418038899570852 10.451060347079764 -1.4921572031537658 0.6253635083822973 0.9166134465070731
Ni 7.95504418969815 1.7183659685731314 2.451532031182295 -1.1143024832545518 0.6216194679588327 0.13847653094306472
Ni 6.679683452768065 7.35821316653619 3.5950173252263267 -0.5135642296201026 1.9512631538249878 1.709221559104063
Ni 6.350521422785334 2.0058491776123546 11.712087931342356 -0.7777067700051252 0.9468318790719823 1.0188101691824971
Ni 7.459353274961712 6.785679255672917 5.70716893213196 0.46093554768079326 1.1945828654728587 1.0567030875735284
Ni 2.779330552331386 9.197076781795055 6.058921591382348 0.10543117045232164 -1.5360695882659996 1.708440457963664
P 5.945094233638759 0.4401943344166237 4.593297782441236 -0.7812183827028094 -1.2498127324804411 0.3667218432108459
P 3.506547690207043 9.448193541969886 8.0133600552003 0.10736464002960865 -0.605204516935919 1.0560335723103296
P 2.8723809432750285 3.1500222840413663 4.380148638715345 -0.8520311917503133 1.559224172005592 -1.707786112209117
P 4.086472322225996 1.678252899400311 12.063526508243507 3.349378916420612 0.8902570680007313 1.136890395857397
P 9.062999966479024 6.199500936522235 1.2542081761041945 -0.9477183954419937 1.9394952146557825 -0.4488865869360592
P 0.7702426917409744 2.486954369008768 13.293112305758559 2.2888248305321093 0.43134163607376036 0.8251122558722821
P 8.613834247214408 2.844206731353691 4.245242347758891 -0.017005790529377167 1.632304951151666 -0.7030648170195183
P 7.201050832553554 3.9793115254441447 10.68514862475328 0.5135508598836639 0.587241504699595 1.2576006039559762
Ni 1.5914561955883972 4.318119704728424 6.360627045671972 1.7153490121580395 -0.17160930894129153 -0.26672161396610844
Ni 0.8361981210909315 0.811723929722942 7.370378498597361 -0.8616391471537226 0.03560103703306127 0.5851954208038438
Ni 4.473492608115992 3.849186369358894 5.615681496973699 0.3078266115365344 0.8855023269245653 0.3634765968006708
Ni 2.8866777481335566 2.285568867455259 7.070651669908433 0.05729549128735938 -0.6554994085357292 -0.05604182138591638
Ni 1.689269081501211 5.8874503366048625 8.23780404756247 0.1208369634844306 -1.2136072290941615 0.9626346504321937
Ni 3.635228253884815 4.249506225348707 8.178493743286912 0.6248978815997882 0.7489489811461424 0.21166735330444192
Ni 2.4593859539034697 3.324659526178985 11.782077967487139 -0.7810049811404226 -0.6034646514266768 1.2257366653678436
Ni 3.425958073771778 8.607850838662143 3.7986181791363363 0.20669663956272788 -0.6586829484700334 0.6484952093037541
Ni 5.5619137675673525 6.259884899154832 13.092621519502584 -0.5357227679950128 1.2528754305661647 0.5226782761062289
Ni 0.0004249897663291378 8.169477622674044 10.730953388011566 0.21089756501795295 0.20688818674824372 -0.34373798072116285
Ni 8.813365078515735 6.248700957935645 3.481049236222396 0.32407984017060315 -0.29498215147369844 0.4248475437089845
Ni 3.956328526238714 8.077666785215529 12.55183602177528 -1.0547688466652934 -0.23373667439965554 -0.7566064976914002
Ni 3.942441799224889 8.08842200868798 1.2956381543555742 -1.9216543298196191 -0.47441301334193775 -1.2027425184655158
Ni 0.7263037826760902 1.0420823629998588 3.306476301746788 1.0862311789396326 -0.14657910544554112 0.39200350059577005
Ni 8.316807408334812 2.3400067013396555 9.398026109641014 0.9875558391539058 -0.1414790652148144 -0.5731148354902259
Ni 1.3421009061555884 1.9059765825250072 5.362509687599842 -0.9648535124603834 0.9297258155193149 -0.4517636513735381
Ni 5.3677978278063145 5.668030729835412 10.339534085242024 0.34277921635231934 1.7752158637170008 -1.8503694662317038
Ni 7.610066202841285 2.1643629044923105 6.936863773073899 2.6120371804960953 0.15242759380651813 -0.8753919779634408
Ni 4.561444985853887 3.604873173425736 10.50043931155268 -4.057249896579522 -2.460433111032137 -2.8865350959735125
Ni 5.467334904657086 0.19889893862244293 13.517515290336256 1.1135977438780433 0.1628423613819389 -0.18268073626410475
Ni 2.4359276371962233 1.0334241285060042 11.16310460470139 -1.7961850097695002 -2.0052401222620757 -0.7530426915995418
Ni 3.4582983037972634 8.033723216175135 10.211312063154237 -0.332433354341621 -0.4924729561674422 -0.8156292560825116
Ni 8.102541734477205 2.3033326940917354 0.14573421004683032 -1.8280988277589614 0.21402042691765075 1.1716108300577177
Ni 2.628477825186574 4.7928500496299 1.769238921193912 2.2298144134361726 0.9467578313009372 0.3464057573613131
P 3.2007134976173357 6.352618411763932 0.21566459850510708 -0.0927008673698468 -0.5698703604109991 0.8311790308916523
P 8.489412901150944 6.796173520516922 8.649602355223575 1.7695846335731524 0.8916416070530838 -1.169811829175766
P 8.407201613238898 8.888064485908894 6.370311406772688 0.12225107022313784 -1.1834260775250909 0.7181371379716083
P 4.246868679211182 6.422052046833056 8.434188463400798 -1.048190422116827 -0.48751406950027004 -0.5707190815645397
P 2.261253115254541 4.746418053668239 10.207846905366493 1.4431679177392565 1.4617940174808761 -0.6891788030660453
P 5.9009549456270305 7.735009466161645 11.215375549974567 -0.7619176254916685 -0.06697440913802014 0.7253812211285314
P 6.708994698713352 4.169224167296971 6.331872200802339 -1.1824058637906925 0.2640756917028291 0.10870932698296118
P 4.755318606888508 6.993598042888635 4.8618698788739145 0.7091444475546949 -0.39387680635908295 -1.029407227972053
Ni 0.40825486228482644 0.6783666146253463 1.0111718134602268 0.0055870071694742495 0.059095263500259516 -0.2969701284380047
Ni 1.955968799774777 7.111728422016307 2.5252463197530632 -0.8571044925081626 -0.17305169781477295 -0.19518015428269608
Ni 6.986962237765249 9.494886496559994 10.607833107109933 -0.5129273673670521 -0.8219515987561135 0.614098219881123
Ni 3.1935744151390875 6.3541748435836025 6.2484316113512826 0.038288611167553416 1.2004102707879132 3.209988101193394
Ni 5.42330745605755 2.1464872384436418 7.114465691629702 -2.9696920284086663 -0.0631141548516655 -0.7451704879403167
Ni 8.137920268533902 9.191279772263108 8.726849837224506 2.171459370536047 -1.5401761542352057 -2.030944211896399
Ni 5.544056741420715 2.3864946170074126 0.6948060762224508 0.35776514823819033 0.4890618736033641 -0.07565856717557938
Ni 0.5646855801127083 4.340235948489369 1.285247340967847 -0.6096890350698339 -2.140514601328075 -2.0540422313664433
Ni 4.0582981103046585 1.5464967518872623 2.3321350707115505 0.07717783203358322 0.4844925090651269 0.45803560042517893
Ni 7.617158685564453 6.302178836865394 10.431785756383595 -0.11196820023989106 -0.4381648296431809 1.3166549869159712
Ni 5.709681590925871 7.856951705254856 8.863420671432413 0.49118329082174117 0.7685587849572699 1.1259125566896546
Ni 8.241343764958343 0.8965569198557866 4.704578929567257 -1.576513298103343 -1.673573727993466 0.8811044549671858
Ni 8.383603497266412 0.1865061997564812 12.594244594883339 0.4208664475740494 1.411757007528143 0.4148719205535113
Ni 8.832899695845251 8.446466566869264 2.789739073626043 -0.8514400951335336 0.15348534564707114 -0.8949110218329749
Ni 6.874442469149204 7.140061073104916 1.4204183185331545 0.3864789712331151 -0.3412859196362445 0.7093115692601784
Ni 0.8984134540981719 7.807546644919094 0.008633070626111412 -0.01752746736080207 0.46057739301042616 1.738461686916103
Ni 7.810072351644427 4.198022815936379 2.2934777778874276 -1.256134818043727 -0.13031970616388525 -0.045965410986520835
Ni 1.4525516456460843 8.109848576073741 8.48738767579517 -0.02402824459379733 1.1777279986990492 0.30287209574473645
Ni -0.07151944010650302 6.117764966112003 12.186906815778485 0.542531049166098 -0.17171215306774298 0.4690620334426696
Ni 8.610618864113892 4.53929146228888 8.210399663595052 -0.5853440305665661 1.3179726772861302 0.23716421202396576
Ni 5.3245812149451694 9.1482588783733 2.4986742074113746 4.12205146643594 -0.15292355960633017 0.8668991100010811
Ni 2.038692684992703 2.46649707652867 2.053251380474781 -0.7851082046755189 1.6195576787883268 -0.27830880458307555
Ni 8.716726506430938 4.638940378551843 5.588959333420652 -0.835611098521077 -0.19153304444841207 -0.07538423046827016
Ni 3.804916602032942 1.4300532838934847 4.961528115087894 2.640505463139117 -0.15403761860611537 -0.9115563436991398
P 6.59000688409221 1.2705889220098985 8.69640435324057 -1.9449840056844951 -1.126977250508743 0.09051542968275379
P 5.629940090033061 4.512384763705717 0.7348809335961056 0.6339535640441534 0.21289145551953012 1.6643334403421206
P 2.3463349480795124 9.544375436454901 2.1428021298119195 -0.4830858585255874 -1.1268458671372013 -0.8177619861547981
P 1.2165611659702051 5.954759022842341 4.923934228674696 -1.7137402729100224 2.321019155876467 0.830814448463382
P 0.8122738068328855 0.831348950577312 9.781002468785172 -1.368190950011734 -0.44866392940229183 -0.9579310743089373
P 0.3247182773383061 2.9737540504759505 7.449767705341767 0.49510602291491507 -1.2674044774202753 -2.1477638266913206
P 1.7026618511111884 7.311333812925762 11.823955303387283 1.6422713183357587 -0.03183874177715161 -1.6836722498800485
P 7.473584840163129 0.13529400091871846 1.1353965085572542 -0.6620773188635629 -1.2179073991314122 -1.0432888710501516
