# total energy = -381171.20412287285 ev
CRYSTAL
PRIMVEC
9.27477039288243 0.00000000000000 0.00000000000000

0.00000000000000 9.27477039288243 0.00000000000000

0.00000000000000 0.00000000000000 13.57456397813815

PRIMCOORD
 96 1
Ni 3.3761555453788232 4.133857912807976 2.5240137558784226 0.6338350361884181 0.934070979861888 -0.5571889082885888
Ni 6.37952096949628 8.501894503322282 6.21272535366456 0.18661838075561407 0.45656878607166534 1.0267731327833156
Ni 1.9655278916741645 6.134824702161885 10.006476508606525 0.03351227282483261 0.4584171521343137 0.38514431158209156
Ni 1.0407312608065689 6.579438645363045 7.754524230113292 0.618280890503903 -1.7572999026685283 0.33656768822496874
Ni 2.300031760744485 8.091003625277772 1.535310247080307 -0.6166387269147896 1.0159876121320375 -0.008586199007114244
Ni 2.011131937706959 4.064334233926172 5.921089473360474 -3.3711600168514457 -0.2823721760191718 -0.6604438970251981
Ni 6.6926372180354585 7.318396701823665 2.5337735967652053 1.3119454972554438 1.3090895158638876 0.15488762531123648
Ni 7.826134732333997 1.6573365462147935 12.91546465161438 -0.5295462068706558 0.5443061387886496 0.31231164389108146
Ni -0.02401794541519718 3.030234433952113 7.273916757962758 0.7799554568299859 0.6184256436118833 -0.609241406009454
Ni 8.634319675023775 7.057979698669546 6.160937818209341 0.12044204203885707 0.8954571241444321 -0.5524413663012744
Ni 2.9037636648442864 1.203355084914565 0.24030280859822686 -0.07601877872847553 -0.08004872582347505 0.5658936351514383
Ni 8.304694335181287 5.688763894779088 1.5515179083457755 1.1999289602761205 -0.626938823289217 -1.09476004234625
Ni 6.507178909214682 6.192745643279397 9.5351271122644 -0.8120587651224336 -1.8076351605879708 -1.4563535631915951
Ni 9.255682917644695 0.3718654266529735 5.597362887489282 -0.2902415514649195 0.55344846740955 -0.8905380895762598
Ni 7.563065144846873 5.252135528888124 7.3590424556032294 0.4123524965657673 -0.7288882058405254 0.974041863827871
Ni 0.6926917918216136 9.211637033038281 0.19732815997244832 0.2662012226862641 0.36886922857115184 -0.03581161038197058
Ni 2.206532800391302 0.5034289721847597 10.528119274893216 -0.12038676332088945 0.25027118171956897 0.6006325812945205
Ni 5.045669865122407 2.411542325204987 13.497229262033345 1.3014682518732037 -0.4057105657692174 -0.7320331792274103
Ni 5.299724375785474 7.1918610093230715 13.102725975799968 -0.024596458392441508 1.0554856702266597 0.04717022992789941
Ni 0.2834508954303941 9.184174437898337 8.668825530801772 0.02378861777916548 0.2604044134988289 -0.043167793636725654
Ni 5.3820843368941205 3.700911630763875 8.686865886697316 0.5329765727084433 0.7782837255545176 -0.5905970514353893
Ni 7.943970690203969 8.276832924914352 13.080327405295758 -1.2069092482486956 -0.3365787439685623 -0.930875612853042
Ni 4.9618908641433075 4.856121382557384 0.04494460985770158 -0.2723700705011374 0.4739622989577644 -0.5490138286769641
Ni 7.89605722634279 2.4010432851177135 5.433748517903086 -1.4013144720385802 -0.1705199325318547 1.3845578214055314
P 3.1065101456815625 2.385044306186135 11.470126169705992 -0.056837063593702115 0.016798045393945263 1.1876655695277352
Ni 9.07928605949995 0.32811262479104464 11.316068523534929 -0.31934309681656614 -0.2491131568557258 -0.9104368853827159
P 2.130609529936867 1.7277135039729479 5.351812413801496 0.3875722042972938 -1.184801617716379 0.010923588891039252
Ni 4.482505806730851 7.989120272487402 2.317761411831792 -0.9564894567664043 -1.5959397822590708 0.25093118390107105
P 3.706893857668726 6.379177802991661 1.0510689198889671 -0.19951966219831446 -0.12470467396995297 -0.5677594847155835
P 4.913791904874226 5.480591673260668 3.847058825264944 -0.47960355640394176 -0.7068877903100342 -0.33500342906164243
P 1.0375407397906482 7.875244641576145 11.400827867744791 0.7092179811051077 -1.1107268500881515 0.01643757673073298
Ni 3.08430634535565 8.291032598389279 12.277636836588048 -0.17588196817471644 0.6730441022877118 0.31398157539433663
Ni 1.5950379134707868 5.858315972372237 1.2230055409507015 -0.02821837141574495 -1.0191595821021158 -0.04467471719955532
Ni 9.002166343664545 7.009704518762957 9.60085462762348 -0.47727233716760387 0.7248790846811323 1.4833182647058971
Ni 0.2659623883733599 9.1863354594004 3.0632359219720215 -0.6374484645712892 -2.5422584691400605 0.5943904570395505
Ni 7.610960059167263 2.872266544582466 8.883275844400647 -0.07666206873942925 0.020566511297442 0.34270336880906144
Ni 1.5196618544696643 8.501124697379488 6.698246599170425 0.5234030700873954 0.7165278845029596 0.2946656486745441
Ni 9.142716214232161 4.729409469419283 9.51686879926457 1.8423491670303882 -1.4425369690234768 -3.3455762548450703
Ni 7.791586212612183 0.9924468061295854 7.357576114403761 -0.09292326779329803 -0.22453161086161977 0.2628294780005538
Ni 3.4175859447338146 6.898240328154431 6.132485605068237 -0.669307518063415 0.1729030880520506 0.6807939214364598
Ni 8.958018436583783 2.9867635851101957 11.08534191536966 -2.439894624759153 0.056434685948960873 0.8866426111765956
Ni 2.8937932866695344 5.974343350015162 12.35962673435793 -0.4576591909223667 -0.34647903380140976 1.1471033318346566
Ni 6.221877697090462 5.106475259832799 1.8988367276710303 -1.9039767100341984 -1.013267384987397 1.3686434641681204
Ni 6.82812306396734 7.782459838543386 11.028967078477015 -0.21020542404693474 0.931019594630074 1.5947421624065439
Ni 6.934968418919098 1.1827372703262182 10.577503717339061 -0.1427525326105993 -2.2032068381509733 0.08461269104507363
Ni 4.7093017672026685 0.5306374386158774 3.7927735941423193 -0.577365897457096 -0.8505389234755029 -1.2045199220809126
Ni 3.5050655791005667 2.2381875917498393 6.9478965213728525 0.20747079872459107 1.2473380456877035 0.11754440877608789
Ni 0.5380730220416434 2.4037793423842735 4.245145882778995 -0.1676878623996983 -0.0018334536643129715 -0.4077407088253687
Ni 2.676884231438913 6.420227936760452 3.3073339666159303 0.786452120297923 -1.1397764591559405 0.5861310452442358
Ni 8.039779068385535 5.274190932887716 11.17227341080606 -0.540100071127102 1.094161489530303 2.5100505169489478
Ni 6.452745281765735 3.2355129271072567 11.000310820387218 -0.7962292542893448 2.147820390960869 0.4414707540879622
Ni 5.077482327577661 0.29866708374062445 1.0709382605064282 0.22718653198596353 0.9888904988049292 -0.8316480001082709
Ni -0.08025922561415229 1.7761741792874386 1.9957052121087595 1.5213950169729604 2.751327979810339 -2.1695035323612575
Ni 4.000514538837367 4.577201212465004 6.188195440923552 3.461205963096949 -0.5483255443606879 -0.7877554124903787
Ni 2.360030250430502 8.262707449602589 4.542931863332083 -0.21149817471642932 1.6842600040627187 -0.7760491797970441
Ni 2.0520151256086385 4.152936115510734 8.551934672035062 0.45428461802317893 0.2107253011061468 -0.5602099545030997
P 8.939283400385646 7.626588047283035 1.329662618063438 0.6919987890133437 1.180800981197418 0.8042809209492277
Ni 7.157581457942716 4.154772520048967 13.239014089371027 0.9186921834129727 -0.5617639292537809 0.44681273512616604
P 2.249669757498995 1.0030385939208097 8.3308862867771 0.08805359840582255 -0.5594021138898237 -0.6931994941896642
Ni 1.72630373887289 4.099031149974309 11.284426716854943 -0.8529033099426214 -0.1574615566859998 0.2777547318518184
P 6.238164193904289 3.6123561230312897 6.727105974731875 0.28722539034641503 -0.4708589774420923 -0.683079632146843
P 1.8452897682718568 2.9396013776510217 1.5710116207622342 -0.6398087372733496 -0.5117276906319962 0.04746025036449246
P 1.40834606018746 6.2855582706233415 5.501933847416874 -0.6033700348303416 -0.36193753444832505 -0.7183412835626144
Ni 5.5915828505790435 6.346688282297563 6.623912096884675 0.8947827237852267 -0.2993535410685167 0.6934573758367412
Ni 7.245079641850258 8.28996599979384 8.799195413383707 -0.8660753285482052 1.0932163520082139 -1.2470387692797296
Ni 5.643159848746294 1.260552593941257 8.484197313931357 0.1235582190703356 -0.7592544768372085 -0.7350292857412567
Ni 2.389069556537616 0.9805472757126491 3.0188338861824344 0.3878393419157514 0.9134011102173624 -0.41091627833987293
Ni 9.208752579445399 6.619273784210077 3.568603321169361 0.34247042686264895 0.7339638205912198 0.5108640570801202
Ni 0.860408392353569 2.2879652844604363 9.334291234128516 -0.26077850900879607 -0.29561747106485214 -0.14889181273911775
Ni 0.8964158334585351 4.463446153568884 3.2390540344441123 1.989985767206166 0.11789870679171309 -0.5551556799086439
Ni 6.206258983745084 3.8092131246676657 4.4617961719155925 -1.4455256193381558 -0.4655727893424885 0.6286756034746657
Ni 0.3187757134342794 3.951738521329442 0.17846791437397616 0.17791185412055166 -0.8226874484808734 0.11402893942366167
Ni 8.561317957243803 4.5525117736732 5.239998564349073 1.754954028144171 0.5813102268168246 0.7062516993879321
Ni 8.01459806676279 3.9953021178753105 3.022227524670008 -0.22398088056447232 -1.1315211611256837 0.4025949029583712
Ni 3.95550407810986 5.61132883675025 8.21851595110097 -0.42218953726084707 1.2304086169222166 1.678668111797238
Ni 3.0982741495706976 3.6961629483215743 13.441750367960868 -2.352538309530671 -0.7672485507862787 -0.30330712639962604
Ni 6.976769809089894 6.107287908858781 4.618921912133363 -0.12248195528702133 0.357706527086113 -0.12606607309385387
Ni 3.718005032602077 2.302888390026181 9.361304002904298 -0.8079660831102988 -1.0408640636587427 0.8761016024359557
Ni 5.082026965071269 7.514252028257368 4.459203873590157 -0.739940864110261 0.4536721812501606 0.7938640964912779
Ni 2.7582703416560728 8.183556559050652 8.719783901783668 0.9461721340007962 -0.981062261009762 0.13635177129057807
Ni 1.0692233554603707 1.9312390655234137 12.532064193021 1.0102735924663955 0.5450448167268872 0.06904800383759722
Ni 4.621061601663516 8.907841928746196 10.199506739977876 0.7518661547929374 1.2124959983078538 0.16561786724454702
Ni 5.618099419138685 1.317629530952812 5.564770416843797 1.1929203901687715 2.2021498576413685 1.5060419315556581
Ni 7.408399073737888 1.40521118779391 3.415631750611564 -1.1477255387996879 -0.576422302596904 1.1970554953830674
Ni 4.237410724269466 6.7173173820568675 10.578712219921547 0.9103777500100062 -0.38012526110094536 0.04492437131651618
Ni 3.9045855886406624 4.3719690931618365 10.472016188773148 0.7073575308576011 0.19169630949915373 0.6255316585290452
Ni 5.184309132988629 2.388503795543514 2.442865079783379 0.4905880804399035 0.2765553122270786 -0.8052414850902841
Ni 3.8148521850678976 2.659076672280287 4.340765055644502 -0.2383219797774928 0.44388219174293236 0.9796448118369452
P 6.029342738458211 5.499076290658137 11.791124118126943 -1.1478345535737264 0.5009511688417824 -0.8192426844653826
Ni 7.495507717288835 0.32689113753000754 1.3280293309968578 -0.558349247145277 -0.5358790910672191 0.1708901713870799
P 5.748178073930213 0.2444996422020177 12.593570760373263 1.0355799324416681 -0.38497436166313054 -0.9815613121333676
Ni 3.8924170898822683 9.318547311382805 6.606156476440261 0.07828340639293616 -1.4411519157504924 0.04513005956941905
P 5.042061979438706 8.01693530890236 8.118960565679776 -0.09030279945131543 -0.24482635655491386 0.1894460800123963
P 7.671923124974372 8.50123599462423 4.5585422293841065 0.572097449969305 -0.4646078543260579 -1.3337736488741287
P 7.151719803053001 2.75139773679329 1.529052559494721 -0.30514237983615183 -0.4971932444612469 -1.389217688775046
Ni 0.11439594553042305 6.233480434854754 13.034241998679459 0.2685213861790085 0.7666947351653376 -1.4720681457133744
