# total energy = -340865.3061743343 ev
CRYSTAL
PRIMVEC
9.31895602288662 0.00000000000000 0.00000000000000

0.00000000000000 9.31895602288662 0.00000000000000

0.00000000000000 0.00000000000000 13.63923411400708

PRIMCOORD
 96 1
Ni 8.081231043202322 6.303938361738153 10.99680999067115 1.687791671365061 4.26167522360957 0.273337062400097
Ni 0.5686128843966635 7.8457410209674014 3.854966072611948 -0.43012858960226563 -1.0081879135819605 2.0204397128206497
Ni 2.9162927795108997 7.626689637403728 0.6268125613204367 1.9397217288442918 0.18302449275676866 0.7230381748176515
Ni 2.6599096575588965 6.668123168581869 4.266816408332964 -1.2251404265447416 0.5401378663435729 -1.2442624920861731
Ni 8.978562651078171 3.389593244065287 12.971593718720648 -0.13946640566015983 -0.8564720011304863 -0.5616142910497941
Ni 4.814722572135801 2.8377526169704996 2.6618060651380335 0.743243703231249 0.007123755528974827 -0.9957111212711882
Ni 4.189150363880638 1.6516917903014356 9.146252607750363 1.9045356678614618 0.456904057923897 -2.5321897720501485
Ni 4.046533058764563 2.473362793091202 13.302658955361638 -0.5249891836275925 -0.3402875602787172 0.9854359645974254
Ni 6.7124534430484895 5.487663034566671 6.204692410499543 -0.5224332499749583 0.1625096606328685 0.9199049727741513
Ni 5.051461334496541 4.891520089873751 10.359598406168601 -0.8341440270572473 0.1739724098568294 0.5193399557616153
Ni 4.211310841635867 0.01028346812569191 3.392745846935175 1.3149565161676258 -1.2208896216881877 -0.0053165271169069725
Ni 1.4299472284067016 1.46517288270223 7.935933606293814 -0.15842057816515942 -0.7878070916639206 3.158731874121579
Ni 3.4631570840147314 4.9829856446120075 2.3995501370122096 -1.92951290663209 0.39456509067535916 0.30878871833948757
Ni 6.512431367969332 8.06119528745222 1.93032019250975 -1.5914346952998655 0.6933182791557156 1.8809720216089088
Ni 8.709626895174825 5.75069989121894 13.314865856039338 1.6982419201641075 1.6094900101396796 -0.8610030562316203
Ni 1.2375853352933963 8.943374272607295 13.50325135055796 -0.809926035050147 1.8108955765067971 -0.43546542843414676
Ni 4.387373880420369 7.0718110305998545 6.6454715818368575 -0.18869840321309436 0.1254271539582743 -0.36611840529889206
Ni 9.122074575985879 6.5478340824319545 6.503227966862912 0.5949193329598269 -0.04358611212106687 0.3717180108738566
Ni 3.466530546145679 7.044543764867391 9.728470236249155 2.056648301530722 -3.573505064313697 1.330191073729193
Ni 6.49771673618821 2.457101214587049 13.579071309794427 -0.5138254537012893 2.688608489293931 1.1285980739416175
Ni 0.7957689641351576 6.793546999577507 1.7282544703440814 0.8677519449196797 -3.3359125065030613 -0.588484890188393
Ni 2.11808690833916 5.4757627275467256 0.10732921381425595 -0.24827626277672726 -1.04113454371131 -0.34098330079416117
Ni 4.617542778686309 5.466434452427725 4.551739765429276 -0.5539608882695943 0.551700888590824 2.24433703253238
Ni 6.2016255420263535 1.14385527420757 11.630188688503921 -0.5971412803118102 -1.3388996572467844 -0.8704230639939396
P 5.263980129790067 3.0755351024214783 11.590471297337904 -0.56864831507844 0.34526187356485694 -0.10252890920386212
P 7.180544611107851 4.549067088801774 0.43788749923998604 -0.8147995610923645 -0.53645681794756 1.2546800878750715
P 0.5210834122793401 7.433442443454952 12.093050058364698 -0.823682208293975 -0.8483046348283454 0.6371954680202188
P 5.096788737272587 0.27765643508053045 5.453688916083811 -0.5638907457887966 -1.9036514654842955 1.862197569214883
P 0.7761907691326508 5.1594959932923254 3.6103872724314114 0.6115679972601016 0.787843858439127 -1.5915730206499428
P 0.8086356469091882 8.232831822059373 7.838454529143679 -0.781157447557887 -0.34801912459502 0.03212824799311241
P 0.8187961048135307 1.6245829468237396 12.351922273507794 -0.5802699584777684 -0.4902134707093041 0.0242213344412099
P 3.3530629359069613 2.7657916374810636 7.1166519838642 0.9380201943176232 0.8226684223174799 1.0315114187992493
Ni 1.7476956766909941 1.8670715051369513 5.941741288243972 1.4018747154174245 0.8050679356268973 -4.315860451402722
Ni 2.644533379890213 4.008884475866697 4.626251343220481 -0.7326535864202286 0.7142969382899118 0.21894486080246162
Ni 9.208377429009923 4.066988167541993 5.209914341820128 0.26442279062960267 -1.3221473774891102 -0.258455003081942
Ni 0.28409769758028414 -0.013656930256639324 5.95364811853323 1.5545879587851614 -2.923153261417179 -0.2413008599001586
Ni 4.771892649611398 6.9504782213597025 12.220849291286243 -1.6135960618882534 0.7994685871622489 -0.6810890840793754
Ni 2.5903995635402866 8.863352396037003 5.475948174774367 0.04369538400542152 -0.4724268361498444 -1.464041418754156
Ni 8.352887934305217 8.210764533865772 0.6776735602659748 0.8201428276821487 -0.7051648940816566 -0.09724992019310993
Ni 5.290576430678806 8.815294539105247 8.02656697824673 2.160347319783286 -1.0022098416216547 1.6120947947523785
Ni 6.900370194072121 2.69390520964093 7.9208760369259 0.5300969371678032 -0.1436660455638042 -0.8033558380317971
Ni 1.3809388379463359 5.17688516549218 10.487466599365753 0.3996036815405311 0.03556684136101617 0.37579526626702375
Ni 7.9134152806219324 0.8645223589133451 13.17813253984448 2.181913733100152 -0.29689428089474673 -0.9796378698584097
Ni 8.333774755215236 0.5147139057420401 3.6311732041526223 0.6538019662286483 -0.9574777888216027 0.7805946330758814
Ni 1.5743817299745304 4.10424535428102 6.907085433883063 -0.16614262939976548 0.22314501492673824 0.8914261486081679
Ni 5.135779249857902 0.6238295634527121 0.9268065343232902 0.17409685124983565 -0.5700724491194763 0.12115963693117197
Ni 3.413077013595639 1.69865932936214 11.06107817184816 -0.933604838858747 -0.8194851394934919 2.316491186099127
Ni 6.339639282797987 6.665718877891856 0.09128290319746492 1.0939493735194967 -1.4644841627185294 1.0040687492072642
Ni 5.361335264823237 3.477415086943874 6.326518192520711 -0.7865413375776196 -0.6176147176748137 0.5106619683716431
Ni 7.661719593619837 0.7024992594837757 6.638187885699984 -3.1361825280661533 0.12118457663183646 0.6235627077281326
Ni 8.709300731709126 0.4450835971889297 8.83229045135503 -0.24232081652424073 1.7454039225618907 -1.1948841987633614
Ni 7.740874807266984 7.7768459780555395 8.396817493656837 -0.4522539607463953 -1.145196344619931 0.22002061036514364
Ni 1.8187620363887982 6.1289283650000534 8.338645773601552 0.529053069284321 -0.8623348876691664 -2.5039613733320745
Ni 5.977150525975908 7.608312655850611 4.8014057837791055 -0.47902968617834263 0.23972554499323875 -0.6948583699493259
Ni 5.864987569599987 5.290203672432293 2.6978135798556244 1.1178632040226169 0.3108008636735099 -1.1701231897685977
Ni 0.8147507459432427 7.258935670349646 9.92221599435264 -1.0321302833301709 2.1992601947983994 -0.27534740796190643
P 8.724602457728505 4.3764986585783365 10.690595614429599 2.6336732707086323 -2.770508923614164 -0.9588235042162196
P 6.5622039128350504 0.6909036823303562 9.464455821095402 0.12098660168841742 0.1651851505825026 -0.5832375257465245
P 2.5835501307606004 5.9245636563490125 6.183565404982773 0.278213673766108 -0.48644346214391065 1.0231525053115926
P 4.37943412976963 7.073833244087191 2.83108210814914 0.7172655339999324 -0.0519347411960783 -0.27365150831672225
P 3.7277129305215437 0.19709499094841082 12.979531605580155 -1.1611667519062583 -0.8332994196687649 -0.903309016088683
P 8.41039521278609 4.4070461968801204 7.163844109768428 0.25766130353605304 -0.2711613949050169 0.4160885665694318
P 6.058775263006207 3.932208104558865 4.417993174684606 1.4560949102135698 -0.9682993049171389 -1.0358946354686096
P 3.3635001668093403 5.4425592867385335 11.997343446676732 -0.11060860088820307 0.3262277397515414 -0.9952357242966666
Ni 7.040592527454347 4.623600100192153 11.724886057239448 -3.7141392650297127 -1.4236010513509225 3.7957656197529532
Ni 7.924700536535129 5.801441607525595 4.214018930296788 0.062354908088137775 0.5045527701501117 0.08528734851459506
Ni 6.229563772602543 7.73052144697007 10.502469186892304 1.8469763813897544 0.17870941032118254 -0.458759623075397
Ni 4.467255972648218 8.972011424895696 10.59438391531761 -0.7132345584636685 1.3961403840368083 0.17770822275017784
Ni 6.456862432370328 1.4850408972414009 4.485112024551832 0.13405731882944655 1.9960260598629755 -0.4857616055855376
Ni 4.85382491219507 4.609621665947896 0.7048951631132413 0.8633178204077261 -0.43938661786542393 -2.0834947322996054
Ni 4.102745002338803 2.118720597358233 4.733809803356342 0.38070710174634437 0.2569146551780156 1.6615198821527255
Ni 2.6517182950917615 0.8081184448421507 1.7109603514970864 -0.429705386021918 0.2619894985977617 -1.3725343145820943
Ni 7.625012225294417 5.301843048679677 8.999057831367102 -0.08098846402892504 -1.1812907763496427 -1.4828043011839558
Ni 4.529534556684465 5.0142227856698405 7.927954716027193 -0.6850838070610653 -0.16744643581285357 -0.12235057191547963
Ni 0.35607731498204614 4.365548885087002 1.4659854956796294 0.23144016505599496 -0.253852214202608 0.383345824920772
Ni 3.6509433696520834 0.5596228873863734 7.2129456897904225 -0.6131718514121116 1.4641581468376785 -2.389822133582794
Ni 2.4008333572758325 3.5767458406835657 11.715719931957683 -0.753824821181205 -0.4490117996600138 1.6643704642276433
Ni 8.995131755135697 1.4650796931406014 1.5983817696763036 0.6696019093753823 -0.2532256363622026 -1.1425085133751225
Ni 7.981201367750417 6.083750065522613 1.9629179011673579 -0.6030802715040645 -0.5854666721873595 -0.4653940976727792
Ni 2.316394295484356 8.447801502823724 11.391134165536714 1.0940920697449479 0.18039142600929578 0.9489155010738884
Ni 1.0589968593887658 0.8456691787003071 10.32601847953143 1.0448901540990003 1.0082275085706445 0.5188599308014031
Ni 2.5300500034297464 3.477247345732943 9.240239872026283 0.2242917269366718 -0.17470954513317008 -0.49573157231405585
Ni 1.452144981986582 2.766276223201531 2.793233167693773 -0.2260799291853461 0.49007694513143985 0.6721290466726103
Ni 7.934876836664949 3.254049026676806 3.012880032556252 -0.7421209024807155 0.006753259563433531 0.4594905877041506
Ni 6.974325430180405 2.928686991207474 10.141629885311048 0.14948316646621354 -0.511795310645138 0.32469099139204083
Ni 9.296506797441884 3.131271779231413 8.860183019046021 -0.20723708544723018 0.7049576631668569 0.4533646773120708
Ni 8.55890209819708 8.779099713368783 10.9092192579054 -1.5898786636666553 0.24447745785592734 1.3624347642542471
Ni 2.6158403138648345 8.757069700999834 8.879400570445027 -1.15366401577131 1.9196717521719522 -0.15966653475711856
P 0.9525930179214797 8.700699335170826 2.060274899991761 0.16043735148487206 4.433246480224074 -0.9477801019178644
P 5.831262267246677 6.429119899873559 8.877246027780178 -1.1105203905043004 0.7700883342279189 -1.4338157871003951
P 8.051186728533331 7.8802957104192055 5.122650704415696 0.043609509159834574 0.32427498690054474 -0.02890202774633087
P 6.680321682199024 8.437783624948672 12.634076968728127 0.43672758297602204 0.4066011959042868 -0.27066825731868227
P 2.353120301722101 3.2115079917934497 0.8565276264212462 0.15658609605958196 1.00250834669868 0.34164715963040515
P 6.804794979666053 1.3278673825989724 2.11567702627545 0.4775461596542808 0.08262240008792222 0.3519084323470971
P 2.4834645415717187 1.2018937331897261 3.8316155641547245 -0.9919771081500529 -0.4520765546282666 0.5076298664135387
P 8.986604910246701 1.909305014466934 5.496652099681344 -1.861979539666806 1.3163158584089976 -1.263910605334404
