# total energy = -340886.9656836326 ev
CRYSTAL
PRIMVEC
9.11312201824768 0.00000000000000 0.00000000000000

0.00000000000000 9.11312201824768 0.00000000000000

0.00000000000000 0.00000000000000 13.33797524219712

PRIMCOORD
 96 1
Ni 6.881008654658058 1.7796013713674976 11.468857788830523 -0.4179734422969705 0.5666806498291079 0.22327639829827997
Ni 4.625037051542686 0.09135266990817859 6.006356711847963 0.08972018747496806 1.6240861627862997 -0.6944832459980943
Ni 3.2511518762499376 1.8887948004188824 4.92786154250104 -0.15347454701379376 -0.4560139420094598 -0.09509790684711364
Ni 3.5287284624188686 4.417859333627965 4.581394309786127 0.1467598539977795 0.23118922538745343 0.06283441882771759
Ni 3.736097555897775 2.8559339968391173 2.5783373618015575 0.5082312474429634 0.2822708745546171 0.16468095725257445
Ni 4.8182170139055005 4.9745799629677325 2.5038576374691295 0.75020367948885 0.2048742416420085 0.15272687021449183
Ni 5.200439581195869 4.394611759140394 11.500362763256625 0.9427402255011118 0.3081716535807789 0.29238405172921905
Ni 5.596295379153976 8.017943542121975 12.45626821405913 -0.47595798923155447 -0.15097903428544965 -0.07105552118592924
Ni 2.0605042471044266 6.908767224587161 0.11412727335854711 -0.1212802216694363 0.012760899210094151 0.9632694558027153
Ni 3.0398459140220577 1.835601506697222 0.5245986965472185 -0.5327649709182696 -1.0069874655159559 -0.9851094344959422
Ni 7.871732611083716 0.29563606024263533 6.705720484922232 -0.49284679456709307 -0.04437852611537518 0.9125457041956025
Ni 8.99338479277905 2.693966477682861 1.3743317182758492 -0.590184389378003 0.3065372033011495 -0.2688324896615241
Ni 7.10812588373656 0.7368724723425543 4.541034114611468 -1.2541100743042142 -0.14269545412041876 -0.15866997517180415
Ni 0.9421510156107793 7.750063317871812 2.4602832441283513 1.1172780209431081 -1.577887038522418 -0.09307547710044616
Ni 8.23414325091976 4.068835870162853 3.354193947881052 -2.3601780854641157 -1.5806458322144776 0.9413986238715529
Ni 7.88905665620362 4.163420964481357 12.451640570654666 0.5192124290448155 -1.2866296441984744 0.20083812389942185
Ni 8.344111295349993 7.504911220149287 8.963426315174015 -0.9306706959310875 -1.7213638508935514 0.04263351839981045
Ni 7.43696378174108 0.3318434056744544 0.1715527009853536 -0.7756347179674448 1.3807063088699254 -0.41369769773975196
Ni 1.9797619852620572 6.6277823307512955 9.230145527668116 0.0026870599138598883 -1.8713856634720545 -1.103697454045196
Ni 0.3952834938899702 5.265252105600262 1.2318097790653322 -0.37664193053803524 -0.48818255632220436 -0.4439138163118161
Ni 6.185312913230692 2.2076173772309917 6.3569986657987645 0.08764170767938455 -0.20002565530045552 1.6114077959876827
Ni 3.540766896718391 4.338101288972839 0.2683386142919995 0.7252066432238801 -0.14501278939968573 0.4686079766243865
Ni 6.083464660595215 5.620827903858227 4.5049279248350045 0.46016575939430426 1.0644673048999798 -0.3992069603227447
Ni 5.401930710917627 2.7251698077673163 9.474483823586745 1.037564566971865 0.8678558174873957 -0.6768737604464472
P 0.26099890574935347 5.949492652542769 12.418161693980815 0.030818785153069506 -0.9939424594065398 -0.6802797008042025
P 4.027617218885986 6.089898524800713 12.588728355154503 0.5942966117741636 1.4770319174765532 0.18158364654518405
P 2.6116658719606898 8.74247320188673 1.4474235141118226 -0.2547626418320193 1.077676861611718 -0.4736974753321519
P 6.4215797169017135 7.929637388933198 5.579221944891936 0.1596876178030411 -0.3714377606292764 0.5014592188264525
P 4.815473964152165 1.0625900373386294 12.477462602136645 0.6915958971479703 -0.5531311932794474 -0.6900604343400504
P 4.241010086075706 6.000854208721504 8.186315763492996 -0.044459772975271816 -0.08296255703616036 -0.34257044277562293
P 4.890338262237388 1.1619412945175809 3.5057132725449516 -0.11196460069546524 0.19633355116084897 0.8245705244361993
P 0.44483518401883004 5.799508888953412 3.4993778300581777 0.2755361269339448 0.47266466319226336 -0.375995555203288
Ni 0.39800831739909753 -0.22038080921914757 4.578686801208998 0.870641607762649 1.8619785112255418 -0.4719167292826453
Ni 2.062071704106333 6.9003922653734895 4.836736700645464 -0.7376420407737554 -1.2939449469129651 -0.28935837752901783
Ni 6.321162224436583 5.880533657581008 9.194800283587345 -0.6053574975740155 -0.5962362519990377 0.12065132983618578
Ni 8.904185553624071 2.506819402152963 10.155774452904152 -0.006120768185757201 -0.07401897468962737 -0.4783689126658924
Ni 2.4083612309402143 5.553573062729932 6.792911191965466 0.772903692189527 0.14319424813370824 0.9622266163604977
Ni 0.43108348276373576 0.21899925990816527 8.75051188689476 0.1121954857593487 0.41055580967666067 0.8948675701895491
Ni 1.3761907951850867 1.0235220828783318 11.389937240096765 -0.3836098772154361 0.3957570541009313 -0.22422590669574285
Ni 4.164122674883373 7.2791336200200885 1.4070232211999048 0.8038430620808606 -0.4996658743714556 -0.42800897215610156
Ni 5.791343531548133 7.9709471714311055 8.140646263380484 -0.2101426891297994 0.14264840293256723 -1.1343239206818012
Ni 5.796191712507516 3.162107560170729 4.262323856052786 -0.21883044671178442 -0.09044703833866359 -1.2423058825804347
Ni 0.5139099156313138 7.91516575103188 6.704333467737987 0.2970776005501464 -2.3324271406030928 1.1478178414031779
Ni 5.212669391059577 4.64129486137641 6.398066950560914 -0.5825142744272549 -0.897494723399751 1.8690896683490261
Ni 1.2484339364076404 7.6450801512325235 11.199631556445585 -2.3722391303937083 0.2825542101229908 1.0602077582926772
Ni 4.843560606477017 0.6820543089497322 10.221984018927106 -0.9067764058119931 -2.3566669869870642 0.5807854646616063
Ni 8.138501034437178 7.0546409701075685 4.641388726534082 0.3284499442138408 -0.025216094254311414 -0.8868508705326597
Ni 7.504701618340892 6.106466180785976 6.709095074037382 -0.23776919259781637 1.6257563513998712 0.4526216284984592
Ni 2.4951181533712923 5.602392057841622 2.3529251978687338 -0.21221551249842807 0.28541507661055365 1.0682697093652056
Ni 2.2553701370565014 5.625995044091254 11.369250452920447 -0.3546708255835827 -3.0008244881474124 0.4622804917444619
Ni 1.1946391766271094 3.6034651767946326 3.8182751344715404 2.5298436404154754 -0.883642390897691 -0.4989084273801408
Ni 1.7264080776458373 1.5275233008458522 2.584606278496971 -0.4759556752387094 -0.7841054744426172 0.8860255464178869
Ni 1.490551364469499 3.56796045307704 7.911366490426679 -1.3560743692538582 0.08680018561469569 1.0274799290423533
Ni 3.769214641624092 2.6538869666690075 7.412780289613417 0.2520231314136692 -0.00816248120613433 -0.03694469554514927
Ni 4.481222871617806 6.942294400808163 6.240958548110567 0.24552646794573196 -1.1101984883885074 -1.2615860709662854
Ni 0.7398952949444859 0.500194666864636 0.6335515391750547 0.08722904562199815 -0.7609035824048573 -1.097099232002388
P 0.446846450067206 5.801094572199526 7.941123568033213 -1.0489406700192903 0.3438912184695755 -1.0794804904793602
P 8.38984094206839 2.156210255441736 7.913887180000674 0.5435391787156381 -1.7263677318660462 -0.024311065941538777
P 1.9389534244798756 3.404553060628335 10.221183886806365 -0.46072086056682593 0.6711463710443667 0.4517703362417575
P 4.036338476739615 6.460182902134703 4.005874220857803 0.2506128813297039 0.3896234303993677 -1.167682698647905
P 7.080695386203204 4.107767127791589 10.25434198158215 -0.06178386607601618 -0.6274630712238033 0.9436596519915877
P 6.147721284551259 7.832774014088668 10.240991257699637 2.2688753839933766 0.303730844200606 1.3255787717681624
P 2.360608471114704 8.763442495848274 5.888849381501003 0.5840993595261876 0.7492953087419677 -1.0640790683226253
P 6.674714909587435 3.7825927048729184 1.7857281233580873 -0.10847098571990996 1.1192181753886143 -0.10597444455030137
Ni 5.478444484103692 2.7999976533641213 0.17611564122287893 0.4879938373501661 0.7021423052052488 0.2963990864258831
Ni 1.198202407369814 1.1947303078481502 6.767488315231644 0.9877363305958278 1.2213938150181158 0.025849356962936127
Ni 7.143029141395282 0.7509814079841295 9.17139231815074 -0.4824968187913368 -0.06533970174807457 -0.09547405923960976
Ni 2.2251601372813936 1.556767309677925 9.112105079678065 1.5580296374768587 0.15596131799138946 0.30911344866875795
Ni 6.737713922693113 1.6781814354709144 2.2733375685969546 0.41646754717540535 0.973484191552188 0.4432221895614302
Ni 4.1836794349187825 6.738479424949858 10.512818375133088 0.8248631159759535 1.1724353828415421 -0.5604333833678155
Ni 8.445886643008636 7.351036153421475 0.39922947576104756 0.4461645600192058 0.12759870768829637 0.0317531240418808
Ni 7.667507544730725 4.202744086360569 7.9464593010251665 0.6003258486873789 -1.1883998765905985 1.1794727493042978
Ni 3.0002311722355137 8.740331618192265 12.200926734512004 2.1010170574540847 0.5836111070358595 0.4469916839061915
Ni 0.11704347243186065 4.932076361474187 9.96881601900181 0.03504850696370093 0.6303013120035467 0.46371156776403366
Ni 8.737625020927346 2.588308940007869 5.668279019342091 -0.145621112407646 -0.21265234292553054 -0.2023393910352967
Ni 3.5681700548854343 2.465017511061434 11.429764317628333 -0.3519724528158132 0.6964609385497554 -0.2858573063542948
Ni 1.5789121963908999 3.3750447712552436 12.71282447278273 -1.8666172955491338 -0.07679036678717743 -1.5093856512169102
Ni 3.090095669304092 8.09159579496735 7.82398987569252 0.5619937858763998 0.8554713277801138 -0.19183926283492125
Ni 5.6219123653886145 8.162896862309868 3.2267232411376745 0.2608376443815056 -0.24973947758581505 1.123496233938678
Ni 3.020544321405564 8.722424333257699 3.708410979633294 1.2064621334089478 0.39679706532967146 -0.5017700651986519
Ni 3.796991437797404 4.432868645733426 9.591777906876466 -0.9190858193069655 -0.19859869304594185 -0.8485278065827451
Ni 7.310920189919206 6.253770686476727 11.638290777614463 -0.39016387628386995 0.6810006381306272 -0.9179082540590966
Ni 8.198082626753816 8.931306205005887 2.4526136405655365 -1.0086370853042372 -0.019165517184857313 0.14668940577116027
Ni 4.929934777779723 0.6067708072477218 1.2428175192548805 -0.12937456864179653 -1.6325258089132206 0.50215007424589
Ni 5.838321675994794 5.444935534126898 0.45059103193978267 0.7057179383716491 0.7158447423930059 -0.9463960770861443
Ni 8.206849450217966 8.615746125907046 11.223158903781751 -0.9030112823426062 0.527119599707034 -0.10231010832483671
Ni 0.38565365776256255 4.943686479034817 5.619275939163898 -0.8359718242946055 0.7931845539257502 0.6184107312135478
Ni 7.444482107476967 5.914142851900947 2.365583324471335 -1.0186880417823359 1.906479421851394 -0.639291431317299
P 8.797024350801902 1.7164292089418425 3.6210999793782856 0.526081645360823 0.07073619017329753 -1.3028895577007626
P 1.9100921667761754 3.6547447148744308 1.496907767137112 0.1871230883061745 -1.0052123758934044 0.9576238274811637
P 5.1532700611850215 0.9279527713725839 7.973147990419247 -0.08887120921111147 1.6781904008298714 -0.020244866291965133
P 8.875178485966705 1.9169999133310869 12.474154538812854 -1.1738898558998814 -0.2358735182370002 0.5614294287324976
P 6.484806558059994 7.734753272736915 1.2461848178723474 -0.3348710172488362 -0.6720341729659588 0.004678893532908071
P 2.0572052969027403 3.4799550329176987 5.858171878561954 0.5131374264953291 -0.7845723867767068 0.3139512363770335
P 7.26108963825396 4.120170086975276 5.774142513576635 -1.0940817853323028 0.9617077677425501 -1.17157946259915
P 2.503502225707069 8.571629501801075 9.851361544763053 0.47088700246655024 2.347557054265996 0.5314974170597556
