# total energy = -340890.33890378516 ev
CRYSTAL
PRIMVEC
9.09894197467455 0.00000000000000 0.00000000000000
0.00000000000000 9.09894197467455 0.00000000000000
0.00000000000000 0.00000000000000 13.31722131508308
PRIMCOORD
 96 1
Ni 6.552593796885521 2.0318118889731576 11.619914559288393 -0.014957906861412948 -1.048530321954749 0.24302401323885242
Ni 4.589524412776593 0.3127206188521803 5.921861524557924 -0.6231482458985332 -0.2727955880743302 0.8564640307106862
Ni 2.6919401123880964 1.5976558837320303 4.773158345128597 -0.7734503087216164 -0.7576835328056629 0.3995771991779699
Ni 3.3845424588818482 4.553365218292086 4.7176657192297276 -0.8892319691703265 -0.9163380813584993 0.5702094889179729
Ni 4.731831861628552 4.493193916549247 2.7119323071846133 1.20497037935477 0.7717672645922387 0.04363984817713775
Ni 7.332837150242576 6.08996720293226 2.5644703078355544 -1.3985297102045915 0.8157927782435692 0.3936657187895414
Ni 5.439128999036365 4.455815463871251 11.822588937130654 0.04387818944018895 -0.45428256114064985 -1.7182332756843697
Ni 5.797800183582105 7.85880147766505 12.442839228570945 -0.8257961693131842 1.1112752663924539 -0.2772986181510063
Ni 1.661776126191094 6.864314442040206 0.26353810905170105 -1.254375155040143 -0.6104413398548261 -0.6639015165564953
Ni 2.865939175329018 1.5609234559177492 0.6188008300207186 -0.05265799251534802 0.049585524237611374 -1.4243047622861664
Ni 0.6465307648750173 -0.18118449723493651 4.508026101483619 0.04395275143186624 0.7500571266086565 0.8418650498505889
Ni 8.263540604252828 2.334697461695921 1.5989051684332691 -0.17704950612025636 0.40008499205232384 0.2316563948318591
Ni 6.841166734247406 0.7823315604869486 4.98962944833494 0.3913355279944679 0.6917679039494602 -1.2466009104113627
Ni 0.5860682969964195 7.524915810425752 2.5132660131799023 0.13060586994573636 -0.13374441557471806 0.13618593513667512
Ni 7.555870410233576 4.0137069835472206 3.7825565576277795 0.7681607781879028 -1.7870244263161545 0.32081993847240875
Ni 7.660371756145644 4.04560787329626 12.631437543537633 1.4899170009693374 -0.26618451051571573 1.220546636526472
Ni 8.387204321474503 8.83579124831916 7.057274789678225 -1.3730693611499576 0.22449921496178757 -0.41398257597002247
Ni 6.812004625962845 0.6445144393848897 0.5607122760427268 -0.2105772055640567 -0.7480490950396923 -0.7408032121105564
Ni 1.83927828170286 6.52205774839785 9.106634897695876 0.37857051501931577 -0.03879023339432029 0.47753047592499687
Ni -0.023361532923747135 4.60691249044642 1.551522429309447 0.8492749691614148 0.13709816253829937 -0.8958952401231152
Ni 6.345110628332374 2.067980182399407 7.005563683967518 0.8558863038303454 0.2860059161170171 0.2034033135234368
Ni 3.8638929077577377 4.505304608008451 0.6484624702069399 -0.893331850271313 -0.21597292265833126 -1.5311875775833501
Ni 5.845624221380437 5.502357545204668 4.587356134959366 0.06402535381202523 0.6816938075429098 0.5990156145163877
Ni 5.515177954119784 2.916219927397811 9.753479576061007 -1.4287944226264038 -0.2474283129541352 -1.6190889666820243
P 0.23614210535935043 5.501484046797392 12.730877148158374 0.03542645912840996 0.6043377980602496 -0.9678223652807202
P 4.345963940214621 6.174396283360477 12.463653967700981 -1.5682767691261634 0.331241648026365 0.5671046247404039
P 2.309766361321601 8.6488170944535 1.2997592607666542 0.5103835178992758 -0.16863248570115474 0.4871461446378901
P 6.426318683383763 8.097967161365418 5.960201735378098 0.5431923368991807 -1.9747949183983406 0.9353506179052601
P 4.579570170510349 1.0937564900350036 12.53625897333488 1.9009600346950617 0.987544783410312 0.3552881474526075
P 4.090829613756249 6.12050325141993 8.21725792718567 0.200336501672655 0.15513265144250704 -0.09879978117873307
P 4.69142346135032 1.04933545644835 3.8382630086575973 -0.7254989776533182 -2.4632615816198675 1.0059063166366353
P 0.07722362846236973 5.526742709074441 3.5128966805717563 1.7581884759210689 1.117591695528785 0.9808522018814849
Ni 1.2150908781706093 1.0343313015150455 2.4281954573588416 0.6462115554759 0.6945850616832813 0.16895901580263806
Ni 1.9035077114628332 6.407947920005752 4.840476865610133 -0.3473025581439696 0.8631802663885972 -0.9218754662369607
Ni 6.050104739158574 5.39047695753947 9.291518114749119 -0.3422899354207266 1.0599861292001744 0.21005655717389632
Ni 8.873588252317308 2.2823330519681058 10.364353408035702 0.05522369635999522 0.7883488231000035 0.2995430313715035
Ni 2.565628603119369 5.1345146273825355 6.962603030530527 -0.9865816481660944 -0.3413206295289219 0.5041660762346543
Ni 0.5734307768103271 0.05493031129918654 9.240686876704908 -0.5590079637751985 -0.11569295738964591 -0.4400617895555776
Ni 1.5188408503589057 0.9844145071159502 11.41750587054501 -0.4425267061563024 1.2578641420300078 -0.11216411830078103
Ni 3.7063447314871705 6.9886878767177905 1.1797223817235218 2.8680496355748155 0.38450487822587975 0.3898563723457802
Ni 5.553238827428463 7.824052619150625 8.203594956265203 0.5549733886945087 0.2584092374456711 -0.6487847155197148
Ni 4.918624036659362 2.9628883995948505 4.887127139923687 1.04089414556573 -0.8574343650437555 0.6399519477194333
Ni 0.9420134385961211 7.194114684437143 6.786042615489105 -0.37784546392783314 0.26535995773189136 0.9129210852571503
Ni 4.948077311079681 4.106516189320237 7.448974222854894 1.2819826323447663 1.4044846422364456 -0.16155321025687014
Ni 8.38092605167221 7.0319442457614105 9.11843440534749 -0.28953064144082397 -0.23576861722801976 -0.6521330631666576
Ni 4.8940568939547395 0.31843020479556927 10.395982239426642 -0.3358259249629378 -0.07310520462610635 -0.28473861936881933
Ni 8.287443524210252 7.129876155735428 4.823896773967036 -0.7415812279271616 0.07823481254318784 -0.3671447896808774
Ni 7.212794811834399 6.091723298688553 6.742335848829235 -0.5163813873539236 -0.021746647648472225 0.8475862686050822
Ni 2.26235177590168 5.693216947194355 2.472395386661154 -0.5931244458429332 -1.3145063160040844 0.08088150613741554
Ni 2.480089451798572 5.27012525511205 11.720353227712456 -0.9456707688843455 -0.12230532049984098 -0.09067458096843738
Ni 1.3301833922708928 3.4313474152050243 3.5537536586778917 -0.914044143118 0.32875796237256283 0.1821271777534799
Ni 3.5584869281723153 2.5105163129853336 2.7638026443758132 0.06296811619210445 0.10125544180807723 -0.15378822159947061
Ni 1.0300911946630626 3.3397574676254966 8.39632146110044 1.1510772288807403 -0.43928094552549507 -0.9591937430714449
Ni 3.4328214437673017 2.5911147389399787 6.954612339892305 -0.46967009934031373 -0.8470738477450379 0.2240112195817755
Ni 4.276002177156903 6.785290133007005 6.076395221429217 0.2343437118560351 0.8263517847063381 0.020124795774333085
Ni 0.6587069687147673 7.375656770082559 11.213672287524762 0.4274140188845801 -0.515578431836654 0.5518294437488883
P 0.3680867694608303 5.357338611713458 7.845121218755273 -0.5358986314512448 1.1639903373979825 0.8017573831964256
P 8.712391400408016 1.7247590009323512 7.999308245946178 -0.24703467706014226 -0.4002803958925816 -0.07002322326667296
P 1.9072473765189812 3.2642453501048823 10.467242421471008 -0.46345394322727285 0.012143577341069408 1.0918732077167583
P 3.933518009970985 6.362489607060458 3.8005615435477447 0.41350795032644916 0.43661188333376416 -1.0205960574383262
P 7.251383423764141 3.8982141160102692 10.532722955720567 -0.051078563843370096 0.9198715484330544 -0.8942546191958987
P 6.623083298564302 8.011336137035526 10.07098896795224 0.05893894042805333 -0.988218155328253 0.9383981464823323
P 2.4251045468489303 8.512669629161183 5.7202790197247575 0.23216264504431627 -0.3357318225872347 0.7333488127150403
P 6.762833944786632 4.147461427161274 1.7154708012016555 -0.08168214766183997 -0.4256600123079508 0.38396134701758383
Ni 5.763060424009421 2.740482966584081 0.4713615780260162 -1.3450168258881159 0.2186034183026429 -0.32619457252076084
Ni 1.598856944042034 0.8795828696186307 7.0658641906831 -0.6165327974645446 1.0235561685079146 -0.059833170107548565
Ni 7.154306814313913 0.9520768681632737 9.268279417538896 -1.2782182802063278 -0.29736042189788786 -0.5750015109899774
Ni 3.019747686543437 1.8029826030922165 9.296285960222164 -0.27011341325647675 -0.6883521933996919 0.10597958675662394
Ni 6.010815508714664 2.0713922855528266 2.778305447619108 2.173777477146263 1.1657623416967406 -1.1347242414440135
Ni 4.1453595716187674 6.773707180168862 10.445775288218039 0.014398177703201008 1.3372682922909485 -0.7681888032123609
Ni 8.08161636305423 7.20103897910315 0.6930272670731245 0.8206709322714769 0.4974303001727175 -1.8722115018074594
Ni 7.7314071943289715 4.018074475583598 8.317270765136186 0.060353047166760584 -0.6903581680861272 -0.6875983459528029
Ni 3.143511492124278 8.711072053855363 12.299093237029505 0.24285483465083982 -2.2430761635420855 0.5812806591304699
Ni 0.3068381530156847 4.916840644077841 10.255205232575763 -0.7239735421477274 -0.30511718302517127 0.680806262731634
Ni 8.581020879530486 2.3242791734008126 5.8111819972027305 0.4696713848918943 0.7361425734100935 0.44992556972353476
Ni 3.6671282925771997 3.0043158813482376 11.849343465430161 -0.6374564349910893 -1.0039867310164194 -0.2522316478800494
Ni 1.1616345954337002 3.0968066241602683 12.688780894186916 -0.7305100577146646 0.7295986016439886 0.42506120238168726
Ni 3.120764137768146 8.278171702574694 8.0848182806534 0.3400541041116724 0.6463665929965255 -0.2820083649218498
Ni 5.730022166542576 7.858392025286641 3.810043550737555 -0.5427434222872202 0.6164062991890095 -0.4908660166916385
Ni 3.0133784273237203 8.48409895208988 3.5818530105669337 0.7939648837352004 -0.4165606211098439 -0.5992197601073939
Ni 3.4628661494008806 4.5425465765603095 9.521027091578222 0.2699090105551545 -1.1736664270351658 0.1955946161122954
Ni 7.238699498975161 6.302500284152468 11.406931990346107 1.047674915932989 -0.6119734602286364 -0.24127694864075866
Ni 0.5332580391232244 9.141524789807312 0.19787013660224617 -0.9264844257638818 0.032031060293615805 -0.3579163291040739
Ni 4.645737674861466 0.19365004742209666 1.5985994439907227 -0.7142272613942409 0.46707225670615043 0.4592159938865253
Ni 6.00761268122132 5.667785405024199 0.369439782097933 1.1279357577672704 1.3569418594604759 1.5210417473985998
Ni 8.041444535261302 9.025968229678162 11.341318611547106 0.35395425913253237 0.26059776045655764 0.9301011965808628
Ni 0.0020891170240671243 4.83740688266623 5.712755104797924 0.2762876603879887 -0.3891526614105362 -0.2104404228758763
Ni 7.819930798541294 9.171005361052856 2.699080961867573 -0.22765318720973698 -0.7340967466246583 0.06680805876348495
P 8.782234877223084 1.7368150987411008 3.7399953477332835 -0.8587039757847985 -0.2439596376792444 0.19469575844710985
P 2.2015435482368693 3.441074183927707 1.4661861843895065 -1.8819343855221782 1.187315385277168 -0.7052767370691725
P 4.830318807048859 1.1818433450436876 8.199240202747266 -0.27714846572638724 -0.28562205041503713 0.6470006270360986
P 8.351864031746816 1.7121751645025394 12.807011633294174 1.3225615822083931 -0.012138178024430707 -1.090056980443626
P 6.135079756091339 7.812223994885436 1.382819860356807 0.8569139737639113 -1.2248164675464195 1.00164497025712
P 1.7535480526054714 3.325581316390755 5.819012546466285 -0.3058401772341249 -0.13538812182572812 0.0581760941200998
P 6.596523487618082 3.96673824627268 5.8909660678714255 1.2779549992426118 0.21298272968175577 0.8865778193769313
P 2.361976089039794 8.5614126600755 10.194066713325702 1.1400826775424493 -0.8542084019072901 -0.026564380752089733
