# total energy = -381165.6583290975 ev
CRYSTAL
PRIMVEC
9.23871498073969 0.00000000000000 0.00000000000000

0.00000000000000 9.23871498073969 0.00000000000000

0.00000000000000 0.00000000000000 13.52179323793322

PRIMCOORD
 96 1
Ni 1.3756354107924667 6.3986785116246425 8.583160640825273 2.1126484710454263 -1.9837379865242417 2.7302179373046016
Ni 1.8261982980444817 8.7727233648816 12.949915922492503 -0.3307744785819593 0.9407625329494507 0.7589955667488671
Ni 8.930382034752945 1.0431525387543783 11.753818306211832 0.5512311480432571 -0.9092878593799373 -0.5703506424815273
Ni 5.617711463188394 7.770849404327349 5.724342862890774 -1.8875270491186074 0.1833021718981875 0.9830345542447844
Ni 7.3528991806936075 2.196846301359366 12.743154406767117 -0.6389157931454351 -0.2590558698907345 0.8930827103749844
Ni 5.908148943689156 1.7880701216273094 2.682561574957322 -2.8439342305838506 0.8905535161952275 -3.3419509993876577
Ni 3.2026189996039607 1.2505432109648653 1.3427030876384438 -1.8041700848575057 -0.08717248135244987 0.6745672238004576
Ni 7.05587449646485 2.2114989032003245 8.141120468074067 0.3062698085723758 0.2584400906836065 0.17776118747530031
Ni 8.670072003560737 3.4048082753223543 0.9252000178061546 1.2638684392425588 1.0004473504045932 1.0217949628424337
Ni 9.132460445892466 6.675128577757678 7.2175270627900705 -2.607715927412922 0.4916149790425211 -3.432024456436986
Ni 3.2061851435576867 0.2809142131756284 5.422360684243442 -1.5026426760661218 -1.3219062080125814 1.0541810924826231
Ni -0.030521018563549735 4.171510747943697 4.623858554915556 -0.5361760534823475 -0.6074285211704313 1.5070724297027014
Ni 1.2374981455175558 5.114386275108061 10.678052179967692 -0.38603211350368355 0.04199897013960509 0.4412830635571884
Ni 1.3981686364482655 7.019335379011514 4.980482189003092 -0.9198394096435384 0.42832907449968166 0.46276128803562233
Ni 3.6917442828737306 3.5899705994689413 5.734781686863093 1.4571660317905615 0.2882018953270714 0.5629054990573918
Ni 1.039512485081404 2.0987865813467987 0.008332396973745462 -0.08130085306302128 -1.595676758405671 -0.39119951663723596
Ni 2.1167558818390204 4.158641218079601 13.063390438325776 -0.5056819986585485 0.3910871594290877 -0.08039556763993251
Ni 8.974044201398828 1.4344952634587624 5.069685676906742 0.12132187354064913 -0.2849335089884448 0.3246845636341376
Ni 5.654379922650414 8.346753936709428 2.868135021917227 -1.106612313699146 0.010986580918490757 0.2810819964528385
Ni 3.4993295675259133 5.835070708782484 9.336879023517685 -0.6887753969800395 -0.437715143700272 0.1750605007146856
Ni 5.469300746937982 5.988802924818769 1.4383404166026508 -0.287321292494331 1.2988742658937824 -0.1822449342782668
Ni 4.492352839200191 4.873717751806066 3.8341581492786414 -1.0107597880741948 0.48299329881178105 -0.08097046630679604
Ni 2.921041446698079 7.143716197791351 3.0838211362418355 0.9846291524254139 0.20686401837852758 -0.38565750377308416
Ni 7.683617458184644 5.837842323254293 10.302984375441763 -0.31903816398163765 0.2119244636205705 0.8409355960577839
P 4.6788085834336215 2.132045955008495 7.447492534873433 1.4353558778940054 -1.0566848327410834 -0.5774445732138314
Ni 1.738005525551551 4.899419856674632 6.244417841095733 -0.17774216131190682 0.8021253080588057 0.5170676147876708
P 0.5560606966354243 3.168500425456004 7.0244905819290775 -0.28494147940824477 -0.1511600399480042 -0.3998445939067436
Ni 5.202532854026462 5.301128419503579 11.284639408424175 -0.8000630262131383 1.1012921870378132 -0.16553919148781168
P 7.539188628058729 5.788830940677821 5.783027179973854 1.8924561109891085 1.343906880653389 -2.185099587027301
P 3.134695967614852 8.426262317190693 9.377323345761798 0.05320358060617289 -0.9388306060340605 0.02761441928315889
P 5.536355339725924 6.1013397110890795 8.960270201345432 -0.30495931729106834 0.7058369804480166 1.4670172135530282
Ni 3.4313049096728387 5.107438761498729 1.7294643336209292 -2.709957644393668 -0.1312378471027804 1.1004956592784465
Ni 5.074659801012147 3.063862740430346 11.704058587727975 1.330862902985237 -0.5747189467525521 1.0608019402332503
Ni 5.330387429610965 1.6817879453483786 9.606909106662522 -0.9277326963486862 -0.045708814891024505 0.1797098265612389
Ni 7.8560765493354445 8.342836721589272 5.406662259875121 1.3276526235780552 -1.5032661685827338 -0.19420467774330424
Ni 7.374841128595421 8.264058199585584 11.330518866647504 -0.24234909865901486 0.4454865601155747 -1.2525365591695075
Ni 4.820142444066017 7.357592447865868 12.907592445636505 0.512963105700994 -0.6116376741557724 -0.9934032990736184
Ni 7.902907595194093 2.8726305805904992 3.3015757988339027 0.7651811267342886 0.0590986059343692 -0.8380045384539181
Ni 2.3481579740902707 3.714000347082349 8.326680056961612 -2.2747462409518566 0.9165676808708022 0.3200491217446553
Ni 1.422540366370364 8.908033583395266 10.512423270746917 -1.20149501921166 -0.735269940997153 0.3246287706955377
Ni 5.910957513020588 3.176094649108758 4.3881595363615125 -0.7648283713805603 -1.0675240894484326 1.6499748576276034
Ni 5.455036171123077 1.4896134365881175 0.4521066765128122 1.1698146573892432 -2.1156026685777434 -1.183008530371698
Ni 0.8218502096383965 2.0837551921946935 2.432989702100389 1.2262673410603333 0.5745425690756879 1.199479788553844
Ni 6.576459102561314 3.9980815917277637 0.5905903935966991 -1.315125437645322 0.29820785749984774 -0.8942494769895761
Ni 3.635083244355069 9.10666595387484 11.599332211039219 0.7534162728888767 -0.6048077957181326 -1.2927560688111863
Ni 6.964688380342366 0.6353150124567742 3.996717957407634 1.8349243353212272 -0.6306741219619332 1.4603611416890914
Ni 5.801802096405882 0.7476134398825097 11.708777723301973 0.18469956646634642 -0.3757047634357465 0.3646145670598559
Ni 2.4526386009625267 7.6528525375475756 7.1811671764059115 0.42584178930145367 0.4962475927185259 -1.2958689034085553
Ni 1.9202946093623634 4.74233398712746 3.8032749730907756 1.3962604545544404 0.8470514791475346 -0.2600524294760489
Ni 4.116715929836052 8.523564462580966 1.1605618232661277 -0.5127725869567427 -0.8919640233895091 0.10601069710487548
Ni 4.285876799765401 3.1756327133634565 1.011379674321062 -0.13563443350857932 1.53277086291007 -0.6495861283750878
Ni 3.1542820432156287 3.3977406584192438 10.488435871364908 0.9792424341922037 1.154336359247986 0.11286063014717336
Ni 1.9165621685403285 2.441080968615087 5.187730585004026 -2.277470324751239 -0.10010821557751147 -1.838747308611743
Ni 6.0562270662029505 8.18721980771216 8.065911785510066 2.6013336780356617 -1.1420277170839621 -0.0690793712961649
Ni 9.024515300930451 4.301804344263391 8.826052922805149 -0.08421031340033239 -0.09706480076549735 -0.3250157217213112
Ni 4.163556214409607 6.0677385049758605 7.001489877299034 0.35320092590627555 0.3710515809344513 0.04075918419523303
P 4.594856381082557 0.5955866906178783 4.113951706336169 2.983893259609713 0.920166453965654 -2.665402740601429
Ni 7.646948998722625 3.1192857911516 6.114947414274167 0.8808781978889927 -0.21474393534723665 -0.21147426345702933
P 7.373806392525946 0.44110429093122505 9.513189734912809 -0.2751319495169907 -0.34381100005094334 0.3080821791907662
Ni 3.0998105801296956 6.756244494632592 11.353059483275228 -1.0760089869909921 0.27259632757933056 0.47841210719900185
P 1.2960161657323286 0.08181343985031926 1.4167864947268904 -0.736023531333726 0.30050565239508886 0.8144663461226619
P 0.9507746284090176 4.841151281762322 1.935306597213166 -0.4075419625510014 -0.4706134370901895 -1.2399198988467612
P 1.4461268055254501 2.672298286568217 11.390339545664025 -1.0850656978766215 -0.1343044018432461 1.017436428763422
Ni 8.218317322085845 0.9145089769169005 1.751409977008705 -0.5014605043780331 -0.11917988749698183 -1.3031101583520008
Ni 2.4854729937385454 6.631974540431628 0.20080716396845227 0.37686690206464774 -0.01917425893560569 -0.2874822435522275
Ni 4.507162499194552 4.0556203081624975 8.12938360465745 1.91751613928153 0.0015444616689844369 1.134533722699762
Ni 6.971303300215082 5.408824119163131 7.7583041533564545 2.8791552585696736 -0.03368222274379361 2.4977354470270208
Ni 5.903132321495183 0.7917430855026367 6.063509945163372 -0.13813148889882018 1.389700799059052 0.8025803933183533
Ni 4.195466735695024 9.19836943803206 7.710491955974785 -0.547163919952419 1.103979504061989 -0.27781052479041835
Ni 8.060824949082807 8.123906894461157 2.890959267092566 -0.4157826052932388 1.402239812066327 -0.5760950011644724
Ni 8.628248341181154 6.231337668531781 3.7193588017278447 0.2294071937863662 -1.5512910332014445 1.3183112915724713
Ni 6.509349077483936 8.355715490168274 0.7572909937465726 0.13375804242147285 0.19529945346937977 -0.797193160864511
Ni 6.531993167718607 4.059084826252258 9.832439071719502 -0.5386929063669302 -2.000308746398729 -0.5057928132047999
Ni 6.9367227903218245 6.218846925978832 12.52182990473536 0.5447581387244037 0.05700161419602441 1.1799982827904645
Ni 5.870482703017285 4.590015294471799 6.142233958749116 -1.9809331700855948 -0.3715961405840117 -1.867521809641274
Ni 6.16811714242984 6.4709991719090185 4.092018997149261 1.4796780968501484 -1.5753601583355064 -1.3938166209996383
Ni 1.0889118936839286 9.05532641514205 3.6212713655705593 -0.04693188866484821 0.19899515715341212 -0.19836035178289063
Ni 3.2762792735497115 1.742846612162309 12.605664775407119 -0.18264834036427252 1.4922014261281398 -0.2627587726636184
Ni 8.552056659351154 8.080614276411517 13.235590845459205 0.7729240039045011 1.27225229243088 1.3331378150623427
Ni 0.4873634603371912 1.9369704897677416 9.604840558395063 -2.3108098194436333 0.6850619526841943 -0.39538218726001584
Ni 7.733598905826248 6.242867584734502 1.4573518441362725 -0.1398441007145527 -0.30538509197457725 0.47753356124879043
Ni 2.6123667429728217 1.7051618940606261 7.15849167454056 -0.8781692835982619 0.34254627440590685 -0.3680554744206049
Ni 3.1424380107061025 2.850374516381881 3.109931592309248 0.8160576018691816 -0.46560544235263684 0.5523284948724939
Ni 8.372077254266847 4.0982385000239985 12.107629675481974 0.3969952973834066 0.547928051811953 -1.1508944234459726
Ni 8.868177767290668 7.4167664168389695 9.444796452334982 0.08472607669448634 2.2811961103422584 0.254804036592916
Ni 2.6045230740176053 1.387193043139906 9.358284202083457 2.458865252324385 -0.3999554084529951 1.3854538508572398
Ni 1.0644477766127698 0.14265684460693917 7.999804160999992 0.5156614784687635 -0.5795706184178986 1.6118312566783466
Ni 0.7649766806768963 7.021645057738021 1.8726062107604347 0.38901922115646553 0.9918992037242659 0.7243430096720042
P 6.373844845957242 4.402607962603048 2.6869157812925324 0.6808132047101695 0.483909125757831 -0.0829846685233474
Ni 5.158279409626593 7.9270575959584475 10.18377631313781 0.011991368033921283 -0.4948674245415477 0.999563148027427
P 4.076315029551997 5.014589676693161 13.170902287558699 1.0768433099668293 0.8779836499500169 -0.4645685164476902
Ni 0.054519504403444635 5.945445635764785 13.354352677833198 0.8128666057357098 -2.3965635660716855 -0.156124325931815
P 1.1147618179909913 9.096845199929733 5.9476416782979475 -1.1840354289743158 -0.46678892113777676 -1.2457743007450093
P 3.4485166355427666 6.372089490125097 5.058556720930942 0.041010895194722924 -0.06072225758072123 -0.23780415960080978
P 0.8422114134197887 7.188838081392385 11.869632988530803 0.30402806372605057 -0.6609113235799198 -1.5723319130321438
Ni 8.172068315266275 0.09126741681365635 7.435472042909202 -0.9119049852878102 0.33343299925072895 0.4284763987108233
