# total energy = -340865.89729307644 ev
CRYSTAL
PRIMVEC
9.29529071049016 0.00000000000000 0.00000000000000

0.00000000000000 9.29529071049016 0.00000000000000

0.00000000000000 0.00000000000000 13.60459753718476

PRIMCOORD
 96 1
Ni 7.514220153177205 3.078962838875127 13.15624417651616 -2.3280660354209197 -0.47140559397418164 -0.9107148216344509
Ni 1.8944825191296268 0.3422795646636263 0.5551305702965191 0.12035385320042498 0.286181522462933 0.6769812325585889
Ni 8.582230478836545 9.343719294121968 11.251152012434423 0.5318913100640645 -1.3225677528559803 -1.2905649746971386
Ni 6.124750784781898 8.307006212683545 8.197926904335446 -0.14200819824540703 0.3963260392305239 0.4347378062395029
Ni 3.7469875048759267 0.12147086055210939 3.358104140583427 0.1393980143160696 0.48751329816932165 0.3022786851351117
Ni 6.396452135710743 4.988122622223592 11.692539826973983 -0.18249638816744054 -0.4837687435252249 0.6729219748875508
Ni 8.336100472978012 6.774045439762457 10.560500749497907 -0.27073973398656603 -0.35744993099061667 -0.47705636450205585
Ni 3.781249946871264 2.771121397203505 3.245226776402639 1.4112271031666017 -0.6659550566514143 -0.8144951424780683
Ni 2.143754333288329 2.9201992715174576 11.890786071656503 1.6617032018081253 -1.2178379793460576 0.29714779166644956
Ni 6.040191524111363 3.061469101535131 4.971759192248391 0.11726055898708193 1.4609272986052066 -0.13292963298290655
Ni 5.6905026831280185 0.8741802736496329 12.121777766871084 -0.9341985065786879 0.7632049768445244 1.1948543739666906
Ni 4.3351191462023015 5.151617492613174 8.190579906464281 -0.09140297449402968 -1.63679486860222 2.028862389666706
Ni 6.331998589103128 5.194775527931773 7.132577820440421 1.6125593930936226 -0.4302039229248914 -1.6101001329198525
Ni 4.075250700498649 1.7944465992289689 10.680725111549862 1.6404630614824265 0.6391050263381058 0.7521708305175497
Ni 1.7678620674583052 8.93123146829855 8.649109166821422 0.5757049648149053 -1.4510432067222752 0.5768671034438065
Ni 4.944313916546971 8.184633708921032 13.613304780922334 -0.6190604489824048 1.0331715801104917 -0.6410891466476701
Ni 4.67918433623416 5.02679103207183 2.602832015804375 2.3443470319691304 -0.5260304804079134 2.232920820275638
Ni 8.570695022917876 4.233419369243269 11.259028841882836 0.40952145487487535 1.3889940028000143 0.8269449382056467
Ni 4.485386817742353 3.1047944520886492 12.85590961171796 0.10695891995075774 1.1286278987382885 -0.0378936897219799
Ni 1.9537771793272016 5.37661000712678 12.752745826453376 -1.6206701951262152 0.5000561678313388 -1.0791069091900254
Ni 9.25470758914439 1.4503814091971101 13.066753764060891 1.5912842857649305 0.055496490405407654 0.6253485959839618
Ni 3.024408777000293 8.348630525015373 6.773538846412282 -1.2796678681686608 -0.41067613730460883 -0.6681564351781073
Ni 3.6619262985006316 7.523543329878595 1.8777472775212696 0.49546931979160475 0.08836984409466073 -0.08358347844961088
Ni 5.809036231778195 7.593908681453393 3.358621888282597 0.4234439784932385 -0.4637344505821691 0.9447891376103406
P 8.660217968891045 1.0448464609137136 5.739453543691189 -0.734933897813973 0.3083480312576431 0.036833366778265604
P 8.179065829714519 7.274243629847406 2.5495012142026248 -2.220052191843086 0.5200670637356269 -2.7263096033891303
P 3.2433500571842835 2.88152156637839 5.267904369470004 -0.1891383189639904 0.5278719044920264 0.5994092504103806
P 2.985052515630716 2.3371707448561505 0.9536931209291554 1.3453096745381863 -1.60850707740112 -0.5220483558317138
P 6.045629269246272 4.5408239322459325 0.7888513628984657 -0.20844370416082167 0.4442030654174608 -0.8152387055123121
P 5.578875535563718 9.14552510306809 1.9361923481370822 -1.0874755928696949 0.26706022825244974 -1.0564832582532386
P 2.4249461761534854 5.882952384449634 7.643947091043546 -0.702368562283442 3.061755005084198 1.208717505102028
P 3.399399399619913 4.012990842526655 10.081646406214286 0.9857480965212054 -0.796359352109306 -0.4313264665651088
Ni 4.078104354783123 5.549056242584596 0.47717561375992085 -0.34978495824619116 0.11402431143797136 -0.896649087570004
Ni 3.6343192847387886 1.3298772588912067 6.6355065661903145 -0.27006121986230264 -1.7476672646747706 0.22360164284818265
Ni 3.975874746246843 8.689358705639657 11.257940363326771 0.8217261130088687 -0.9801659744477377 0.203247761782179
Ni 2.135834745502103 3.929342520357353 7.134699935336659 -0.8084975301337367 -3.2124481326981127 0.893201495341036
Ni 1.5213602499666166 2.2632731827663686 2.666419241306737 0.6277392077033254 2.5390093660751436 -2.052758993778645
Ni 8.26034385272245 5.538766355637 13.407807279864187 0.7171840300297196 0.41869052296865306 -0.051281166772479424
Ni 6.322647526529251 3.5126067466251274 9.051682635446731 -0.8268320667768662 1.873828468585592 0.094604769260779
Ni 5.212018292419388 1.993672567564855 1.1620814574350915 -0.28691685796706073 -1.142944572471277 0.6629468659527099
Ni 8.862818127797823 3.629364894726983 1.267437072277131 4.4362664979973205 0.7226602226529426 0.5225582055885969
Ni 0.24897529438125995 6.526483959116273 3.740284670659204 1.1149079780490347 -1.5697602956502257 1.3082585353221596
Ni 7.83229571005145 8.94802805882638 3.889514058213668 1.2246007519911877 0.33230531340418895 0.6808905949153241
Ni 6.383940674255039 6.70180243944022 1.0698535818307122 0.481327481073584 -0.6832377549912619 1.7057814230742623
Ni 4.858518382196192 3.0450907990946035 7.037862525010227 0.8792463187125245 1.9389077175834286 0.30959810161466034
Ni 3.5249694834275687 5.291957793547958 5.910694179928496 1.3219090362260588 -1.1555267800116615 -1.7497280038585414
Ni 1.91056337226363 4.114644143031542 1.0476778065001973 0.49439434155987116 1.0242010011807652 0.8658776107151022
Ni 0.4207234534978248 3.1598597549590735 5.532744866238036 -0.24859482245841058 0.07606994368138513 -0.24282886650891078
Ni 1.6558445176791905 1.1724336228312413 4.547091746851863 0.47797476255126714 -1.4337808200974018 0.7542184570751979
Ni 1.813474059555734 -0.17422163600613608 11.02145236264506 -1.3955114922035579 0.7331570084192083 1.35824592298388
Ni 2.013676033428655 4.3159522565131025 3.9462720335440347 1.1494600049922912 -0.0409972683479681 0.6186477869250184
Ni 6.8562901730165935 7.41855301996613 12.56591419890875 2.1670722972119454 0.7833464847894057 -0.3316566240765966
Ni 1.3026606473441775 4.081459954772357 10.106379316051832 -0.5639262270124223 0.9276010558668284 -1.2000161206732882
Ni 9.075782535978828 8.274416923037409 0.3743287979126023 -1.2802995882153887 0.29049711911915127 -0.22898964663297341
Ni 8.084058662152296 5.280868511589076 5.264163014911371 0.08288670949290242 -0.4784979820445889 1.5173655840985933
Ni 2.617916413761519 2.0394146937338884 9.127732986892486 -2.0100007768755126 0.23934784993884586 -1.821366137020818
P 6.173077001801367 2.8175978513480215 11.334181268234518 -0.17542508314295593 0.33106295635665567 -1.540103134905425
P 0.4226782531591432 2.868452387472952 8.447217309075807 0.8109377641441131 0.6468610161344408 -0.5638778902729902
P 8.139997722360638 6.825829504970278 8.30002916738737 -0.4249233912522423 0.6904216743342109 -0.928230204810395
P 5.498285364077125 5.527137946810042 4.945883891167973 1.3598963141031095 0.35148394321516885 -0.12741050293689024
P 4.448372969661659 0.1600370222012295 9.100782220663163 -1.1210757974226435 -0.04332051716450604 0.2527936910311066
P 7.456617235910491 9.674259835997772 12.97737117697924 0.005602690898758093 -0.8339044002426154 1.9987897386510418
P 9.317320668167882 4.147865512454042 3.380905488986727 -1.6106454639003616 0.8933225942999324 0.4184526959262342
P 4.991292316396248 9.121552548020349 5.506896521501021 -0.12236188476938926 -0.5027871936092566 -0.494268100394652
Ni 1.2815975183258825 6.655883702745437 1.0740717848088686 0.6475441582443945 -0.7060467824659775 -0.5416149651097317
Ni 7.13731470064683 5.402534573248592 3.2188346571521333 -0.4131474816632369 -0.25749829559562754 -0.5941796265803251
Ni 9.301332767942169 7.611253694140127 6.3497823395169855 -0.46314798195107976 0.5418157682666281 0.7541978882499075
Ni 6.287000086200406 6.060827069751529 9.333665507561426 -0.05775649008417796 0.4866820605172779 0.4266527152385232
Ni 6.43148608684488 1.140532184706445 6.634907949460934 -0.8148129308288031 -1.2770304305458136 -0.5067852590250562
Ni 3.6680147139935633 7.252901642104243 4.546466173779077 -0.4083639442316645 0.023816642803623497 -0.5204732980351101
Ni 1.2271921811043112 5.725081165011539 5.703238161092699 0.13564111837679865 0.153645011153387 1.1751193574316083
Ni 3.9289056416883947 5.304023081043874 11.773391196132867 0.2608222177625379 -0.31035529149565905 -1.6914572931421061
Ni 8.355843670698603 2.228239231632232 3.5598333307395373 0.589638801287178 -1.0381194110340701 2.234277848524165
Ni 7.920415067109453 2.7362268754318015 7.210396136201834 0.4604082144224136 0.8786269399609706 0.0073798374038389035
Ni 7.5749276975807724 0.9442435282724922 1.6587269873652335 0.11529957860596918 -1.000831473216889 -1.2293290107047925
Ni 1.5478053523748465 8.15600421316801 2.76502554547791 0.08075372231029963 2.4098489703266823 0.9170837012752722
Ni 5.980283374719082 1.1221089182835584 3.641868919950024 -0.4229834939170522 0.22501754935910281 0.4886147587636166
Ni 7.06823209920642 3.201353933219298 2.032840134530605 -4.904591396163649 0.07311394637685473 1.675576874466424
Ni 8.147657042003654 2.3721024477911694 10.125656819701895 1.6053225090255514 -0.4895629816094988 0.029064778576440266
Ni 8.482808048130593 4.658260636578298 8.829166386409943 -0.3977810265094956 0.7614273161188111 -0.36711830731831613
Ni 3.5975471142196467 7.164429063994741 9.235522108873532 1.2390045861213435 1.0040862327087612 -1.1413378901057891
Ni 1.7857555023039442 6.782624993197535 10.446821201718585 -0.9515691366466514 -0.940685142744296 0.23924500581239444
Ni 6.309950159256969 8.66770997329914 10.513483309427148 0.5337193644117388 -1.7732818799190815 0.10218129605645628
Ni 6.971737685111574 7.695682820739056 6.028632829965622 0.07767765448813718 -0.061904193703964355 -0.7681893174329931
Ni 1.3239747492148533 0.8452895802243183 6.810693053384491 -1.5097898286338645 0.6372036955503348 0.3621064559260215
Ni 8.212593943734374 -0.03634923478642667 7.9995310054705815 1.3101776067217434 0.27922180331564816 0.20627086487921892
Ni 4.849576312418788 7.122767570499596 6.7949663508310705 0.08573806289876848 -1.3100454520192533 -0.7592655325808021
Ni 6.349074038355823 1.348988376835432 9.408246273527133 -1.5858744276032688 -1.445564442995891 -1.4988191885549735
P 0.48695425971192724 6.894372979542611 12.105411548308632 -1.0285947593730866 0.6187246629095408 1.409849506092785
P 2.75666721996456 5.686180372892578 2.5245647374959255 -1.6179659088211749 1.2372027570259145 -0.7058986869238876
P 2.814567586537799 7.886301349767378 13.160462379494318 -0.0503195741901585 -0.207868548383642 0.2444016103126694
P 5.361858380581311 6.795675581521315 11.256771015740494 -0.8746301600967518 0.7992533858276494 -1.0127572781201977
P 0.4410169324354867 0.9030309973243832 9.609008753437037 -0.19968267013873997 -0.34908664662758593 0.008955666531391028
P 0.5125562792419758 3.548179824627341 12.968215315512772 -1.2046446205842352 1.0321773345180223 -0.453952945715373
P 0.3092682688138589 0.7158926251824029 2.437535718052152 -0.8573068383269559 -2.542637192635718 -0.5631710940139527
P 1.5677251606211864 8.152750861377893 5.005607993801843 1.04101832984842 -0.06805041581101828 -0.20123407378625988
