# total energy = -340860.8094551906 ev
CRYSTAL
PRIMVEC
9.42337164131914 0.00000000000000 0.00000000000000

0.00000000000000 9.42337164131914 0.00000000000000

0.00000000000000 0.00000000000000 13.79205692607587

PRIMCOORD
 96 1
Ni 2.8686345799556907 1.2583311095149854 7.36613101881845 0.6505726606580732 -0.11677796292370857 -0.6618441198068343
Ni 0.8594416649615982 4.236012948195541 5.593148111264813 0.6573806847188421 0.9128177269100667 -0.0795699864148436
Ni 6.94833263636692 1.320610173886972 0.444137649031367 0.13986492665015915 -0.14509789291432432 0.24635796270809185
Ni 7.886891046472159 6.1364149201783285 2.734661560424298 1.016928635889068 3.0982561853340256 -0.19290627064685487
Ni 8.861691744605038 4.6170469878204905 3.8700515917999745 0.2439791780632701 -1.821879843432443 0.4114037594992528
Ni 2.9803674996498426 4.258035368143693 4.36260652525308 0.3670134063093357 0.2868212129294609 0.46755459565920765
Ni 5.856785784730554 8.123219788397574 2.548441598162682 -0.22163192071632154 -0.17554952453596218 0.3496049810249011
Ni 3.0871719958810577 7.346093160976023 3.167360178400868 1.7011508662807864 0.7549831031553643 -1.0303510799425608
Ni 8.30687188183768 5.413548067708194 0.31343453952222844 -1.1025047192886754 -2.362266335451712 -0.2952022379043045
Ni 3.805487359761138 1.4656829830875684 13.630579407268728 -0.08634098659009001 0.9747250059378245 -0.46140297423551496
Ni 2.963942562563994 4.553750199291722 7.3959220664967065 -0.39503457411260995 0.939655158817885 1.0987622215271076
Ni 8.790875105362266 2.0874841727661217 4.371254353574183 0.22338129930726044 0.6625660855745233 0.4094265811682239
Ni 8.919588941079768 9.406654760446523 13.798126015927753 -0.3912666224297455 2.312358651987992 -0.42490976440548756
Ni 6.415855588189662 3.2108914445328685 12.618849457302383 0.5924410466226636 0.24702439264749715 -1.1145120281621967
Ni 5.234438039486321 9.056416299936062 13.697402421533312 1.821610134710824 -0.8363101814706307 -0.8182705503601003
Ni 7.464054929444557 6.406582990316757 10.096640641617949 0.5795701041972663 -0.1788274239562856 -0.09141942955426191
Ni 4.259147326018696 1.3813438052801414 11.234665447755072 -0.6033579506454835 -0.20678534262179227 0.3404297422835363
Ni 0.7863653011558963 2.8860301243392117 7.365661734901711 0.9762406712514025 -1.3587907397437566 0.12072949137228885
Ni 4.866907691682382 1.0360054981171507 1.7992562105307188 1.2800694744824537 -1.3408246421836392 2.5348295236658407
Ni 6.728702109310194 7.800346799658371 4.999096866927858 1.191947741842857 -1.2537763451138793 0.5382946424872471
Ni 2.002494782302973 1.9247802348864536 4.902607193493069 -0.8676074489220155 0.28124937526863825 2.4064306886737525
Ni 0.692599924514864 0.09509218739357812 7.265627931324646 2.1399011361137923 -1.5296662558428171 -0.30489915347709423
Ni 8.253526173953004 1.627369196810454 8.87680212132171 0.07848395243951645 -0.15681183891714284 0.5998946746872313
Ni 3.3895020340481716 6.708818794765649 9.007482614738475 -0.3442367747344523 0.6796950319453262 -0.9524767360625854
P 6.4319884007490264 2.3051640618556815 2.9724914454809657 -0.07889892848974799 -0.39916299445868675 0.38331497168283657
P 5.277154183955714 0.6409230957798754 6.822999906459172 0.32215331257185165 1.1819672335913773 -1.0896304344291685
P 4.308101742634292 8.648214679348117 10.560550409406359 -1.5813559709076248 -1.0324167042223382 2.2943503883360292
P 3.3761585395481366 9.03104858299108 0.9688366461066974 -0.878335891083113 0.03572393576417074 0.9306015332560489
P 8.336451845987122 -0.03337852533091467 6.444697702325437 -2.3625072478179248 -0.01764650943716961 -2.213505134753188
P 1.0117968559062813 1.2059183154406938 8.95169342654034 -0.7378765253820647 2.671386211878373 1.573042308835607
P 8.748083573918297 6.547057194068188 5.133679578616139 0.2972223536581268 0.12470287419774007 -0.1259521732238089
P 5.05478145569877 6.456178196216252 3.837847218598088 0.23617408019655456 -0.44135299756317536 0.25731651860212457
Ni 2.1651233332080646 5.051605779394735 10.31256966822297 -0.8371797285597775 -0.16926214886535365 -0.06963652935121556
Ni 0.6580076688932682 7.063231808993283 9.693360848132665 2.003603615099917 -1.8522566559520877 1.0420807096746636
Ni 5.6002439102468236 4.07608890500338 7.411520573873761 -0.2957056599032843 0.5479843589711854 0.162320684550514
Ni 3.1394057458907296 8.948905050818192 12.39692151219544 -0.0422815343770304 0.4479190808164673 -1.2899527950344367
Ni 5.650592985892084 7.599563016245764 9.348463554770946 0.41090059461058914 -0.303794864669322 1.5778173616267472
Ni 7.448120007693455 0.1527142214111036 3.648178302249599 -1.0411170602098136 1.3608080272841017 -0.9302726891617206
Ni 0.704193498867543 0.19335439706809684 11.69482282888394 1.1080652440955885 -0.2268846844748286 -0.2704515133221858
Ni 0.42881995813461027 3.3849882389454056 9.678176026778598 0.8274820416560394 -0.8860741402676353 1.577041145582355
Ni 2.274368482741193 7.355808657324566 13.731468853007238 -0.3996785006425245 -0.2787070684627588 0.42531831269781595
Ni 8.889010099517186 6.931690961729164 7.751936111596908 -2.219517916606171 -0.03142427994755233 -0.9308519587039582
Ni 2.4840856226411128 8.845295077634656 5.145954462751553 -2.1365473891502105 -0.053811132283184744 0.7801565170971984
Ni 3.366169765416754 2.5778010554114883 2.464199481085022 -1.0936166727704262 1.041822313806954 0.4623671379209973
Ni 2.348483302121686 9.210893634215072 9.597313130836328 0.4936736613437626 -1.1268052437072529 0.00621204234798285
Ni 2.3515835914511434 0.5892179969294207 3.1962399860239312 0.08084448225189303 -1.6063499218488013 -2.5617595152874655
Ni 9.312298538392248 7.340995116820291 0.22433750128184418 0.8462498091818458 -1.3861159099212708 -0.39111955532891995
Ni 7.885939285918131 0.7650816735585941 11.937232472646128 -0.2509044444281937 3.594552629012616 -0.2553586235448054
Ni 2.4409736965551936 3.3037210803519703 0.2747402901464904 0.776800713251088 1.0567537383058059 1.3845305677120219
Ni 8.715620057991304 8.709306398870524 9.634276306808355 -0.6478128385247488 1.817621068156089 0.42125725525456487
Ni 6.916811457622133 5.222960372607053 5.594831125472233 0.5115417998734352 0.6722851126345003 0.6455515532943978
Ni 4.940438262009907 8.021843154335864 7.2383614049575185 0.485954438322634 -1.1413299196859894 -1.2510188369734003
Ni 4.790041247729847 0.4700585179023043 9.004047795709335 0.287189394902157 1.4680891064609685 -1.6111964513078252
Ni 9.106699411978568 5.279076551807414 11.384984248049008 -0.060374644433315375 0.01644349026800394 0.5582021800444517
Ni 3.7230988199208777 6.573555715631817 11.444055596652767 0.10093251125101972 -0.07370298611110532 0.8149512561788803
Ni 4.107044681438843 3.817002720127694 11.60327194462109 -0.0626708966666598 -0.28980934902350736 -0.7504417636415851
P 1.2756512669239293 3.1568201370178945 3.392335641955065 -0.7621194570898294 0.4576301374566441 -0.23986489878458048
P 7.986062611527506 8.545047604640216 1.6643154107132 -0.603866771961102 0.32242122152125763 1.9335173998057926
P 0.286410193810928 3.0523620603703723 0.44362124825551813 -1.1318253226296635 0.21047333299634075 0.25439188875616187
P 1.5542155613558113 7.3534810844845175 11.673721072362802 -0.4176235151567194 -0.058522164605608884 -0.39696444414547116
P 2.885144327387938 8.359718151015784 7.175979625832671 -1.1387719291508258 -0.05612358246644528 1.1110286975992865
P 6.744175285842015 9.138390211416151 10.600547911105089 -0.3815609651062074 -0.35157573159802674 -1.8350845150481752
P 3.7707810813404956 4.975116270315083 13.296894984038076 -0.2070064574936628 1.3396396207366026 1.706974672051415
P 8.164013565015265 3.4586224663629737 6.095868978239555 -0.2500189564994469 -0.5383049268998923 -0.6637917304515084
Ni 0.6213026933091667 8.167264628293877 2.3571867283365395 0.7699191556399063 -0.7813981028137833 0.5547029086419415
Ni 7.013815647158406 9.107820793225393 8.005930848677135 -0.5328233349600308 -0.27286295097715585 0.0828784819627863
Ni 9.419357465662658 0.9419121881367107 2.32363104361537 -1.1237289187747743 1.3869324922852952 0.39231280430607274
Ni 1.1786188072721893 5.2309231217966925 13.52738783179409 0.06781284587891548 -0.31099601040345154 -0.08056474622794513
Ni 8.338581528018906 3.915816197053803 8.202785086039945 -3.142447535139259 1.8489939260404158 -0.8243962036418641
Ni 4.60280827299736 8.638395525909532 4.777996293866892 1.3099238388397247 -0.17589559502147126 -0.43520497568390853
Ni 5.376005354369111 3.1052271762921224 0.9066565271388419 -0.5308507846146922 1.1272752413651361 0.33513738353634537
Ni 1.3815228493447604 6.360370774901379 4.104088569698264 -1.9886891598819298 -0.6117590302249851 0.7168531290528622
Ni 0.3763685282358485 2.9139986919070817 11.973533185579063 -1.319016288059296 -0.03136385902326211 0.9313731213147507
Ni 6.740010155496664 7.1952626715921495 0.5785356626319348 0.2856523894323403 -0.0920740324191253 -1.5893842405287402
Ni 2.7799983445974052 2.7702263080179304 9.27951651249767 0.54633036830753 -0.42041676163114045 0.588457122274251
Ni 3.5872986085931875 4.909294018138002 1.9413842160369215 -0.03669838386229809 0.7531599339036965 -0.2793336463031641
Ni 1.6572789789736688 6.565479885980312 6.959927153056781 -1.2280226331885433 0.16921381212592146 -0.24608491155236328
Ni 3.5576903743282786 6.5572438590078335 5.783767845830149 1.066485620881589 -0.4612335385371863 -1.3706250133745235
Ni 5.42543093957581 4.128134187576611 4.015419352538601 -0.22880349876409628 0.08725527087424327 -0.6432763841069761
Ni 4.379248199890836 7.001932775290791 0.8961240244533267 0.16076465291730374 -0.8945502960594465 -0.14554886440881384
Ni 6.209983183993142 5.264611676060553 1.7790515590070424 -2.746654742704386 -0.7133587427463585 -0.16541654986701834
Ni 6.44325875344821 1.9758737569056568 5.347290455752933 1.7520836485749114 0.45500632668055185 0.36964184507111825
Ni 1.4072863479062696 0.9811708974845902 0.5652326886307343 1.8403588760732368 0.3582888819521442 -0.912584527853338
Ni 7.788143533148804 3.4803433384128195 1.652812300730013 0.7261674644752527 -0.7919661081376167 0.28437172294770385
Ni 5.251513189227891 2.725861073479677 9.588845288917026 0.7833382572592896 1.3507529570409447 -0.16725925950271195
Ni 4.3272783042921805 1.570178753222379 4.723821329261875 -0.6469201515071504 0.20982464366874834 -0.418042347861693
Ni 7.6241108998422265 8.01253286297567 12.213031949785417 0.02373976681910105 -2.0199321770566114 -0.13521431525202518
Ni 0.062230062838512276 9.124773439133277 4.621360065103447 1.0900107005867228 -0.6434867003455692 0.4339929576536784
P 6.357760500906669 6.331572950613167 7.784140484798794 1.1933140260627642 -1.54473574858143 -0.8454458252233117
P 4.204520039566221 4.712119386133242 9.47511555673378 0.0873563152284818 -0.801522127257168 -0.28589535868108185
P 3.764863203836242 3.12050246201568 6.205860458820991 0.48664477952143925 -1.1241066138291673 -1.2837561793054215
P 2.312721606056973 2.297465167077059 12.25244991411709 1.8122592896235432 -2.0328388578159506 -1.977714406037981
P 0.8538451244364775 5.108372171250818 8.39599719019353 0.11168435045088507 0.6696592449758789 0.10747571168617619
P 1.6282173002744393 6.24050548532479 1.696229544062967 -0.08337650464512737 0.05337867273145646 1.043643426176093
P 6.9435267167376695 5.831615958593835 12.378012574297296 0.7597458146513303 -0.03596587657164774 -0.1740847670649776
P 7.827797081776028 3.470043593011309 10.784174561441274 -0.08372977421948805 -0.42285545297962013 -0.3824544234547543
