# total energy = -340858.03681762744 ev
CRYSTAL
PRIMVEC
9.39766841245391 0.00000000000000 0.00000000000000
0.00000000000000 9.39766841245391 0.00000000000000
0.00000000000000 0.00000000000000 13.75443765250934
PRIMCOORD
 96 1
Ni 3.2753882417991593 0.13140854017393475 1.8959392354605622 1.1557134421011708 0.7432537305335781 -0.6981660941663201
Ni 0.8272946247783257 5.776530758450822 0.7755980496628782 -0.20395790047532616 2.024885664407145 -0.15494238980857186
Ni 7.687950773440138 0.8613038477714712 9.512817320610734 -1.3869962556436952 0.5433787418783739 -0.17039754802137752
Ni 7.087157818135546 5.406572737623732 8.087801838401882 0.009905946259802295 0.35500352633265314 -0.3036539682160835
Ni 4.691598108504798 8.989180164498167 13.224699077113982 0.5765899385230199 0.6209005875149372 0.8511899267959405
Ni 0.6712453974651974 7.099431173362008 9.722118437197029 1.5790239803403385 1.098023029368238 -0.1372107768567637
Ni 5.4053228476963815 2.0216546679804455 9.973879160405591 1.2897643331727142 -0.09241418936736343 -0.2350142555604985
Ni 0.12324478543792505 1.0770949943113604 4.418489641243835 1.1609692911834715 -0.09930166051581607 -1.084838412357164
Ni 9.272491680587132 5.167242310707697 8.816484846746574 1.144628130821287 -0.5287347667129539 0.7951115957451339
Ni 0.15865426105644803 1.680594478180441 6.703418116267407 0.002528937069440806 -0.41997376055645086 0.24622452245402113
Ni 5.574903778065087 8.511816188936583 3.8794393688166267 -0.3111639034398835 -0.506990947277959 1.1896219219231576
Ni 0.7072779385136703 4.76142278640114 6.386542826678202 -0.750421709036927 0.7123218168414119 -0.19150450520332182
Ni 0.9993386840940884 1.2896608609785678 1.8863799269334884 -0.6533682211253393 2.845829904944667 1.0854233383263565
Ni 7.411913052868234 3.3975391386089373 10.725146645993958 1.0664727653657826 0.39907326295835793 0.2453467478347581
Ni 3.7845915186679857 2.5602444546449457 8.617609503734736 -1.5061074946862707 0.29877118620248544 -1.6161429966798233
Ni 0.9998273628626765 8.782393864036377 1.1493301742104494 -0.04233269932994 -4.037351614993698 -0.4346928119341804
Ni 2.869493536143588 7.584162921126922 13.605188125404148 -2.4246459261301982 0.03758104357756754 -1.3827968728503668
Ni 2.9703023275021425 8.501149835045284 4.074436293986229 0.13996237145997187 0.3586645201240081 0.8830500087293309
Ni 4.632796895907569 6.141376447544991 3.01868622442668 -0.12747143808181272 -1.2521043567280952 2.24578019273681
Ni 3.87999665056619 -0.20967326426391092 8.30073421414553 0.972186555786687 0.044552332689078114 0.3539419178373581
Ni 0.9394078717279309 8.079608011126266 12.284680356925316 -2.3386198996773655 0.5654349503474649 -0.9718821371723906
Ni 4.238113608923645 4.252651802289142 11.42641665495458 -0.09151327481964884 -2.0655186074371588 -0.9805356990823306
Ni 7.398474386732062 7.670583881818007 9.203204549336238 -0.1492371118936785 0.25587618661117223 -0.1626955513914295
Ni 2.8157858599420282 2.91455535720859 1.7671291506619085 -0.3895329275680904 0.08332508258190166 1.3464569007687521
P 0.9046881849866073 3.405245226882827 4.804617290710016 -2.1877740485356707 0.46929831782319176 -2.3366414357947565
P 4.593768378100906 1.869929308002459 11.870121000795931 -1.7232654387916388 -0.07245163020250747 1.3221304082082455
P 7.87955044140119 5.275644418316621 5.819805142943026 -0.45138029989219036 1.0109917015793428 0.9923046666928007
P 6.187208877437381 9.175225810300843 7.8409927467927245 0.013759772788253721 -1.9366685438402644 0.9577644668240859
P 8.480070864315609 9.318051578089348 11.186085376329803 1.2288443577588901 -0.5405759823222562 0.5463468233677623
P 1.3369499295080958 2.6478495215829936 0.03585868417887899 0.437721314347859 -0.2609237763374087 -0.12077885655298552
P 6.46851869010886 4.857429369091453 2.5803742608433256 2.810224239925915 3.134304337206834 1.2285337684970068
P 7.863781153445596 2.1063934459873517 0.20151608789593992 -1.410741678889751 1.3499980811527912 -0.24051975875975998
Ni 8.058284701012298 -0.16994743944514706 6.217665781689635 -1.4462936078524318 1.1950556913442192 -1.4747978859397117
Ni 0.4436207065905743 1.8773440685489213 9.874366307550657 -0.011805734385676442 0.3294403331515681 -1.764620861809974
Ni 8.720726362508007 0.26273438086395456 13.598022403076293 -0.7499938774708891 -1.6829448847957207 -0.11642109380492209
Ni 5.542519411977497 5.897375379321489 5.2627508169607955 -0.37705999191206024 -1.0058865191422934 0.47687664439108196
Ni 2.265524168843173 6.043584307815606 7.684027246788493 0.6742093262404066 -1.4691964805925342 -0.31663341119488697
Ni 5.824975740221434 3.313044699986325 12.881058287509088 1.332280866378686 0.6164649203410866 1.1984780867622071
Ni 2.1311187121441852 2.976100689044813 11.611922874578083 2.975455413255005 -1.5047599795194406 1.8549300890191924
Ni 8.451088454270883 6.535824792813248 11.125098266010006 0.6888319612495879 -0.6771861494805433 1.5143113706533016
Ni 7.172028163503226 6.683048669519047 3.805234437573383 0.45165257971697054 0.1738986191961005 0.6872021389556487
Ni 3.2870977369080205 7.289038535574202 9.639907632050702 -1.4594481429565187 0.33471032330125583 -0.18810190727967602
Ni 6.719699577163156 1.2552372007989852 12.043839724660971 0.9211059350607879 0.11255569731224485 0.3047754834150364
Ni 2.5430091303835876 7.34334766256787 2.1965152085836284 -2.295139202785912 -1.6805020796821832 0.9186376760259534
Ni 1.561619993366486 5.584912295152517 11.912360701972336 0.30310118103640704 2.080369813517378 0.2990928312079623
Ni 8.049291132136549 6.054776931149998 1.79062144269492 1.3216007609570206 -1.4170195414786628 -0.3334440549943225
Ni 3.3894571435899796 0.4811315009140262 6.0071410886481456 1.6423384241282684 0.7674449830678008 -0.015149454046928749
Ni 6.760353891642238 8.29127170160531 12.035394979633024 0.2270430644295638 -0.6777085976429167 0.6279060722984928
Ni 4.003622981350358 6.383432198362766 11.756358463002341 0.9484113077439603 1.8806166951520191 0.5385116435940597
Ni 2.412484910827425 4.735015337560128 9.567284328437331 -0.436571517014132 -0.5305425093456542 1.0912039495638755
Ni 2.20986177756726 0.7240245840064402 13.060471998561903 -0.6822669064375605 -0.19697735539243497 0.6484116484510123
Ni 7.034305329779015 7.728830631966261 0.7661195610859939 -1.8444731553519267 1.0903608848372899 -1.3533615983083853
Ni 1.3350422027768767 8.92281382865645 5.986522603681178 -0.4408014959350795 0.6969255368909998 -0.4828434034974782
Ni 2.4375578907234465 0.8641062325559515 10.6756857762448 1.4854062575831775 -0.32243587680927693 -0.9552640689997354
Ni 1.5360583347018766 6.436322277393804 4.619634521229021 0.3652516864232226 0.1607127166334458 -1.0538851585087592
Ni 8.314963224213209 4.157218477385057 13.517380068823762 1.7334446933174859 -1.1901914212733824 0.16526614033208312
P 4.939846922947565 5.387589446997808 -0.18087786782485568 -0.9677233778090106 -1.4881146576532758 -0.07873334944616117
P 7.426479439239612 1.1345899309694787 4.279982102189296 -2.0100964219131123 -0.44240869252119935 1.418867907541311
P 2.5648117215975192 5.157750665394736 2.155733085811224 -0.4083379760897355 0.8311049831206073 -0.17351706748696566
P 2.481914886641445 1.4335203723160106 3.571917578811571 0.547499963135599 -0.057891730110461594 0.12213897012530577
P 5.473954021677132 8.999207476922852 1.8264660303708589 -0.10876254881839978 0.279471457432609 -1.0982983945168117
P 6.429151856231636 3.4273109528183063 8.743310839751679 -0.12143680185195858 0.7141051339940798 0.6255414287210582
P 6.394023370905051 6.594127928973261 10.852113847974916 -1.3962997924328082 -0.7122904493828441 -0.5062502124571926
P 2.139736374274864 0.9965005881688266 8.465223487652294 -1.2196593488255123 1.6034854558168128 -0.3932962512652646
Ni 4.00288056552885 1.8869766788912834 0.2761006849517025 1.505416382156517 -0.3697187210556407 -1.510881004815514
Ni 7.953857807232465 2.0164765525671364 2.424576891049393 0.04369872643953119 1.0912564000683658 -0.5471523499881931
Ni 1.2806109060910609 3.1710271316997143 8.031353802028777 0.7906782425641287 0.24559460217950607 1.194739445655381
Ni 6.5447901686831145 7.29978946848314 6.697695875840614 2.6666301852506265 1.287292988814086 -2.207486953583566
Ni 6.6205353778142735 1.7293213900098532 7.504146471604931 -0.5357075984863613 0.49115140914254124 -1.5350540025172918
Ni 2.4068557073200347 2.7288104368019686 5.924297820403244 0.6246726529628597 -0.6725941592344868 0.7846659749317777
Ni 6.893359095715848 5.597486375775034 12.888224949603805 -0.597108627301662 2.23367183950905 -1.1200069898384968
Ni 8.504673960780295 4.568573228512737 3.8641719163656987 0.24006158817641884 -0.5632687959340816 -0.057337400268888346
Ni 9.24665748953235 1.8880950014578601 12.028750827913951 0.06456194304178557 1.2214480652948188 1.213996237002464
Ni 4.9294906921209485 9.334130989109623 10.874973676909349 -1.2408208133944758 -1.256998451595603 -0.7831603369205287
Ni 4.444505207303115 7.014880348727637 1.0998401716885495 3.254379739934892 0.8494199793797113 -1.1252404703232943
Ni 5.196403276456332 6.925348759721116 8.260117490340956 -1.7872949063687218 0.6119410643288042 0.9065609473670773
Ni 5.348372975818611 3.7446044386613995 1.48048616104478 -2.511617604325752 -1.7871182715815415 -1.7268762960713484
Ni 4.907434363854096 4.498259871847808 7.3924467220749 -0.04221802812894664 -0.10737286755972476 0.8975489736764541
Ni 8.22360848749311 3.443860247269915 7.639022751502115 1.4179793342887708 -0.217342035091716 -0.8827304206063831
Ni 5.756880233352403 3.6660117359363515 4.03710593490041 -0.2729637382210783 -0.66257097067053 1.8928338060435013
Ni 7.62499579130991 8.972969186117119 2.741012369746869 1.0763997946715076 -0.22363249608611807 0.024014103526410254
Ni 0.3660758439174029 3.761200721456142 1.6643008003154778 -0.20482847600573756 -0.6723082525629518 0.8375168001842221
Ni 9.125681301300908 8.977226330005012 8.181607487099823 0.988500205345046 0.352657908918612 0.13932396654502457
Ni 9.350586306874966 7.2068653211023825 6.150200858385457 -1.6491328213422822 -1.8054252974208456 0.8487008418254995
Ni 3.348539694389351 5.1684076216174075 5.767840734271718 -0.48479769901037156 0.3719470961655272 0.17258375703941892
Ni 3.2624006637570675 4.08667017900446 3.751688401272202 -0.06556827281911289 -0.9578020049302406 1.328023633764229
Ni 2.558628055641154 4.619997271238011 13.798864678131697 2.344908046678923 -0.9855426653786188 -0.9341882221660428
Ni 5.2519059073655905 1.493035807728868 3.3817209827764847 -0.0814854582700016 -0.67559977883003 -0.8661025822417149
P 8.974115701689575 7.332098653221717 -0.024184900210798825 -0.6985414752278679 -0.7173529515074162 0.5056796846657033
P 4.496493110145989 2.7642490451932344 6.048555674519126 1.3210047792442345 0.2659335708471743 -0.44984329442237364
P 0.6576450914286449 4.044775372266655 11.032145925623368 -5.094493846987175 0.48578885927904725 -3.109860345231857
P 4.414601825732971 7.797104694539198 5.658781729625788 -0.1508427658179015 -0.5249025374510573 0.11553432032459456
P 4.442879410630696 5.4317490918746465 9.514646106925488 -0.24684878630158133 -0.5540107676709233 0.5294693308861332
P 1.5108067991019476 7.872915687350744 7.8448439113959445 -0.050408534359538994 1.0547251379115512 0.3636956547900123
P 2.814648742038198 8.33170986970598 11.498104890539596 1.9061341226968336 -0.5629810894903337 -0.12030140269593474
P 0.6252626048747802 8.334905077039055 3.5041077610687923 0.388424267884944 -0.19541129645689573 -0.03301245037027863
