# total energy = -340869.0582568157 ev
CRYSTAL
PRIMVEC
9.35210715018438 0.00000000000000 0.00000000000000

0.00000000000000 9.35210715018438 0.00000000000000

0.00000000000000 0.00000000000000 13.68775413977040

PRIMCOORD
 96 1
Ni 2.741196082251979 8.503627738711018 4.280571598375074 0.7352519432750241 -0.0027806480689306946 -0.11423899855193873
Ni 7.809785568405137 1.7690352076786944 7.637040929619381 0.06238730398796997 -1.9551930850070132 0.004597903783327565
Ni 6.411514642671376 0.015102717591445946 6.420911639783201 0.19408872099073024 -0.42453978266057857 -0.4245115005258044
Ni 6.364623178182238 4.406675409139243 9.459291496539418 -0.07750513346601491 -0.6849375112911882 -0.4147132834884599
Ni 3.1061714099650075 4.32822058353107 11.55929403004277 0.34296253600771903 -0.31512417363921214 -0.69280328719251
Ni 3.249791717136867 1.1427433062210486 2.7248214781087734 -0.5911099865160658 0.03657239980739508 0.6698302233361044
Ni 2.6209840988966966 0.8105957444932166 9.070902233745615 1.8557883232544294 0.6916866570895636 -1.8289915147765599
Ni 3.301583685693079 0.5523896815362115 6.448301155548925 1.763489833529324 -1.1618807472541475 1.720009393748186
Ni 2.9276022789407525 3.77100334436237 2.956636830327466 -0.07883387957976745 -0.8961186689878309 0.5090120914730459
Ni 1.9681883262060593 9.26804090842556 10.99630373522406 -0.3729166591676481 -0.3297897460711869 0.9255734839138383
Ni 8.26422315166326 0.48705586204655804 0.5279395330000319 0.7735732074527257 0.8358394124817993 0.05678538442016026
Ni 0.2364016254906257 6.341719868143565 0.2292902833291696 0.984502911260195 -2.6273185321351975 -0.20420138394469992
Ni 0.80152981196913 6.673411047049885 11.745475776163586 0.7518980364721374 1.4500492182401221 -0.11536514173658195
Ni 3.421402880554436 8.37740235055587 12.796284129749207 -0.538986012127317 -1.048348030740614 -0.7071181611532854
Ni 8.110689611073273 5.695657612491656 10.497384725450244 -0.0011451693480367374 -0.31937137895134027 0.2824904467645909
Ni 3.8572671793140683 7.575562048634399 7.859001966694036 0.05734331380615931 2.209644109135885 -1.1176287194143075
Ni 1.0579758083890678 2.6922565063302275 1.5602531597859493 1.2353528483013692 -1.1651403918420256 0.2869901344071573
Ni 4.2783177405885 0.7327301016259314 0.5165664356794812 1.6131497183794539 -0.4905667402836648 1.3188926179972382
Ni 6.590018308946643 2.6568026686999278 4.497098126073055 -0.9274028238130931 -1.4321196303448949 -0.32410323720937084
Ni 8.199216655918542 5.971245501515576 6.851856730261762 -0.09472509688872718 2.160883137682098 -0.7596995347944271
Ni 3.447766470182454 5.991633094771724 4.1639106100470205 1.4279624136434117 -0.7289391136831188 0.0995680268033253
Ni 0.41343420533507075 7.885481522448831 4.091639397586078 0.46426898292940044 1.271958415339545 -1.1434924745549468
Ni 6.0624846573903355 4.966268083485493 1.6174132377591475 1.584679121743587 0.4879421581766242 -0.32806659273249306
Ni 1.3414381715055002 7.285852478043147 9.207231638301652 0.16068340605740714 1.4399730649510425 -0.014809554209006754
P 4.990162716865978 9.21830640340896 3.5144815958757465 -1.3930319203148138 0.2903497949080096 -0.42659692229992335
P 0.28902780199108064 5.642182264675762 8.33612963195127 0.4974881499938464 -1.0505990315583196 0.06103053284975939
P 6.565356802792303 1.8442822605864744 0.24459313601037774 1.8122672600433434 0.40439647494348413 2.664241373303476
P 8.475272150292374 2.591440792889279 5.678762095988649 -0.8852130778189207 -0.6035731519800832 0.5495180220068924
P 9.671762015432268 4.040428194874455 12.142967444698767 0.2066752994064892 0.4516862611683834 -0.015026555315819283
P 4.923809517713517 0.33091121318266564 8.086547146857335 -0.27302673024852975 -0.584362126269271 0.2924341882408641
P 5.634326494797246 8.704576461782041 12.817554561905986 0.6158074892627459 0.6393366827329376 -0.18564393265748674
P 3.477375240938859 2.2475544664572658 10.738617649416158 0.5626026231049923 -0.19479680280134837 0.0966559953628529
Ni 8.958364589393083 0.3180576773242947 5.536710137160393 -0.21094050244074636 1.2402006633119738 -0.4466720957832437
Ni 8.259060788600234 8.522434825884464 7.451394124018864 -0.99761373761054 -0.4129093975105018 2.078306760340763
Ni 3.0486559519258765 3.731892832895761 8.865120341777903 0.24213878242042167 -0.6463069434031837 0.4758592588701612
Ni 8.42714620767947 8.03355343255185 10.520352565027205 0.8986676606619297 0.2024941714456061 -0.8929351290535267
Ni 3.804680281663006 5.627172132943599 1.902747892696626 1.5832871264920667 -0.319012967170657 -0.12762519005085762
Ni 5.801140027324723 7.277660032312696 3.2065616025375365 0.799390682736462 -1.5872977903133567 -1.158608761371095
Ni 1.4274494995682458 2.621835140633536 10.453227817047388 -0.43254696923577113 -0.420753576145269 0.30835882989092056
Ni 5.383605858281626 2.340289959451741 2.2355931216065263 0.343686301547621 -0.18016465471047036 -0.728971509582951
Ni 7.525434755123872 4.622241475448506 5.031590680446749 1.2277097299338144 1.5291754322493276 -1.7058760396705974
Ni 2.557857376658626 3.9362924834491344 5.811656471644236 1.4591455241144355 -0.33400815502790865 -0.7627722601824799
Ni 4.441175331855724 8.843343025421818 10.092214041858812 -0.7089886387031209 0.6067698045405099 0.0727547632652231
Ni 0.32212397344712623 1.7491432760934535 12.48194485016741 0.30948291619303475 0.09373007996530955 0.06868290718869462
Ni 1.6023526046491934 5.998647175020399 2.27520584121894 -1.4108972306310088 0.36008196929682507 1.410070106744023
Ni 9.011101120756116 3.262230019444516 8.965478737186638 0.17666255509448284 1.5709923682851137 -0.2358948583932389
Ni 0.354319536999242 0.5142227976657241 9.208367919301937 -1.3395452612505834 0.2650915345618532 -0.3573378308927846
Ni 1.1527874691371507 5.0190046148485274 10.255672973606021 0.24718354393318076 -0.86877601530882 -0.8054798263533354
Ni 7.0485427629629935 0.32432826506660967 3.662514227129372 0.7940312181967615 -0.2078783185756549 0.9191956054119524
Ni 7.407326995843191 0.541623535959846 11.867364592303652 -0.18173919828644183 0.2508136844866003 -0.4038092349814465
Ni 1.2141185868315605 5.757362814465996 4.756699523394197 -0.6557225802901288 -0.8118065399023116 0.022738065027464064
Ni 8.18960268992436 2.430182411918753 2.5096631636646336 -0.593643551571197 -0.3707674740351292 0.5668678261392496
Ni 2.506850985090265 5.688802518061952 7.619398179767215 -0.999049184505486 -0.857469074936433 -0.06726777200872286
Ni 5.513833948232017 7.134133246210818 11.226613398216038 0.9303608780001527 -0.42945238947084746 0.44279384377476005
Ni 1.8659510925013796 1.388984283484515 4.988022954784783 -0.7316076616542174 0.15333622166371655 -1.4943999764413554
Ni 4.944767589496557 7.314881418165661 0.6515893508878651 0.2677264010815389 -0.965260518090815 -0.03291449133983364
P 4.890039059342899 4.050360132506579 7.717059427517659 0.16997768687513953 0.8011002092284009 1.3219170066458588
P 3.970960744091583 2.243467595699038 5.145062600288405 -0.9922900114047815 0.30515446402100993 -0.9145663341700572
P 5.502517898764155 4.936154298951184 11.429369883569821 -0.3286265790010211 -0.34383105465560143 -0.059464216803904034
P 7.833652145464626 7.588496012612954 5.019860332638866 -0.9835482606564093 0.017674020240995368 1.03410411922709
P 3.2666348618406835 2.655773936930122 0.7952985030762075 -0.34673177324216414 1.0613974077254043 1.4312408272843673
P 7.927023581734981 1.7373970297036734 9.972281686502775 -0.8497763342778655 -0.12596554296024756 0.5963061860050246
P 0.951717168675148 0.48185422013414103 2.906827508454879 0.6107933238776061 -0.03459573569699848 -0.048770227425167616
P 2.947148182567059 7.278679411975503 10.7431487452568 0.37206305291810116 -0.5151089483994032 -0.1730900072518761
Ni 8.091162411660962 7.690162767790742 12.801444622390832 -1.9889138742982262 -0.41562268267660674 1.1029564621141135
Ni 8.497006446956268 6.139424441664795 3.2672399431634696 -1.0278913055481587 -0.2469385178019102 -0.3455637210759919
Ni 7.188310002051581 3.924658462343333 7.124763370209289 -0.9709040895298376 -0.6681109266521525 1.0024515253188155
Ni 5.972451923318348 6.182116810111727 7.167893417263739 -1.3038928021542964 -0.033373690364439296 0.3880506865956091
Ni 7.080330574649985 5.372458146739733 13.101452733208538 0.3013322620614423 0.6317987224846797 -0.01433235746227209
Ni 9.093184563879605 7.880487497311775 1.6393270948774061 0.5945267255070987 2.6380487740685084 1.977154676879769
Ni 8.489861437209619 3.119395289260509 0.28851156568477815 -1.1974645578960281 1.0035524716924782 -1.0312838761694756
Ni 1.58501379827447 0.027370811551727568 0.6346751301708615 -0.42810615985559825 -0.1514184358157134 0.3576075396144035
Ni 5.366407333511877 2.020027055297263 6.755316800140405 0.2151663675966359 1.2973004936487593 0.5302617448804416
Ni 7.0894769352942575 3.4492253988741783 11.735620525808848 1.227472417112028 -0.7389605024748629 -0.7816498138132731
Ni 4.589452988312702 4.925792164397142 13.381244394328162 -0.22263567939048753 -0.3671908124274644 -0.010656451272581647
Ni 5.2018476587709745 4.379647819914351 5.640723335984037 -0.9459039679410741 0.06336843695431668 -1.346159424132991
Ni 2.8189588519422837 1.4595272265721841 12.789522556389484 -1.5031828648403078 1.3800403931511522 -2.8333186598515336
Ni 0.5543957084873324 3.139343333487739 4.2547971914879446 0.27803189677260504 0.8923424897748502 -0.8466077067418968
Ni 5.46629718836 1.998199237563388 9.840030735808668 0.2408015516662369 -0.22103388212100641 -0.9534789520748547
Ni 6.1648341163789935 9.084141076412314 1.534410482517733 0.9679457782324622 0.5372276346753134 -0.2384795884012796
Ni 5.460087389313173 1.8798950840357445 12.281364600112113 -2.663425048049768 -0.18168443378910645 -1.3740191266577368
Ni 0.6654632016197433 7.547646009244675 6.506460038549534 1.3592247419573815 -1.8419169645889761 -0.5236002736998661
Ni 2.0803294412218674 4.592950676330042 0.11298373985634877 -0.13728405329686033 -0.06601950142391856 0.04072087475812987
Ni 5.060172589854748 7.810898469137926 5.3377309678231954 -1.063182267539969 -0.1045816779678328 0.5315141292303039
Ni 1.5585660396834682 2.3494269679890145 7.3729355575678905 -0.3765506563758096 -0.7143465605809247 0.2747563113451268
Ni 0.3884996176563828 4.26286805982742 6.462207738655297 -0.47140559397418164 -0.21343035874213567 1.1005205989791111
Ni 4.466210922289992 5.9001133756870185 9.238207687101198 -0.27233484638782773 -0.37053941718472316 1.456817133091575
Ni 6.754718265292519 -0.1420369954570584 9.466313993684393 -0.08077660512843507 -0.010911761816497337 -0.9932210078594831
P 0.30089843140393735 8.966117486094618 12.312805448629472 0.14285871917116041 0.14574812490381348 0.4602230949948009
P 1.2552678576237843 0.05169283622203128 7.17677698370136 0.1277275199566768 1.7793602249026776 0.8626367351803015
P 2.681941132311177 6.9054368216760365 0.7019336132807513 -0.35375782685101015 0.9308437311738421 -1.840218750950947
P 9.478453963778797 4.424135792904944 2.506172957332893 -0.21351083427108392 -1.3807289345777447 -0.2688394316400596
P 2.7391386187123676 6.955545410972567 5.894056015984264 0.962065408192285 0.7738529434766738 0.1829365610286527
P 7.478262727424786 6.666537248406183 1.2480573831281467 -1.768420180951406 -0.2758734556687055 -0.32835687027940225
P 6.851512572724227 6.90181755626772 8.991253144073767 0.2784242471150173 0.5532749179461632 0.6641074619197144
P 5.17281871864846 4.2755962774520135 3.3276302388938572 -0.8434012839894571 -0.005542269974467874 1.7437123937920809
