# total energy = -340892.2742080185 ev
CRYSTAL
PRIMVEC
9.03951468819066 0.00000000000000 0.00000000000000

0.00000000000000 9.03951468819066 0.00000000000000

0.00000000000000 0.00000000000000 13.23024347431679

PRIMCOORD
 96 1
Ni 6.588016328821338 1.9344922851927981 11.475476682968326 -0.7500545555054954 0.4718372821949616 -0.4229577828854393
Ni 4.4771540740186415 0.4976885560356811 6.006093959817953 0.28750178393625325 -0.8286585784626438 0.11948147789780068
Ni 2.6552851013864363 1.584337647152256 4.669997655058865 0.1369472387827319 -0.29177161495620074 0.3321106808948796
Ni 3.3626271198362616 4.0344800039163236 4.696802527740134 -0.5053341284008265 0.7653274225041659 0.757921616958398
Ni 4.937889094317289 4.6427308631808835 2.5247671656983894 1.0593248414670917 0.3358246394113571 0.5974482700292678
Ni 7.452899007942647 6.223615415751059 2.7275469812009785 -1.2296992495600176 -1.2135123553875102 -0.8860090913576547
Ni 4.984478752631543 4.5430069379727245 11.689144593822006 0.5412812359193968 -0.30336523333107107 -1.1886736990772753
Ni 5.660760998871866 7.7504075128783745 12.327490709086886 -0.7859985777002721 0.031024216295656253 0.6721316177757715
Ni 1.8650597734520555 6.536708043879215 0.5740299687949694 0.19874113216107708 -0.3014682734186743 -1.4240039432162959
Ni 3.016097327155443 1.5344214474604996 0.4774671618468982 -0.8491369009216537 0.24700253827062624 -0.026730474016308802
Ni 0.6755934352268289 0.037928899363752364 4.439514439122498 -1.4922502770882042 0.2889565141049088 -0.10416670191760125
Ni 8.552971778259197 2.342183433743668 1.2786067997247463 0.036025526164989566 0.1605309396399429 0.42410937999137927
Ni 6.751134370008906 0.9526292474675382 4.922907002798072 -0.9456088052981585 -1.7456867439096322 -1.3172357991201056
Ni 0.6717905114292335 7.2965877212585015 2.404397893066108 0.30501742422251343 1.0534722393410565 0.7539338359552434
Ni 7.634792120980952 3.940866790586402 3.799699402733042 0.869286379286335 -0.3227014717658378 -0.7299238461938914
Ni 7.475063897773177 3.9020149567806848 12.707344672387707 0.9026680400705743 0.018204438823168648 -0.38286091486455354
Ni 7.963459832786923 -0.1952715946652157 6.928070213233563 -0.49185049209209497 0.4495157358796258 -0.11253949936232877
Ni 7.068746755443449 0.3623444234958726 0.3226501069282448 -1.0972049043423169 0.21862835800330735 0.503399630382275
Ni 1.7412726603446829 6.723690403644513 9.167910070434289 0.32356613375897825 -0.7885912781281128 0.70592774038961
Ni 0.2400488302996082 4.915769402059823 1.5921938893022205 -0.5016147705677102 -1.36134873027892 -0.6017157870563702
Ni 6.209793997908123 2.1429977292511198 6.97891386712459 0.7850850647470673 -0.5144399473568365 0.31023007877170444
Ni 3.420959107632514 4.2960835568101 0.36737220152349936 0.4050215101219928 0.22315941310444146 -0.12596322896740242
Ni 6.1478190857229205 5.4767978369872345 4.858171422850128 -1.0442700040164983 1.7505116761021013 -0.3319911245978798
Ni 5.022896689735847 3.2213214274093267 9.631008923804178 0.39444142061330134 -1.394507733529392 -0.9799358607148025
P 0.13671181110072167 5.432630768589205 12.55943019082737 0.4924914681102035 0.37734024215664047 -0.4194050325371744
P 3.9322973307334887 6.199199686781947 12.529887249169892 0.1729992473102827 1.1106551163099516 0.6979750612014366
P 2.4590733972014918 8.471869253153358 1.5784474994305702 -1.3014314850979973 -0.002132730072286649 -1.2308773290285189
P 6.392826089787637 7.862244387667655 5.738975399058922 -0.7319902418046168 0.24990402818813734 1.5139143923251992
P 4.930196467381816 0.8391101190088193 12.693770033293701 0.10977222102983676 0.4892791318204929 0.1422704507678582
P 4.111587063563314 6.008267059130865 8.077724721201196 -0.32861578036774375 0.9800672440863444 -1.141945441782801
P 4.730766695994722 1.0691305117970122 3.764745407628355 -0.4207098673915271 -0.2265231873703518 0.78609833650293
P 9.321637863842103 5.632322685900069 3.6884989097725005 0.2902392374720743 -1.0098902409850476 -0.288962941862812
Ni 1.493644197042261 1.127073800464915 2.5303101960589447 -0.2993031474465555 0.5332681358069331 -0.8346289371134659
Ni 2.014962044275742 6.409666705511242 4.699408619802997 -0.26705817136992066 0.44954478934534836 0.1606695221003362
Ni 5.99656992722193 5.517593166434699 9.09937789434898 0.33123110650340376 0.40565554416156596 0.16234896668528814
Ni 8.80728044286046 2.4403344834092047 10.245566652414073 -0.3674497225158059 -0.6788139148919535 -0.06920664090264855
Ni 2.3409450202417177 5.294145404721457 6.775022191324631 0.5800524431503237 -0.20065069047896408 1.438738164102677
Ni 0.39628689691539015 0.27248532058463704 9.280883212210396 0.8331405254933973 -0.15275103858420788 0.045571775092527966
Ni 1.563465407911353 1.0985902899200537 11.531003709380235 -0.5348329091908918 -0.06848827467938529 -0.04994856400398494
Ni 4.030837079527374 6.81077708742401 1.6818948007077326 0.9101257819002003 -0.2650030886131049 -0.5907171219530214
Ni 5.438262386192965 7.965674513867054 8.179584683712354 -0.2029808812740375 0.002880921092220845 -0.7086083725455666
Ni 5.46538996954591 3.048006813738547 4.698694498148589 -0.5081615705472925 -0.32499515289602093 0.5055763263186196
Ni 0.8291919635756799 7.496333875657043 6.809421160232094 -1.3066191999465238 -1.633143902113194 -0.21501364406885554
Ni 5.08614617348145 4.233828419671902 7.065452756318553 0.23637616890503163 2.152363787357177 0.15886152235731996
Ni 8.412488681662024 7.3512948636950295 8.997914766529322 -1.220558463601014 -0.9198923743686608 0.4591339756956802
Ni 5.0406502964353415 0.21418406713806842 10.573861936217998 -1.1817970265621003 0.07530838292501224 -1.0823858370516133
Ni 8.1754002923981 7.258603680855611 4.724268188939597 0.4257800828255828 -0.022189648723161783 0.8445659937215196
Ni 7.325441851902487 6.3053145488213405 7.079887053252236 -0.06470258238470791 -0.9666172892290255 -0.729755438936827
Ni 2.533107021880138 5.074385764970226 2.5828740695807837 -0.8879173641239612 0.1468099905094246 0.2769358354949489
Ni 2.2053613405646706 5.506872302103945 11.530024729947671 -0.058286394445718974 -1.151336653189714 -0.7744748933313887
Ni 1.064393806139917 3.2837483153251665 3.683709774930651 -0.20191901566842643 0.5968150073206431 0.15932046427160948
Ni 3.696510631573805 2.7195379712540575 2.6136210745846844 -0.32367977651870705 -0.9390784603788086 0.05867617368496992
Ni 1.315113783439909 3.241985757814136 8.223178646883936 -1.5621971385909872 0.38881121891071746 -0.4734591340691008
Ni 3.652235089000422 2.545301327092775 6.895973608697974 -0.9532341830539003 -0.6685768105449775 0.7545809826209392
Ni 4.272842964740649 7.036358174585867 5.858788741542517 -0.01945810872461165 0.11504761049616316 1.3532520693137147
Ni 0.5431338117999578 7.277776491349312 11.368430750923817 0.8099154935271857 -0.2786769865557717 0.4110687447573372
P 0.27959670673050896 5.609000738199103 7.97889480398824 0.16177226824621174 -0.5674987748550291 -0.06832063875326942
P 8.472845520731537 1.6906965760861938 7.903522427195441 -0.009187322926222886 0.6096023888932985 0.6654788883459443
P 1.951143071109534 3.3362407766815645 10.471764234472523 -0.6860266305903089 -1.5753133642579709 1.5995146440945225
P 4.10460855828225 6.106644096661721 3.9721950363799037 -0.313478410505673 -1.5363452105248896 -1.1649922962999355
P 6.920824138319961 3.9741864414490986 10.410521522970956 0.34278641544117094 -0.2289963315011927 0.2738474263776122
P 6.497449431915922 7.563262441850045 10.050526469322945 -0.8720806542020206 1.3763323481719458 -0.5113628510934096
P 2.2366290216102676 8.553007936317647 5.625288135628405 2.4857057695559965 -0.1793349597203234 0.4276114796073668
P 6.8205307236911965 4.0178924946018775 1.6017459443935425 0.9473018767298652 0.6227445827022113 0.16026971555875624
Ni 5.3880569220336 2.8308867122542485 0.39390498481492336 -0.4218709775791638 -0.2843475545779877 -0.7190704484191551
Ni 1.3827835898311598 0.9415016049792092 7.174721505006344 -1.311623852249967 2.2883805439058396 -2.2016664902470473
Ni 6.832508080553127 0.8996613076425082 9.071435850729422 0.45243676618116274 -0.2531348764206092 0.5153778857900737
Ni 2.4646417382029626 1.4419291339425617 9.233254913667134 2.4789568808679374 0.40416147611454273 0.7101096396814416
Ni 6.140451881313507 2.1647648804386876 2.5293845497625966 1.5848976655122964 -0.9672811480652697 0.3254975464537362
Ni 4.0849385744848465 6.801837007471973 10.164372828210645 -0.03898589434489415 0.45897456729968045 0.7866678358531549
Ni 8.031717207628004 6.916150709265155 0.3939836285920545 0.47004393773996467 0.8412212456190028 -0.4400808157189711
Ni 7.793182496026037 3.853201577871687 8.181277784799327 0.10785160696835619 0.17699114207849517 -0.027965374864674417
Ni 3.0413627704981554 8.42376999589877 12.56941885447449 0.6693219162411183 -0.8724408657549168 -0.6037793544536182
Ni 0.1253120792225482 4.71266054822533 10.34979406380232 -0.21123335109081684 1.5959521235542449 -0.11805425853297087
Ni 8.422757570262139 2.2855508746946183 5.702578697422035 1.8905033581381119 1.172312998331065 1.020649536384081
Ni 3.8041170135243063 2.4830009923815135 11.596109909427302 -0.7328865283666409 -0.13815899970264592 -0.5449877382367065
Ni 1.1430104647272414 3.346211361299458 12.69989611234678 -0.7118430774327805 0.0534375509938499 -1.1437986929414559
Ni 2.652943867101727 8.366079813640026 7.824657181956266 3.6189907074503225 -0.6469463767593955 0.781127622761216
Ni 5.719092986668119 7.684382898146648 3.701174117162537 -0.5146651759937653 0.7327433179205574 -0.4030222203037769
Ni 3.2661031828010256 8.121063770060696 3.5414314307313814 -0.4653066801652954 1.5344711334306282 1.604046470526605
Ni 3.0373944235831467 4.465357507448967 9.16607143316205 1.3051130477146424 1.1497585100693166 -0.5198523766216595
Ni 7.017366154384423 6.088763936757647 11.36422376082303 1.4961802082702296 -1.84032879416625 0.5267663301326735
Ni 0.4658143235595669 8.945621174494404 0.42434916607929607 0.7188233654053555 -0.04619809582261721 -0.1678390432655819
Ni 4.5250996595248125 0.15960347790611898 1.713832309786136 1.4940616192653302 0.4663114672807259 -0.39716164775794177
Ni 5.8845613016550065 5.628336259955834 0.3956812494363341 -0.027185045055224146 0.46253863050185506 0.5862477733277581
Ni 8.00338736883156 8.846448659677625 11.082379830759786 -1.0317381900980747 0.05657095441650902 0.5411531949819648
Ni 9.252123996469845 4.88070512487686 5.706627496017099 -0.8377535987853765 -0.5478969414637016 0.772235976698541
Ni 7.829593660886304 8.774882822488266 2.748675942656884 -0.21997458761855665 1.0807357030427 -0.5134320749176126
P 8.359019952727445 1.8326892716237 3.5684876019188847 0.08424193796921621 -1.6755658187228304 -1.1659307489538049
P 1.9054031271688807 3.1865825727524237 1.4506567853011982 -0.9982374872374679 -0.2196118049624992 1.4590429370983
P 4.788673826604174 1.2132203747246828 8.403704985312787 -1.1156273727135624 -0.08270004740339307 -0.2564451717407648
P 8.521649860125923 1.4942408050067042 12.326525288926241 1.162603741463101 0.8443762463082167 1.1945342716231104
P 6.214557822109056 7.5958679710583334 1.4665988732722925 0.2186972635680298 0.39352610788788356 -0.05060933751643542
P 1.7276862698816784 3.146410969813241 6.093426518394917 0.10579523865995974 0.14719899841772713 -1.6170274561673053
P 7.024227145975521 4.024491340269205 6.03922197297086 0.2536588672448793 -0.14234192743574195 0.5420083438934085
P 2.51426867342711 8.527652097828806 10.259379030742398 -0.5311456901472917 -0.176834819006289 0.28105602831090953
