# total energy = -381164.1131005961 ev
CRYSTAL
PRIMVEC
9.26833227796485 0.00000000000000 0.00000000000000
0.00000000000000 9.26833227796485 0.00000000000000
0.00000000000000 0.00000000000000 13.56514114619087
PRIMCOORD
 96 1
Ni 9.002266406270772 3.484290550267945 2.771276809963988 0.4683426387781418 0.09128830329303633 -0.39622730886913055
Ni 4.368748976940028 1.681201355272063 11.381465876484723 -0.05958120199774255 -0.6369756386999288 0.3373685868597093
Ni 8.962255015191179 5.937321556581049 2.261552819407905 -0.14482047088322153 0.1701944308716359 1.7758974631650575
Ni 6.097459804223671 9.211499010769685 7.886311913781202 0.3708507777775549 1.2676649301705134 -0.48626682735673027
Ni 0.8683787967476015 1.6061649359576358 1.2796471456172591 1.063534508673065 1.5379958587544351 1.6039539108127991
Ni 8.810773390033695 1.3690624558561433 12.961166942868685 0.7355188237831656 -0.4698691027249972 -2.0837495286228886
Ni 6.805300888201124 3.0480023380164574 -0.039328314979855485 -0.724588807134223 -0.82590338431501 1.0597079358381234
Ni 9.032397754985102 1.3214973738500115 3.730563118470931 -0.016276368562520356 0.7082473896617222 0.28034768938997523
Ni 2.315414806463718 3.0190573358525548 11.126549661461995 -0.15010511632092857 -0.7514527214046026 0.010463618535485204
Ni 5.434977939135153 8.175484812280716 0.9424800413203263 -2.1792966071922786 0.6024518938914463 1.444460668408751
Ni 4.449179565725922 1.3339818176267575 0.2951639485791642 1.358883556567879 2.3220568531123624 0.3367435516812007
Ni 3.8163934377277475 6.316220254455691 1.6038200478540598 -0.9353493323536796 -0.2539568581012723 0.46110626893070267
Ni 5.174917799616437 6.428969518408261 13.031298560663695 -0.16289301211421622 0.2907256901901896 -0.7247818969816356
Ni 3.984363426269666 0.9931481610224151 8.86826578290046 1.9549776265620977 -3.7313677130928578 -1.2456467740282093
Ni 3.872012700611379 3.9946790802589147 6.89863392255614 0.3023355065149761 -1.5044131377029832 -0.8312769899220973
Ni 5.683916079743627 4.955638322768606 1.2859968801617643 1.9136743969379364 0.8643097520073502 0.6622503541063175
Ni 1.3482457812291415 2.6181648851329093 5.527021748449824 -1.387447998469133 0.9776018132649873 -0.5928485664737274
Ni 9.057060787568561 5.947405502259667 8.462247017516434 -0.1607685095720457 0.18716062641232928 0.5030049660470175
Ni 0.8225255757404045 7.464325665295042 6.910503875893095 0.8955823368683867 0.6071354154100447 0.24753449951469628
Ni 1.5712418593794784 4.538887755269442 1.9521054437282637 1.645846951502159 0.8106847675930426 -0.08170194515618187
Ni 1.9517347104312555 3.1514276595492756 13.314525823912444 0.14691977661441147 -1.032698497128815 1.4686408651993803
Ni 6.672096414586134 0.18775602460323718 13.225334807318248 0.6584628620394273 0.6865652767025981 -1.1488869060976408
Ni 1.786915954913906 1.1030057052583229 9.326943505791506 -1.654628554349531 0.6748366754117604 0.5765850534270134
Ni 4.045117345316859 3.5496044888683365 2.200944413179788 -0.3337011653104511 -0.17489543589173107 -0.2567290215297708
P 4.119606933018199 8.882667844655979 12.770915883176583 1.161280394665987 0.2728194993337302 -1.9963947560563036
Ni 2.54601091720272 1.9536995969053983 7.238264549611691 0.7617253069752042 0.20811074630143514 0.08167469146267224
P 7.0709220271749595 7.306337670775065 11.543609791264162 -0.06740532602785165 0.5463409098304913 0.09965698697270578
Ni 7.6941710411076025 7.072469838689967 6.928341708478637 -0.7264636555594327 -0.12440925421672122 -0.6413321158964116
P 6.753407494952423 0.40541447010990045 5.851621920811427 -1.4979627540919491 -1.1899890754545892 0.6151770547675987
P 5.33895801521007 7.3023800928295035 8.161236604843454 -1.8402555177261533 1.1215532512796942 -0.1792639972730719
P 7.914627596173434 4.499608562451441 0.9419378438734519 0.9014845612854345 1.2183262318363857 0.12619617091381494
Ni 3.811147561575084 8.126501675413529 3.2188862902728586 -1.5090611779979557 -0.4908215366069482 -0.14718845689476587
Ni 0.2564862705355579 5.930546405578226 -0.06573101355952563 -0.8393546247239093 -0.5753933471117575 0.45085116686159776
Ni 9.255412369800288 3.884932756012109 12.179882665920697 -0.6124012917946743 -0.6107930667672901 0.10497094298645147
Ni 3.2980712151808063 6.050469358827902 7.702450442463034 -1.8652859783322198 1.2834227072254025 1.2441899869770252
Ni 1.7142985703624558 0.5047672863750853 11.570617711951197 -0.6206247081457312 1.3032731662924264 1.4528491495827625
Ni 0.31492588697617785 8.405904824703638 3.211398404506539 0.3455984309686693 -1.5780197074455402 -0.4530093508551811
Ni 7.115539779469877 7.599485757051749 9.214963513430225 2.2572046325236674 -0.8395541423292251 1.8080028283400347
Ni 6.072268476691975 2.903648060493951 7.166179167341448 0.19951220599914674 0.5900252380923193 0.9022425224973817
Ni 4.544420949727288 7.835337012275839 6.14696196770667 -2.0517413511474087 3.3821422268945622 -0.39789389793827606
Ni 7.102443625753068 8.782421561145005 2.56838281801067 0.5870898096130792 0.39218039249326647 0.21272690491720783
Ni 6.605457104448939 1.934690247101311 4.242986047429232 1.6586127358082594 0.520835052249903 2.755715053134441
Ni 6.580497485227873 7.757473751571725 4.676948835075237 -0.08863826726469896 -0.5752694199393834 0.10757675604041474
Ni 4.149330475105819 2.36898576788138 4.477310808302892 -1.564183058672764 -0.18186518234134486 -0.652649854902076
Ni 3.7974582345830616 3.0229222304738634 9.22634409881513 0.9022790321622718 -0.9681532662575779 -2.058653247775893
Ni 6.790221311345321 3.3685105416123338 2.7417321466921747 -0.866412914393282 2.6782831961085227 -1.4799483197923995
Ni 8.12083872430173 1.8924359195748195 6.141807848045016 0.7108765997544532 -0.325369248405988 0.87706962277618
Ni 3.193218570454507 4.786194669371081 9.927716813593035 -0.9289763389478001 4.373480415909036 0.4837818561513474
Ni 2.5044887879378193 0.25427206591917734 0.5467760030923089 -0.7046653287374187 -1.1799846559437097 0.4810312899894038
Ni 8.870869257478697 5.988093481606299 11.055807260560163 -2.387239203346966 -0.18891951808496496 -1.562407197719264
Ni 7.660897727701131 4.575451326686861 7.202927178574128 -0.343976321984214 0.8169292058408576 -0.9337495919667275
Ni 7.7301043659201065 1.6498651233424586 8.624567957445194 -1.1748540195853636 -1.3974783861219415 1.576393484696027
Ni 1.9686494171072477 2.60296481995558 3.3115223460295002 -0.33580869857175716 0.5608308759165503 -0.2454709321174482
Ni 3.15118668290622 8.574282619872266 10.380615731216968 -0.08233803607828401 -0.31018714134891096 0.13037704176438192
Ni 0.04903782002849607 2.9318979377259637 7.908368691286695 2.192481224203353 1.7236855570481926 -0.5595142139876558
Ni 6.747781617170326 5.570026810902757 4.5038302878711205 0.8151739137126477 -2.296206724818478 -0.40117796800618655
P 1.9753318847858174 4.001676671239941 7.955711333314621 0.0187831941447741 0.9268281822565456 -0.022883332356076723
Ni 1.8107726425763733 6.675442282591632 9.574154956069165 -0.15420576875286346 1.096465455073131 0.2707939842632691
P 3.1891405041874186 0.9542304331689961 2.890148734316646 0.713167709781475 -0.7835992242301602 -0.6753107868347015
Ni 6.90170081375564 5.125814174427723 12.229205950587888 0.6621930185058208 0.018488802832806867 0.05593280661187786
P 5.845861652209165 2.3476964083006937 9.673953579124001 0.41546610249408444 -0.941614853647417 -0.560908266121705
P 2.3683647896088917 4.80456450423783 4.2304246764933575 -0.9513976440657936 -0.835039028067691 -0.6922062770384595
P 9.475757704877017 2.198504061252233 10.718699473590753 -0.34194180805268853 -0.7394510689580361 0.2646035391818411
Ni 8.604766165218752 8.81030070508001 5.304186939283686 1.4870846737268648 0.009717484398080038 0.7145442784140275
Ni 5.821856671227893 5.524602713686846 8.878656510382353 -0.1761352218361031 -2.4976094629721177 0.8104171157539527
Ni 0.36661723057800893 7.888361142080414 11.79952976668854 0.29194979240527785 0.7794672043396577 0.7286061558237322
Ni 4.760428705229023 1.2618556546938429 6.404781951278214 -1.310832466696923 -0.9467560315287243 0.19014233474847253
Ni 0.5585060046096433 0.6702376056619266 7.231970425061737 -0.35154513547040744 -0.5455734355368476 -0.7250438923937707
Ni 5.282986555694281 0.19619113394341264 4.255900541830508 -1.9451920079302434 -0.018580848325980902 0.4340616061080847
Ni 2.842551213147026 7.2673643329270945 12.85904845620782 -0.25679972686670616 1.213556321251568 -1.0991658847234294
Ni 1.9671942889164908 6.8663050522237965 4.947233798925434 0.35668039981444377 -0.1318374283599923 -0.9801742019778538
Ni 1.6939453123567147 7.262498458403864 1.2202797691008764 -1.1564382360823373 0.27509106897672625 1.167582939845247
Ni 7.912217829742881 1.6513109832007897 1.4356127900020565 -1.3682637122311985 -0.988238209932911 1.498382101017555
Ni 9.513850551144593 8.507300381435337 9.03952510262008 -0.6538770424409578 -0.6876389693827512 0.8141539570885656
Ni 1.9729684600173913 0.24343923898060238 4.839092749854673 0.4219110867884798 0.19106870321748384 0.17207416439285203
Ni 4.594636774807027 3.8362462057825284 13.258487632403192 0.6021780714047693 -2.331085024752902 -1.6264430930542504
Ni 4.262051934061113 6.591619484138114 10.854012492832474 0.5435294085236252 -0.2964515369303733 -0.3324562371597565
Ni 2.9837635259773894 5.1159897420570095 13.483736842166095 -1.3666809411251106 0.43028902643952993 0.8210877080939215
Ni 5.166353860455552 4.01315086678234 10.838805939822446 0.7578036033232949 0.9997410683661878 0.9512315508015746
Ni 0.9353415716864363 4.447817120859417 9.869685003779123 -1.391462776055481 -1.3836417373491654 -1.0069185599512336
Ni 0.585624218452539 5.046579200524679 6.083884477720479 0.9406977411497863 0.6083492332124878 0.4590864102871964
Ni 5.152423556820475 5.890210622863751 6.556208893274391 3.372248107709302 -3.3784822615444714 -1.8877368511365684
Ni 5.576014153649437 1.4316422363911003 2.3830291451720447 -1.6642755905209918 -0.3125479282716037 -2.321716696164124
Ni 4.46223864611303 5.631142194914532 4.094258043835274 -2.1374166791290414 -0.5946712215047628 0.9976155373827528
Ni 7.832806757523758 0.07114742702881309 10.845832262633992 0.6042398390298046 0.4863930685219494 0.2103676606564119
Ni 7.650934270344039 4.052596889583995 9.433647036503118 0.13723957321217012 -0.04617572722511402 1.0855660345518077
Ni 5.469224427446271 8.941197363921123 10.278768806696162 0.2710562367857203 -0.15511285394816512 0.8341406846231376
Ni 7.160120458435094 2.6611236059237164 11.387366096906607 0.9791066799452879 -1.367981405104089 -1.0342972090745026
P 5.3853089456685 3.835217420883331 5.2216978538661545 1.7536072843082897 1.2284841462059939 0.45463454516342994
Ni 8.26358031198225 3.7646483377978504 5.079304755484821 -0.16843476786805184 0.5162183794134981 -1.783849885242915
P 2.5594499992192614 8.980569240063378 7.3763580685809735 0.2705124484671083 -0.24180659589198353 -0.2237667076711372
Ni 1.6814516002475435 5.627314373622925 11.740874198102413 1.5325896001371992 -0.3527370988959796 -0.7879073646872108
P 8.650940997361102 6.6417148208963255 4.753306918593498 1.2387880992351632 -0.10049362394138822 -0.05348125974759177
P 5.549673552897016 6.772175868113455 2.7287092128015247 2.429307850382242 1.102276148217637 -0.3010011039742687
P 9.374454831469569 8.877662945146369 1.083929623460774 -0.8092683468614902 -0.5485574578658359 -0.4598618550006403
Ni 7.489276016183683 7.1213139505707765 0.8812441689870231 0.4128849720304696 -0.23396447413974544 -1.0816749270275177
