# total energy = -340891.4747261317 ev
CRYSTAL
PRIMVEC
9.06307152786216 0.00000000000000 0.00000000000000
0.00000000000000 9.06307152786216 0.00000000000000
0.00000000000000 0.00000000000000 13.26472129033871
PRIMCOORD
 96 1
Ni 6.3156738552248335 2.137525405110908 11.4393625819437 0.14536785874625932 0.6883195403895436 -0.10830026447000059
Ni 4.854307959860394 0.24959517554239297 6.107766995808916 -0.839810224204089 0.22076803005412945 -0.28650830967473234
Ni 2.708607664287709 1.5886929863816255 4.813754340281385 0.030559360844095756 -1.4086472582545677 0.4394184995446239
Ni 3.295323721742298 4.132923723501658 4.855418186114902 0.05942487892553637 0.48475836113200377 -0.1658307545863015
Ni 5.083014568289369 4.474927788319404 2.814720823925869 0.5334332006298877 -0.09954051599949953 -0.8197062543653625
Ni 7.259955271203233 6.191899488222079 2.6423321415827927 0.30649375165772375 -1.2416484515020938 -0.8025292283654437
Ni 5.053333009240235 4.607194253285223 11.452601010433188 0.3470703875285055 0.15859001386348817 -0.3670265189354582
Ni 5.702584259805976 8.090277626575888 12.404132883583895 -0.8887015505881533 -0.4331213536820025 0.8671130257841002
Ni 1.9093535178983905 6.322688672539042 0.32241876738104963 -0.5466556128574327 0.7739709571117767 0.595379046205065
Ni 2.73210820859745 1.8108107418552661 0.3775739013979394 0.6932416602815094 -0.28764987947834325 0.5963079857772375
Ni 0.5643529286137531 8.852400369171528 4.448324048339914 0.1500261834538771 0.5777065686259664 -0.2279745751048977
Ni 8.762095925090437 2.5161624047917366 1.4595705009071476 -1.009912609582551 -0.29208091866650343 0.04641483981911361
Ni 6.822589568426713 0.7210017747428965 4.732746794909486 0.22122260109304479 -0.5550250678680505 0.17523790683281434
Ni 0.660854700962873 7.092379079808276 2.6070876692682057 0.5892163690377787 0.936644139905703 -0.14852645897989905
Ni 7.549493215307868 3.5518630226414687 3.641417950712371 0.8640978931068604 0.9366091729027095 1.0003751024057612
Ni 7.665138007206173 3.9901259694930613 12.724091027062093 0.1963201814244103 -0.3731434304664735 -0.7459423331093347
Ni 8.109545716511295 8.839313293975513 6.73164708411446 -0.56428566723437 -0.9813152575608325 -0.25843674824949686
Ni 6.899127206951884 0.944580497336757 0.2394789751727309 -0.5669642425077978 -1.1349119319747873 1.507973858471048
Ni 1.8083183972022854 6.812991775744871 9.027982877899007 0.7167142894821529 -0.9240351928924408 -0.2144585428963339
Ni 0.1491845004702528 5.130378179767467 1.4205856989987966 -0.6638495802726374 -1.6676388505662698 -0.16820156881132323
Ni 6.476063030947742 1.8014667151744548 6.953115017364033 0.008428847493643548 0.9441877565809159 0.1589124301999134
Ni 3.5235681135265384 4.3098892569347536 0.36373549757744394 -0.5172946431968124 0.19877121406806414 0.6577216129980286
Ni 6.147798582471519 5.802713073355543 4.64354079509 -0.7428714074934949 -0.4634300319678728 0.938715677722751
Ni 5.325342973130816 3.2829616922635134 9.093549668415328 1.446046010618 -2.7972378549685764 -0.02636537736740621
P 0.0374866761951229 5.772369910089436 12.527135983204946 0.6016211704600348 -0.20182542751335567 -0.6873877726038936
P 3.8576329277406067 6.1401130978688725 12.522865463930456 1.0418120293943092 0.7962757912565641 0.536390740596315
P 2.18331204215403 8.282849769072376 1.4627670462129887 -0.38672014070964367 0.2057497022684263 0.21405873635475392
P 6.404029738940866 7.737361623713822 5.666145274672252 -0.1004357741202593 0.08953275405451032 0.8940273336764408
P 4.713721595289351 0.9178534995853385 12.882617741598862 0.5661121789201476 1.3256954998516846 -0.4741641305559254
P 4.076886752631186 6.12305639737102 8.105036838457268 -1.1872300246522134 1.2879707316074012 1.3639530006709863
P 4.6368576861914255 0.9277503736255382 3.847392563291869 0.15333236500897462 -0.6902015879036049 -0.25042261969576873
P 0.18193662813185887 5.261566139228907 3.737547230824264 -0.16816557336706522 0.9030539626550835 -0.13931728167680524
Ni 1.6772573207413617 1.1410588236348251 2.455710811810476 -1.1778665811594424 -0.8280494841237351 1.0965916962383502
Ni 1.8664398745097954 6.374901027251121 4.7458655908556295 -0.29975309049978055 0.3294889270013164 0.9488162564918626
Ni 6.169549953988441 5.460709008537798 8.932264154924495 -0.6689959003602672 1.2549559672442774 1.004950123370953
Ni 8.41554219839707 2.1456006017865654 10.236266127821173 0.8642698999083501 0.5008632371136665 -0.2923249163565095
Ni 2.2209328518068405 5.092938631543964 6.8911417346837345 0.3714786411695408 0.7198888305553924 1.202658957612774
Ni 0.6767594850774761 -0.03996451993375899 9.038845875357415 -0.387244645754546 0.21370212434628358 0.8418869042274598
Ni 1.5753702713275104 1.3522918302785392 11.614749328327527 -0.8480961183619651 0.2873971400375889 -0.7673259409914333
Ni 3.9368622984909973 6.9454304390685335 1.4816300168538932 1.10172207548638 -1.4882229010963661 0.21035017715491516
Ni 6.066747534356586 7.618236612372809 7.9518020513491345 -0.9728517001745116 0.8590001668689787 -0.5494069503503247
Ni 5.228730631309818 2.783658959092557 4.794745454189887 -0.028771929926369802 -0.05668279740402496 0.32168408624491696
Ni 0.6767640166132087 7.159101411936435 6.833254990927178 -0.015914357237411303 -0.3535601090179072 0.3604702058741792
Ni 5.056704471825358 4.927419757371649 6.771852681749198 0.31250936172418436 -1.4399362981758361 -1.0692917228718166
Ni 8.076474568734108 7.502909027975792 9.412579753375471 -0.19682823140908037 -1.621261034632679 -1.0945751800289536
Ni 4.658237471778268 0.4294445783157739 10.52781154225539 -0.8224136259941967 -0.5948170030540079 0.8757786718788981
Ni 8.251373721873097 6.962314941208544 4.847539658090044 0.5922890944258316 0.08593989449692942 -0.49430846671428413
Ni 7.621843714816031 5.916934963033783 7.042320110876372 -2.1555763807572035 0.8106832249311458 0.2675983601441069
Ni 2.361618910164002 5.233860329759227 2.7384351387874357 0.038335148134772686 -1.2602295569383908 -1.2080886132687776
Ni 2.128471396716989 5.606841972845655 11.364231532109958 0.8264260895876994 -1.4916329552191794 -1.0024929200797121
Ni 0.9766003288239601 3.2688233007775143 4.002775298337299 0.18686803487257495 -0.5157668936983764 -1.083171309067386
Ni 3.6570762192831157 2.560136427541782 2.7688779958396617 -0.10372550061512459 0.5613839202065429 -0.8383264405697112
Ni 1.238224012815211 3.2021553470781465 8.384709629271832 -0.7051109009152695 0.5004768003085251 0.27206385211462825
Ni 3.4916842281113163 3.000311682472571 7.278551787543055 1.1561767548908346 -0.8260990452655838 -0.24847218083761727
Ni 3.9469494970319703 7.084965487349591 5.937408441474085 -0.04661590008632616 -0.5988880877995879 -0.22078962732068427
Ni 0.7656274323313027 7.390608509448214 11.069237618983161 -1.0783772301128525 1.1303248268247372 1.2731076984526397
P 0.18245231689823926 5.485088670779682 8.308835407577927 0.769720666475855 -0.2127176489458272 -0.6626920696294264
P 8.528187113640332 1.4056280058523263 7.94068619419684 -0.38332962697085593 1.8790663199457638 1.5035741867414556
P 2.01638839190458 3.4464866907134444 10.751653093921746 0.687334550768455 -1.0760233851686953 -0.8337943570273123
P 4.047930239299283 6.026308109478041 3.9106781787203553 -0.39817671928601744 1.1345483779877814 -0.11191780661792983
P 6.995132322984701 4.122954344889735 10.372361740481118 -0.041993056602334135 -0.8079198032533956 0.7386041475767086
P 6.146874149182049 7.90153916330926 10.313002247611436 0.8216410094942301 -0.7186593290236656 -0.9177519309868902
P 2.0871075385489744 8.46388462159343 5.920881024349811 1.8936763565494545 -0.23798773636652562 -0.573081154038813
P 7.064365125908773 4.081282342291898 1.572054999785473 -0.9894283735862701 0.40206191327303664 0.3552259267561043
Ni 5.394031991766965 2.9628630711776025 0.6593321049566885 0.03393341952265124 -0.5870458437490212 -0.5911248989144013
Ni 1.6224710537331133 1.012626037898863 7.234061169719483 0.5425323347176785 0.9001822975342432 -1.0431826844895904
Ni 6.607386936481162 0.7504676326911542 9.327540047508624 0.6224375929847539 0.47872629600531097 -1.570881553738862
Ni 2.901669212643327 1.6336276947070012 9.567512053769072 -0.26493006928332435 1.0795434825068118 -1.700538686618084
Ni 6.329803183639368 1.878810967060045 2.6710638907423543 -0.5360097031078124 -0.8391728477304063 -1.1787929496284537
Ni 4.004708451480865 7.055918343303034 10.413535274148359 0.21820309754043066 -0.515302552467448 -0.11461309406190584
Ni 8.090522329505454 7.428863734103602 0.28887543358051543 0.8604885784890471 -0.10394430149415003 -0.5209666927317609
Ni 7.702495987786487 3.5653488729819602 8.252036232397217 0.9140801385622581 0.12188211691949331 -0.42787553190203087
Ni 3.014767281459859 8.53653420245995 12.703384627685129 0.03012304463762554 -0.7173367535575 -0.8649288736485878
Ni 0.2017004680764226 4.579977849674674 10.269679859699751 -1.1432471913133602 0.47731167504597144 0.7769477803519135
Ni 8.686038629352932 2.08334636389084 5.798274887258944 0.20877974734400173 0.5702832795787017 -0.4562273435718466
Ni 3.9411944466514512 2.5093832273356296 11.68847469577699 -0.6156791912149978 0.9005849322893005 -0.5853417165737209
Ni 1.2212760691749425 3.6145976033248592 12.817328281069381 -0.9130596677175437 0.3972032996291546 -0.21038077328253446
Ni 3.536319855078334 8.296362808627265 8.107583561539041 -0.26601764592054833 0.9051506972831121 0.11896520038301447
Ni 5.61460902509149 7.972240183810722 3.478421329328873 -0.5672151821763393 -0.274986682188378 0.20214810096009703
Ni 3.0489894393131505 8.232613163939751 3.5358975159480472 -0.16304316453883533 0.09843597008141111 0.8535404293059881
Ni 3.487841485809993 4.330326483089195 9.308876464439958 -2.2433921521206073 1.8274257129513367 0.8769397820665349
Ni 7.136153714986082 6.2655369438783275 11.606259949285901 0.5052914480883491 -0.8694342177181091 -1.551921981917224
Ni 0.5639704669979139 9.36206219302742 0.2668739212911483 -0.10796756372093018 -0.7055420749154171 0.5745063165211138
Ni 4.4106162332010355 0.16304918719799782 1.6523601571188042 0.40232262313359096 1.2314766531754147 -0.10850415295069055
Ni 5.897929702170871 5.6336414751687975 0.40771223924892863 -0.4642730966944585 0.25252089698569413 0.14368455750656545
Ni 7.98644201679698 9.004841231219293 11.280093601853915 -0.14962174892660682 0.09879361053114598 0.8856079992644941
Ni 0.0308706340253923 4.7181262480215285 5.891114272428902 0.3622057005080472 -1.5812729242755152 -0.7700875628969706
Ni 7.89943653072929 8.543920605704239 2.4004106686501405 0.04963257542546291 1.4106084957459966 0.5586976316236314
P 8.419394003769858 1.3394403949406242 3.390184171849037 0.7409430801225304 1.0207266694789194 0.36249392117242735
P 1.7313547943182412 3.1995451824961156 1.7394562739011483 1.3571542325815982 1.3592527669818397 -0.14512437527688554
P 4.616619847609222 1.2806029349873487 8.075191237814611 0.49774654586155564 -0.28923059370190185 0.8585096003858053
P 8.464229018309114 1.845966396069492 12.481956571950004 1.2420459440508287 0.44646717886128917 -0.9758866303460935
P 6.2572895488448275 7.66732220742933 1.2837559775501557 -1.3871932021458497 0.06380501027110301 0.7993194631788944
P 1.7389133959203718 3.0516177300381115 6.077045902462702 -0.9411543690712307 0.34603757538861696 0.38446656878877655
P 6.745091244326211 3.925615026802455 5.753175231032898 1.6861353667085606 -0.14354211839143022 1.4196479802404451
P 2.3929590112913015 8.749498255753553 10.306025495197384 0.6997267537852208 -0.8780852085248878 0.5944534490670019
