# total energy = -340871.47283801023 ev
CRYSTAL
PRIMVEC
9.23560283218652 0.00000000000000 0.00000000000000

0.00000000000000 9.23560283218652 0.00000000000000

0.00000000000000 0.00000000000000 13.51723829394260

PRIMCOORD
 96 1
Ni 8.199377414639386 3.9017281787844835 10.333671658658213 0.5052366835910137 0.6603611075034046 -0.17405339960640992
Ni 0.7296190872962541 7.938527048736358 9.236761883017618 1.3567341143250442 -1.8846361007240573 1.3588555315434212
Ni 8.677541514776173 6.426529569503655 5.347582117777691 0.031654907901119675 0.7386332010424311 0.6359291997132854
Ni 4.370684382914851 6.81539462602352 1.6189457598288317 -0.7617294207402624 -2.0875740445753017 0.3285553594434535
Ni 9.038672056043 8.82414747385933 11.781679340227846 -0.30641713278351745 0.014315131071091476 -2.0793280025164256
Ni 6.452481613413424 5.326809399926497 5.252244837040409 0.02403467235170054 0.031001333477520803 -0.16178049577632783
Ni 7.802883750194445 8.794621251660208 9.208361480801628 -0.49184972076114647 0.14250827781027717 0.11577163314638127
Ni 8.547624289979476 0.9964753657097893 13.391595451184584 -1.456171786198092 1.301020365702508 1.0539157546363784
Ni 2.24985749492066 5.142651479798102 8.870890706825922 0.7851724822545509 -0.3970683167131871 0.13760621252296945
Ni 1.3799653013914017 0.4594426096707754 3.449356346628768 -1.358267520250435 1.9047025324566293 -0.8223316078033516
Ni 1.3634705147640542 8.125880487438696 6.989060901354228 -0.2816558666784375 -0.07630314273811376 -1.25597258143425
Ni 1.0873536974080547 4.979116660755299 4.080732632542184 0.8771583258352441 0.8136749605696181 0.3103781743137945
Ni 4.368338539799875 5.401063646558007 9.994794302373803 0.8123073907981301 1.4770463156542561 1.1805500415288765
Ni 3.1034211426732385 1.7235389617071706 6.009724043787983 -1.0665797232572922 0.5611237245666207 1.1807071359320311
Ni 3.2715829987262888 1.2201154878717295 11.029471815566996 1.1974000232066797 0.2328645562073473 -0.4990876332704824
Ni 6.574132973690817 5.523924870804147 11.164819574818832 -0.9905899979945391 0.667477921053844 -0.1380427858397558
Ni 8.191739571111494 3.2222371728864685 1.4942632747076 0.2284836535308323 0.5654318650236713 -0.8067440377777396
Ni 0.03894746063056446 3.2700129462477614 8.09232477173145 1.4966936575715384 0.922661709583682 -0.0031308323194978336
Ni 6.776891397888349 7.12170262898131 1.6286782380751357 0.6703704121102907 0.22464988160703891 0.6520834408756447
Ni 7.509219287490204 5.03383760743337 7.502026600017986 0.12426038734368275 -0.19401287344747234 0.35311787927416605
Ni 3.945726590594497 0.712033575976471 4.03196218475773 -0.03542028848082286 -0.9757382776936874 0.5354119216228134
Ni 3.212447433902712 0.31021281582791577 8.13267327330903 -0.7260036852038787 0.9878098641462407 1.379974058689591
Ni 7.120705183877305 2.006951905286913 9.311416954811293 -0.46141840085448277 -0.04995884841663009 -0.5996151957735996
Ni 8.148212175045037 5.311450592445378 3.208505678621328 1.0911245024761917 0.31688717907690583 -1.4350257482480964
P 6.328087279100016 9.09447356825041 0.2565650461969317 1.5923404949435866 0.08512973989080823 0.7644072246827416
P 4.9053703722786075 0.9914142553672436 9.529814948815515 0.25819840698644564 0.03320091223200088 0.840413662116043
P 6.891080391091332 8.858716335195368 4.2921420458964 0.5136760726076186 1.3271975383185077 0.037310820635316384
P 3.999810280678343 2.225429325475344 12.950987929894442 -0.7790164899554842 0.6102343660503425 0.12404595734003153
P 0.8874084378279301 1.7103966989016186 1.336847966089926 -0.502998024068482 0.24348835446978068 0.767349338030201
P 4.77953528392608 5.213109893672702 13.251070212994735 -1.1699393558925657 0.24163098954606776 -2.281229277573039
P 1.4529173280260155 0.5481071673743177 10.025749272328381 1.248678875986314 -0.4509650667316427 2.8704201926895214
P 8.557497149388567 7.030667292035192 7.70032422805594 -0.4930537683715767 0.5472896468970058 -0.8921553134647087
Ni 0.3979769022570087 1.0828559588372155 5.66875112922488 0.6951777009619575 -0.3028525553607107 -0.0798540933141657
Ni 2.0547369142510212 8.150068531210826 11.679826341704677 -0.8349156151159493 2.6674513956003416 -0.7225206117512847
Ni 6.366451973192963 7.161692789169673 6.880909221711322 -0.1550640029881007 -0.37785831944363957 -1.6153634382013213
Ni 1.3719303269424699 5.6016794109024906 6.654265681513988 -0.7820069400423758 -0.19696244299409948 0.46123302431655405
Ni 6.051961226141202 4.456095237746716 1.0288609305403926 0.7848989168781901 -0.28068167569062624 2.471245885376925
Ni 1.4619405119761377 2.719377070822734 10.170275373657633 -1.6134451381326858 0.20455825306348638 0.2809156460783033
Ni 7.33753866676469 1.873229612130492 4.6462396756197055 0.6038508311215021 0.3294326198420843 -0.09223344081512502
Ni 4.579252001282932 8.223694756850923 10.98915009723758 0.5483126888448815 0.5598857383944615 -1.3634112692349036
Ni 0.4686440407552248 0.809461797191038 8.315142925242867 0.3197639864040686 0.7139794070494929 -2.262565382614948
Ni 8.03536234425021 7.161932914842859 13.220426482855016 -0.5469811145176515 0.4538516442508184 -0.7595820353799563
Ni 3.2259221784095993 3.9126169545032083 0.6746829510725966 0.899214020083703 0.3141816072202847 1.5252961517995796
Ni 9.354649735147953 5.568828371690018 8.960293189194372 -1.2344979565002416 -0.21223376733087318 -0.1340925429427562
Ni 3.6363523675021714 3.375511237201957 9.487032865896218 -0.19151144718185725 -1.658997372841188 0.6123161882800358
Ni 2.7480074395488137 4.063148044782682 11.867202869414053 0.43232174059884254 -0.17947405640134897 0.3369914060259486
Ni 0.1590315391102752 2.801998773604511 3.4222267633601042 0.19840483186758087 -0.6839890313349897 0.041171846252619416
Ni 6.122705943703063 7.0650883837261915 9.082962312901964 -0.2546004052225422 -0.8431513727621802 1.6837558107327908
Ni 5.142790013840325 3.3958295633946585 11.3036279144454 0.6684654817780938 -0.43787609475816847 1.0386732266550112
Ni 7.581718769586888 4.372014309720191 12.91261215307812 1.6363207571792786 -0.3126114345196874 -0.6772344862199756
Ni 3.7014264249357054 1.5658687504518063 1.9167311485090661 -0.22101074219255487 0.7720238606877349 -1.3619549964043511
Ni 2.5426261041518603 2.5275443647551863 3.782718200912141 0.5071534409977524 1.7499115806242571 -0.43581149891965587
Ni 5.736805515686771 -0.10511778411822308 7.913518883434268 -0.5365743173620308 0.5448648395055972 0.6269894740214944
Ni 1.1442727175560634 3.2768288211251315 5.589499497910247 0.18130236785933937 -0.1457712648322651 2.4847675740124435
Ni 7.994614864631029 8.885518054564104 6.60791588522731 -0.4186745821290531 0.07810574316449129 -0.43225103526190717
Ni 8.635501050762912 8.021019453078726 3.3135486543567505 0.0006702865941472327 -0.8050005727240716 -0.679436636077617
P 2.8491188191659487 6.914557293446718 10.115409428015367 -0.9134718155542978 0.5427855883790652 0.9782705571972379
P 8.711149873419465 2.262741160847396 11.535070273865339 -0.24252804743904038 -1.2521380381795082 0.596382804879231
P 8.77341630759728 5.699272025847162 1.0832484719568474 -0.09936876630832564 -0.6302334348800888 -0.04041311370972395
P 2.8509751753317367 5.018940580092994 2.934457636295858 1.8940062290850477 -1.2642394494287323 0.012064387363701804
P 4.627027774644225 2.6443100911435167 4.806243723706387 0.8856884747934425 -0.10958633027127578 1.0053028787246816
P 6.312072743819042 2.603525669113076 2.2648810500196 0.1943458313068588 -1.1237651713293484 0.09864525787873979
P 6.205105992017283 5.921628399217837 3.280012333415415 -2.281243932861058 1.3302291260559802 -0.8933344213744744
P 8.161936280827925 1.7605737289947765 7.268705718985506 -2.351728412034866 -0.2122417377506732 -1.604034129231431
Ni 3.30315952475031 4.4885306748325196 5.759776307007901 0.4674044432345886 -1.2176184071360836 -0.4374189526160918
Ni 3.372805205577202 7.197573106105421 8.235174611149802 1.3675797987902962 0.037869264241947684 -2.6886426849659757
Ni 1.4691165753632873 6.359940873208484 2.1478354848659795 -0.5744836908132945 0.8333791238667647 -1.1819659480397966
Ni 4.67330738034951 2.313370735478482 7.795351192538642 0.5235038573313178 -0.8775655885759919 -0.37288580592971265
Ni 5.14720463198583 -0.31522774815638704 2.2853591521409986 2.0757911930077606 0.8342846664001696 -0.43553279133697254
Ni 5.592480750498886 0.7720945482020969 5.829403516629164 0.16369879584496322 0.09632663704789217 -0.4533813894826192
Ni 3.475468166467234 6.513371942771825 12.117433215640268 0.10995322669239127 -2.5387517415383822 1.1117954005619821
Ni 5.141386202212465 7.675995803121023 4.383748143096477 -0.1794709710775554 -0.8164388964680003 0.051300964266821326
Ni 6.122604352072099 3.3666542941025024 6.4120915516231785 1.2332543139011276 -1.6362472236288659 -1.164827231476981
Ni 1.0479915582111026 6.362526841996646 12.862800852856429 0.9422200913315837 -0.4148747487669887 1.3150382772481546
Ni 4.127095358672803 0.11737342905354807 13.487311391637276 0.713473928167984 1.0636381241304649 -0.8553011207508365
Ni 0.6459371373113313 8.367687040337474 1.010340776215745 0.3382288779774756 0.5551847333743665 -0.19481325786158063
Ni 1.6806211154264958 1.2361577299611488 12.7883480407644 -0.025009634670460155 0.42290121861589103 0.5908130241009374
Ni 5.069080667774893 4.086624947138068 3.2992196165894887 -1.7287742844250098 -0.1180087500070161 -0.5108969672005846
Ni 4.94814968451706 4.875714851640078 7.769248608302991 -0.7671837589866142 0.8081105791079631 -0.4083814277331612
Ni 2.698596964489289 6.830005349676634 5.0104484433047265 -0.6741818154365808 -0.9059580236757558 -1.3862277529087867
Ni 3.5873482589665007 8.642677114150061 6.0487749431700735 0.6973906494528764 -0.5415008081293706 0.6291456011325488
Ni 6.321317582236721 0.7338342164209584 11.299127405193717 0.6062188171330464 -0.2532179230527188 0.2150702083384038
Ni 6.157339454258803 2.0068041356418753 13.423347453662087 -0.14717045917263688 0.6155789181917075 0.866946675409565
Ni 0.9451715920732178 4.15150505691249 0.3824241471167772 -0.3900003541228122 -0.8116525308229505 -0.33485636196081686
Ni 5.453678875794289 7.298878433381668 12.99268852372412 1.5230659769174804 -0.2129657604008913 -0.2502218165388723
Ni 8.116644884623833 0.9930397214626596 2.4184635834691055 -0.8003831285567183 -0.7492040345797419 0.04325418270294486
Ni 8.829190112996246 6.403015724737011 11.126363448258019 -0.5635156218375649 0.09671487362524633 -0.7960158527269581
Ni 2.8840663402173954 8.479456305602962 2.4528652803941933 0.059906703657961344 -1.2514785502186383 -0.8259126402863906
P 8.466360220811485 4.046874912622892 4.96458443972611 -1.4390826919262893 -0.21302232467043955 1.159268506442281
P 0.9379308794663641 8.166775736702915 4.777762048185626 0.19932837212311477 -0.5163811302436074 1.600677554054372
P 2.7571783931439744 7.84441625605289 0.29311586789703886 -1.7360276235533134 -1.3680780785829536 0.8285048264935989
P 7.080779672908646 7.758913045192876 11.041677588247122 -0.8909250406020334 0.14719899841772713 -0.05757497020099117
P 6.137335138561808 4.082829114381158 9.328975682882911 0.8221652574288164 -0.004491203002134201 0.5667346429954949
P 4.520070258445282 6.242233115333038 6.115212175579082 -0.23598330434198714 1.2822829371940045 -0.1419791447796845
P 2.4959031895114614 3.215051873896504 7.676872261828154 -0.9778028735321999 0.0878175711356165 -1.2043322315501386
P 1.06790351787995 4.856560211402049 10.86949547428876 -0.4178777972593707 -0.19951349155072734 0.14438415467675134
