# total energy = -381170.9736141517 ev
CRYSTAL
PRIMVEC
9.22469236668668 0.00000000000000 0.00000000000000

0.00000000000000 9.22469236668668 0.00000000000000

0.00000000000000 0.00000000000000 13.50126972483608

PRIMCOORD
 96 1
Ni 6.239664852813209 3.174032105657921 0.30502090617313743 -1.7958278835403974 0.1276994949322188 -0.38042556595018356
Ni 8.580273688737707 8.97109622483515 7.8171674805359 -0.5080247878591121 0.7392325251893269 -0.5641617400619962
Ni -0.1490415075700241 4.290044597446461 7.657231611431401 0.843426737910754 0.547478108758728 1.4625288387643716
Ni 3.035744744300336 7.697738157522875 1.8960238709878725 -1.164197568312782 -0.08464842937901551 -0.028316587556506068
Ni 7.14328803048681 6.8565015734628645 9.437076940951338 0.34261929373568734 -0.6331606358292128 0.14123069664943416
Ni 4.699215046407641 5.961586505263051 2.973708688991833 -0.4232328909236969 -0.47771353847008047 -1.3039092572145285
Ni 0.8352451464506615 2.2880649889301146 12.513746109901582 0.2729639953313944 0.9348862766743318 -1.151732860186868
Ni 0.020074775250908998 8.471090231394742 2.533499918053476 1.5364169443030895 -0.32235874371443834 -0.85753900894242
Ni 3.203385076363 7.196625201013763 13.007257920005607 -0.18951138603269296 -1.4587362044911587 0.4022735150632104
Ni 2.5536807772651358 8.213057140080329 9.622853940425458 0.6501137187437835 0.43665327809466087 0.2106232283106437
Ni 4.851274873278325 8.58554098800628 2.9116837033140177 -1.435443038291173 -0.6435851735966465 -1.132063921003031
Ni 8.337535137155857 2.0210562720669762 8.581312389083838 -0.764328034705374 -0.6969070249482384 -0.8344728711515758
Ni 0.7630222635024299 1.1509371766060852 4.182544646437148 0.2744022704398177 -0.06452157672215339 -0.5147718767749586
Ni 5.757979098159814 6.825543506308168 11.985873243675826 -0.6304954302922239 0.486396153845743 -1.331078875650785
Ni 8.344582802026592 7.919785724412238 4.5403012732032435 0.5338895714410159 -1.8145550276362556 0.8576611363425809
Ni 9.036268675504976 4.592559154738213 11.652891372856502 -0.07092850868976172 0.3549515900487952 -1.348952413497096
Ni 3.5384074491056303 6.187406971278239 10.583470034160403 1.3323459152886667 0.2699198091884319 -0.6610077399484681
Ni 8.174497926520546 2.6748747839035154 4.12226128265409 0.22360678505450524 0.053194067524476134 0.47046662709968007
Ni 6.806512966218735 4.780069473884076 11.932138488913363 -1.0057502506747453 -0.8800089079101617 -0.7994367054830489
Ni 1.9097788095857176 2.4273301676650525 8.386475819361616 -1.8066409149955014 0.2340737460241001 0.3086542496441523
Ni 5.804148682816923 2.0537024579014433 6.231821097002231 0.21349797875527748 -0.8650072922950072 -0.7242242247059527
Ni 3.4814080757597217 2.7605721748055214 12.995201247248996 -0.5868481259159184 -0.40872569844645734 -0.4955389966872756
Ni 0.12522704208535054 7.954009332619605 9.600698997074613 0.8559773208822549 0.2867026850737256 0.47489252408151766
Ni 0.7900146354635018 7.931750150246458 0.2757823216518245 0.21618658133103413 -0.8091472479025935 -0.5250490903312506
P 2.412183223008315 1.75504382196567 5.551762948091337 -1.9911232232447191 0.47468709293893085 1.653529150637765
Ni 3.96337979587253 3.361127313653021 5.3396845061048595 1.0249875016378025 0.26715613040036573 -1.7463524025180892
P 5.101374729267042 8.117249486484178 10.31379538124014 -1.1942702193284465 -0.22394231401705303 0.20266617824709615
Ni 6.471066257633101 6.5123190813267255 4.338916094460426 -0.02000472525670103 -0.40714549844353104 0.33439742004652734
P 3.778738356013053 5.156344670320331 7.826051781631457 0.41440346555752505 -0.13199169454966944 1.0241441798009008
P 7.319415079409522 1.8763485249109202 11.9084439444278 -0.030698200414805196 0.4638470649006334 0.7363768009080865
P 7.196569852860328 7.572107073917449 0.10419751118768614 1.3081315228259922 0.6023043125699886 -0.3375557631698509
Ni 1.8470047788980806 9.17413170101956 7.102275048791405 -0.44678856675644985 0.5365532343161082 0.10299299332447424
Ni 8.678821075928893 0.5879505193718806 10.717821219339527 -1.4138347159927778 3.684013649288926 -0.2112564910192684
Ni 2.2964686835600094 4.3783249021754385 6.451136310050348 -1.9550416470308136 -0.5439284437342568 2.1605283254458403
Ni 0.5360782299725094 2.9143754685094114 10.124790661951527 0.7452522490208455 -0.40370201997962085 1.2731691478181943
Ni 6.602093786198449 7.486335885477529 6.557201821416468 0.26595054012803876 0.09031822607028316 0.21013908958537358
Ni 3.7190545972255418 3.7634807150494445 9.742057258478622 0.8717875484416342 -0.8196090666658659 -0.3812912563845885
Ni 1.174072704741955 9.093720058770604 11.710055868193493 2.006091157408461 -1.0046891564000826 1.2055928434301173
Ni 1.5034218917574886 6.435320575206269 11.450858620718494 -1.7460886073337414 0.7074562612189944 -0.10352546878917654
Ni 8.604756021940496 6.654656082577312 7.529887502477158 0.9970900038965862 0.1634725387667701 0.19280085541724215
Ni 3.7011771436660057 2.159740295190846 7.3966303657975985 1.4061316909215655 0.21472902294890117 -1.4127347980603797
Ni 3.5197366720135252 1.9389288370615343 2.4715966983132183 -2.134184545344989 0.5264179456543192 -0.5910125417062532
Ni 6.213844939235736 -0.03298749944731669 12.036665321613988 -0.6675275433448569 0.7998015450216355 -0.34763423045177544
Ni 8.193915903684024 2.749225803351327 1.7211283184790915 -0.1651362996224382 -0.35659992428549553 1.4330164311275513
Ni 8.090313385145766 4.431966487546284 0.30466298811425707 0.2414013900337649 0.5114461548358353 0.0340491191649091
Ni 5.588705995570815 5.199968239919425 9.610027928336098 -0.630747655512346 -0.9344399331655328 0.814784391583713
Ni 2.969031770026568 5.566908047809627 4.732545704406255 0.6100821567431945 0.6806167724286473 -0.7955589676951976
Ni 6.837166618529538 -0.04392706197376324 9.4893809459475 -1.1336225237394026 0.8619805896535413 -0.5613551238511364
Ni 2.771365064725365 1.6424933519554041 10.812653822965995 -0.6686210335193516 0.6416840999191916 -0.8953676497544193
Ni 5.336927245594567 2.38402946229433 11.06851634419653 0.0617211311588808 0.1461129644424 0.47850646668502106
Ni 1.1953725191222275 6.612609935351118 3.7095679237267665 -0.950652281259337 0.4184169575922923 0.019062158837773624
Ni 7.108566288898527 7.824264036275503 2.523616582788416 -2.02520808074357 0.10783386635654332 -1.4437322748831587
Ni 4.386110542425308 4.918467531548531 12.37383243530223 0.34372795341883383 -0.8539929434623744 -0.9319883863012466
Ni 1.39462587148857 2.902494064905344 1.4183757641275692 0.6183361692218706 0.060271028975915554 0.12096243331870135
Ni 1.731991316059953 3.491638259452975 4.147630108781065 0.46691773340615716 -0.7891787752004666 0.5255404281453724
Ni 5.116604696153932 5.580662063938248 6.085143878053109 -1.5914907453487817 -0.025200153414711438 -0.49406086947985234
P 9.455032804394905 5.981585638037599 9.507917965002138 -1.632568232115382 -2.2910994854988993 0.7384329121061669
Ni 4.213009192557048 8.970837933452454 6.577994277723586 -0.47049285235192523 -1.2680850484270676 -1.325826369002594
P 7.465635676092804 3.2831786642319285 6.580194366822631 0.9414274202269594 -0.5931288167183075 -0.6535214588737519
Ni 7.107800639442674 1.0165149612967177 0.5694291822940498 -1.2628824211802057 -1.406044530524398 -0.040819605119523254
P 1.1212244429036784 0.6268814880289025 9.186978929901068 0.1980705884566137 0.47307038327111434 0.07150957800421233
P 1.6845026004126413 0.4085883708808874 2.259180632590786 1.0716175427915158 1.1116902424426856 1.2690774942473242
P 4.294730741103966 7.3103748810151234 4.750353972773998 0.4293500595650283 0.9213008246804134 0.21262277523917572
Ni 1.8150227709048345 4.794755183928854 9.078469797560789 0.44798130151297044 -1.3484875580455356 0.5412807216987645
Ni 0.058982682177333025 1.082794375035244 0.6015062046173593 1.084496455636713 -2.004638998342967 1.0404894539281435
Ni 8.290507656120505 0.4709537477023286 5.778421938631067 -1.503421463213675 1.4705385964427253 -0.15841466462788847
Ni 5.692502232646097 1.5821823140956288 2.8825751869532774 2.752047631585183 0.7528650283710969 0.0197121337169467
Ni 7.745595860859755 3.898530209431077 9.708249683891243 -1.377992509483188 1.5830593267519768 0.41933381297960687
Ni 4.373998521515261 0.4878699883305415 8.782549050281604 0.6892479657410839 -0.20907388154565285 1.6305180344545727
Ni 6.70782720864396 5.002181613619112 7.517574383276298 -0.033973014511335047 0.37424180573697485 1.6514660974611495
Ni 3.591301834405103 9.149058987513461 12.045238750581087 2.0847224340591195 0.045765122050256665 -1.0394306736463261
Ni 8.172367022613294 5.2821879218472585 5.665024641873244 0.15523292446579717 0.0969699270588459 -1.8623171255118829
Ni 4.681300694079148 1.198536588560267 0.5653509458551073 1.0990440144335845 -0.41607699660520603 -0.0535499082019981
Ni 2.2902604656830396 8.57876083921048 4.602204492943502 0.5880781416682775 -0.6353368175449252 0.20761143806751342
Ni 9.425790529996698 4.583251440268878 2.9364852108682844 -0.550369057153278 -0.3133128314620862 -0.9990101037374342
Ni 3.501195040612768 4.6533406519021865 0.9090629786870479 -0.24037500565177958 0.22896367849104438 1.8299713621913258
Ni 5.731707174662623 2.737999352896242 8.673161727240155 0.6300915099855858 -0.17428479889092566 -0.1609024640467487
Ni 4.758539042197824 7.131554221958569 8.306129672427561 -0.40027731056878807 0.009957111212711884 0.053313880931792054
Ni 2.433999620153982 0.5297823775192673 13.90077175745429 0.2264761361825003 0.8710653255636289 -1.024830664344964
Ni 8.109703688232527 7.77103756205542 11.538508878967534 0.058962594577137165 -1.4565101433741172 1.7561925285369624
Ni 5.959852263122085 -0.15802820274943571 4.669494932951443 2.6941175920376184 -0.07121930045730315 2.186925584492446
Ni 4.020803505061441 1.0222250457927715 4.564549299223159 0.6683739505055522 0.26421787370764815 -0.772835815066069
Ni 2.0314893989894918 6.601023721898705 7.696506661108944 -0.18216702985247982 1.3999772412843952 -0.7351814950484048
Ni 2.1138566759931523 4.028063337853678 11.54320701472495 0.8973124321856158 0.7138259121907642 -0.14995470678599337
Ni 0.2962675957073771 2.340793329769282 6.549857121455632 1.1992039091846378 -0.606264325659001 -1.6058426431950794
Ni 5.1955680617213345 8.15481243328213 0.6283611286640675 -0.536366829336915 0.33653349255292364 -0.105421914480941
Ni 8.630622058979164 6.374631324964687 1.4585290045062829 0.014754018380722978 0.06317226178311056 0.14955644290631018
Ni 5.980617045352484 5.88644216228267 0.5950821289419925 -0.2899844411487909 -1.604381742378837 1.115676480783943
P 7.869179062788083 0.6695733637118391 3.182195035820374 -1.4355222282685407 1.2604722690768164 0.5005819584278218
Ni 1.0081020419745832 5.032862940006634 -0.02395468080670916 2.006532615821254 0.5607272604591503 0.9320364659303625
P 4.869447516989515 3.6760859807754294 2.7489804265377646 -0.027045948374198582 0.5606676108658086 -0.39669602097543294
Ni 6.229563814811303 3.8315866178513294 4.500971797841489 -0.9486563338752305 0.42777011667241815 1.354322162449442
P 1.8300036711012673 5.890242735485214 1.8300027486320432 -0.29764350035594545 -0.9070417436582379 -1.0555761730579372
P 6.138008744337417 0.21934934440940151 7.30880391592679 1.4459693917437935 0.28193843091586285 1.0565848168281093
P 0.7555807042730812 6.879452607753951 5.82604072243895 0.5576571061742589 0.2736358245874384 0.31482232612807715
Ni 7.029446103563058 4.727295009583713 2.5859653551638266 -0.2822197096017075 0.4457508695205549 -0.8563874118364799
