# total energy = -381176.0460763812 ev
CRYSTAL
PRIMVEC
9.21817834997089 0.00000000000000 0.00000000000000

0.00000000000000 9.21817834997089 0.00000000000000

0.00000000000000 0.00000000000000 13.49173580293320

PRIMCOORD
 96 1
Ni 6.502134081866508 7.3249025653033275 5.832018627231591 0.4185262294766469 -0.9974988092992305 -0.21705612842018104
Ni 4.1688565038924175 0.9955908858509535 2.489670421618078 -0.6122639948858617 2.3879562840186486 0.01644606137116522
Ni 0.36147610384181716 5.9219972633508755 3.3016434967197585 0.13271237476577788 -1.9472668881814013 -0.040211796332195265
Ni -0.11379564279292487 5.070633991547902 11.308489360936731 0.8075943015931769 0.8574775595768652 1.1885644271929208
Ni 5.7788020852464825 2.956518597134512 10.520383070670256 0.043656817458002234 0.21211241126166047 -0.3150830359886315
Ni 3.5636370228544427 4.181678989584654 5.142941380311315 0.26360877936873955 1.73704063819886 1.4075964483925498
Ni 8.936710218627079 3.1093006804293624 7.108012662636327 0.25973695511815914 0.5712656980966291 -0.4411305971397241
Ni 8.280929030887508 0.16088854908762748 1.7057602460080419 -0.2697493450488387 0.06838105967755966 -0.009706942875118765
Ni 5.634279489500335 5.448450237832609 4.123816485853402 1.0204160802170361 -0.763222460346021 3.4096250056958635
Ni 2.9110637610824486 5.767684962496778 2.65039765258952 0.2840315659994657 -0.09141891533362966 0.07178031516709574
Ni 4.338802834749414 6.484831561633346 6.421634498254288 -0.979802677571048 -0.46509045038943125 -0.5079551109634414
Ni 4.061870329238137 1.9473493349897666 4.707253412117288 -1.3464314468474552 -0.22235080116021708 0.897940295577602
Ni 7.582015987968946 8.864485793466276 4.077242562983914 -0.09343671709460682 1.5425269138555693 0.8973234879292095
Ni 0.6918002967214877 8.111941390549559 3.4987714692451224 -0.4122383395854061 1.7950665798943408 -0.6453090982662887
Ni 5.702374170886786 8.185345742503033 11.953475140341164 -0.9158547139641775 0.005589835382951663 0.3650989628954422
Ni 8.980551873517287 8.78109815466543 10.281350182466719 -0.5254748650147596 0.6750796446605019 -0.26609092236064497
Ni 0.11768110484848052 4.18738504180859 9.169981745538275 -0.6033741485953995 0.35214240273477415 -0.3271325109539979
Ni 4.896880553148926 4.391752049570556 8.801346804609045 -0.3609265766853074 1.0889089828821117 1.1916134984318898
Ni 5.806133983217355 8.6782417237855 2.303160868408953 0.3987073949785069 -0.8258527335827326 0.9153255809335848
Ni 2.517613484794842 1.1905184792715462 7.793312300184438 0.7727170301000176 -0.6882285233376341 0.8226684223174799
Ni 7.040300535639686 2.831584629782328 12.695614985672814 -1.3028430207335433 -0.7779911340147634 0.45084293933148156
Ni 2.2965431383741164 3.6832244469273334 8.699107069841848 -0.3523349783615545 1.7854773935440087 -1.939342491128002
Ni 4.593602494720027 3.650721151060455 3.0943561701459297 -0.6919180563740793 -0.13711204649537032 -1.58371727205095
Ni 4.8746186531153155 1.212006052347466 11.824899070834412 -1.2508483728338071 0.5140694513912953 -0.15610298577557633
P 8.854668433824125 2.6392196898645692 1.6041538000740998 -0.8211028776025728 -0.13708787812565423 -0.247461994405548
Ni 1.9081075509553647 2.198397196486807 1.1905581174372373 0.25011974374336926 0.19149062124625085 1.047072249351984
P 6.20937396461291 1.5785300304991816 3.462289607724204 -0.18371123441114812 -2.396924034734898 -0.7361343458799774
Ni 6.935664996392682 4.875614216346632 0.1463800586267994 -0.9433480342884398 0.5528074913914415 0.38953781266409687
P 4.6948365262600324 7.205785268311892 3.7845801584178327 -1.2425069428476472 1.6586392181708207 -0.47777421650468677
P 4.481196031361912 1.9254285075446627 0.4796448503100815 -1.1257940288339192 -0.13484896149280648 -0.3360287850023632
P 8.132166073230195 7.905279056448722 8.32352346628515 0.37301461819809306 0.5078517526163576 -0.35475772887043416
Ni 6.393442544269695 8.409697760315876 9.661471954665412 0.723012978006671 0.505107357102001 0.6309443449041843
Ni 1.9807099214169455 4.807160026015538 12.987022796203874 -0.10271814239653278 1.484073911924999 -0.1026644063404619
Ni 7.208440103595404 0.8846796109754268 11.294619690215999 0.42967941787998903 -0.6272866935469391 -0.02541304075646591
Ni 3.771543810994424 3.9969006102166516 0.774718730258685 0.4349005570696123 -0.23493095181807283 0.24898794413177114
Ni 2.275203056147281 5.873445119468048 10.61093968655439 -1.2717977213919647 0.14346627084817226 -1.7054026995786047
Ni 6.394926670938602 2.4921344406155868 7.30126807855543 -2.0322996974830287 -1.1442200967495908 -1.3815979674462593
Ni 0.06860352481579184 1.310566812247824 13.194458535444593 -0.5922271308396446 -0.3397738538670923 -0.3623303990113695
Ni 4.374329693022513 8.108032883048832 8.15112602187994 -1.0207739777770872 0.7760453231423021 0.19855369874061932
Ni 4.868175146645959 1.0403359221918007 9.240435358692263 0.40760006948244637 0.09522646200517794 -0.6477719579844844
Ni 7.927199883893826 5.381387992389744 5.079355309817798 0.17474271236395067 0.4191962589604781 -0.2087648349456663
Ni 7.059981345814327 5.481921442396601 10.039429239074554 0.37895386650066354 -0.7240056809372435 0.6379264326489723
Ni 0.15575955481073264 6.5592499131742725 9.634435038392708 -0.9045855688082614 0.2273549392430278 -0.9967732439871155
Ni 0.01811095444970388 3.5357335978433704 12.947559775895845 0.1313545751863028 0.10562014653467616 1.0419428985452184
Ni 1.320623844519737 5.626877292511933 7.3771051077009835 0.4456989332366969 0.38155916533399453 -0.3507550354689443
Ni 3.7169353241210867 4.331566564966232 11.425057831692435 2.348623547857297 -0.22115343841800622 1.0345995708062699
Ni 1.85406137294416 8.058946084838077 9.361793594771967 1.8078629603280607 0.8211635556371792 -0.20605360666209033
Ni 3.940577542222713 8.785329298398526 0.5068228047072221 0.84587828477504 0.4165094561569343 -1.3881511951837449
Ni 8.759951654178018 3.262239472751364 4.5050121162177446 0.22555850946423733 -0.13247557616462347 -0.7810810857939967
Ni 8.789468260350946 6.154313787014252 0.48507804446321195 1.4917694807970436 0.5119819727346473 0.4549752163323003
Ni 3.1214963300129925 7.266486970888011 12.121865442740322 -0.4971893878065051 2.0923724944052093 0.21494756671761048
Ni 9.132522757142175 7.720131949958009 5.894539076340476 -1.1259542085608674 -0.23955199552985196 -0.054453908073506224
Ni 5.991585289584302 4.662738830228135 6.694005849257642 -0.027051090580521152 1.3802170279383326 -1.3496849207877466
Ni 4.651123925862773 6.147003771806528 13.115370254894545 1.7417015340096391 -1.400540312876717 0.670693342667348
Ni 2.097043328631921 8.029540096801961 6.751224002341959 0.8925157821279209 0.20632640070750272 1.0168221922181908
Ni 0.7942004277870629 7.411829984482189 12.117709888067383 -1.043799749248299 -0.7999072173615643 -0.13752599410433733
P 4.551291057389065 0.9302893124190287 6.893629182585946 -0.23949877369441333 -0.0694732643004739 -0.32535279334575584
Ni 5.138332291277441 9.132024975526518 4.878976085887939 0.6994184785161826 -0.740956449858969 0.03516960592259749
P 3.264949617103282 6.116298020662861 8.515308582802447 -0.09836500763415962 0.022687928515818988 -0.6034517959108705
Ni 7.7747588731874835 7.098817530013749 2.7338839258956904 -1.041192136422123 -0.7305763921762256 -0.6707295952219222
P 8.354333382840982 8.59713097496739 13.088021764203152 -0.430635096925039 -0.4536819514421735 -0.47237181454219296
P 3.9767773274947587 8.785624280096695 10.664150697632655 -0.7026614109335125 -0.4635801843924919 -0.5037223038290164
P 1.085919812736813 4.327003566822697 5.592648353710772 0.21337893667890995 0.7347845167203023 -0.19895247684093478
Ni 0.7270837950935988 1.4646855313624978 3.0732013732982555 0.35955874980350333 -0.730796992827464 0.996052306660691
Ni 1.0067172267787248 1.7348979850623858 9.678728384008235 -0.9047763446628289 0.10329406950466082 0.1905223437957106
Ni 2.554827269654339 2.0516161471140606 12.59328030367152 1.0903557426309674 1.8385189946510205 -0.6431414011910085
Ni 6.58185288579639 9.272934045470109 7.284431076314689 0.0748844080137162 -0.4143931811448799 0.3231809825054176
Ni 7.508842090467165 6.7412536209438825 11.978839879112378 0.5067868016869529 0.1597261843504604 -0.508680162054924
Ni 1.8058779561840428 6.5717589808122066 4.889512463419375 1.303542360793413 -1.030654984336225 1.0373143986342714
Ni 1.708543213966695 9.52606521521046 11.632601423616547 0.542253112914363 -1.1372230966064674 -1.3967764749589107
Ni 6.2814601171026965 2.7141081684869515 1.4843746378973999 0.5287998156229345 0.2063760229985155 0.8343738836798662
Ni 0.8451677343236399 4.41927752928085 1.6003088980020423 0.33293420523743955 0.11604725540527111 0.0720255984086824
Ni 6.204045857689752 6.600657969054596 8.29453045262647 -1.5718338903498026 0.3822747033437804 -1.591709546227807
Ni 1.498258135885235 8.845090746811735 0.6662041816807727 -0.36025397609831505 -0.4013666869782249 0.21521856099081
Ni 4.0171529474314935 3.0814341281305615 7.236279001360002 -0.35279212050363107 -1.2378470754781328 -1.524884775293774
Ni 0.19996256228119635 0.5036978423422556 7.407097371862207 -0.4393423948910498 -0.26325730956659177 0.44570818920807753
Ni 6.056518135893517 3.0769448754115682 4.784371768014259 1.567401565610062 1.7204444244030757 1.9485228720756893
Ni 7.459893564927425 4.616730903492006 2.6400493258906663 0.5489102132195643 -0.5821041834730297 -0.16276111452204228
Ni 4.6870840385050565 6.502862317933861 10.23241548419408 -0.03651223599342099 0.19833824029570354 0.7041320819417679
Ni 5.403631456067219 5.7796685939848516 2.018592946004161 -0.3470562464611184 0.599625994406877 -2.1822389776500546
Ni 2.0022159308490006 3.663967672943808 3.6168102394026316 -0.6083921706352812 -0.6430436992708796 -0.6484247610771349
Ni 2.9601505592932047 8.286754919426325 2.4916136135547595 -0.15604307907191833 -2.0424498985431536 0.31945699668661104
Ni 8.113904862477987 5.863222159990916 7.413357436588014 1.2176261204455674 -0.669699354185195 -0.16234356736864944
Ni 2.707378898497496 -0.19797327945417642 4.588107538773842 -0.5850506676958633 0.7282140625916362 1.0018740555487908
Ni 1.714240048012563 2.1840260568791883 5.806559863044084 0.5197765290784017 0.14191332453875558 -0.46315389548835073
Ni 6.716124867531203 7.422126689383863 0.5908040941756305 -0.4372055510537051 0.24157108284240977 -0.1232175479014652
Ni 8.10976590052557 3.0295173492530063 10.782419922241859 1.2106224354342245 -0.18251104345545988 -0.16049674396789776
Ni 3.272268850489074 2.4604792171309415 10.134317476832722 1.42125286283372 -2.2887790648958393 1.1043800819345173
P 1.7716969519088344 6.63841562642009 0.9772467114961355 0.05544583967313032 -0.10811308815985897 -0.13650886569373263
Ni 6.276132010179538 0.6941500103109567 0.09555839930369285 0.9842368020830017 -0.8389872140821616 0.8905221487366599
P 1.724112716723121 3.745963366856424 10.88749332494708 -2.0323513766565706 -0.641582798454637 0.5645538332940921
Ni 7.731073927324426 1.4928747198936703 5.742932310749263 -0.03996317065649892 -0.4331311238740153 -0.764870023251773
P 5.836194461896279 4.796420848566611 11.71576413887254 0.3351672083330163 0.4761590494987671 0.7053950078145916
P 7.1148110689612905 3.988963758900321 8.505553906771157 1.2127291973645824 0.2702288557884185 0.28832402272723245
P 0.38333609131167395 0.5946379344340068 5.121138545545478 0.20498839862236956 -0.9929842092583285 -0.20425743399361596
Ni 7.736835288616769 1.78251909296037 8.922975133306133 0.6015185834438995 -1.4643766906063878 0.8489106438434605
