# total energy = -340867.3036918185 ev
CRYSTAL
PRIMVEC
9.33251210082646 0.00000000000000 0.00000000000000

0.00000000000000 9.33251210082646 0.00000000000000

0.00000000000000 0.00000000000000 13.65907480433633

PRIMCOORD
 96 1
Ni 8.208868306588156 5.590566710643352 0.40180477550831506 0.7445837621989113 -0.7287303401064223 -0.6158419420451071
Ni 1.7218671466226405 0.8976616746627061 8.629503291751329 -0.7149605400158396 -0.43665096410181575 -0.6714191650897792
Ni 3.983032169701268 1.1832972061100933 3.211425669162131 -1.063086365392053 0.2305168819107772 -0.22786324633801402
Ni 2.538275304726881 7.461558068038142 5.5607045384405405 0.811089716340945 -0.09288675812840777 0.7716739335474838
Ni 1.5581095568849277 2.7917649982617165 3.305509523349331 0.9001419312146111 0.816046031904956 0.44833765641112466
Ni 6.32173170326835 0.7014820046544179 3.7846836238820125 0.4084719305644384 -0.6040930290392951 0.03536706664538425
Ni 8.898372965219357 1.3534755641694307 10.921809974441045 -1.7292957041461186 0.45069844333381737 -0.36941918753735087
Ni 6.697132002305193 3.132177709452963 2.7244253239862593 -0.8364492781516563 -0.33183737262883495 -0.5180903996252304
Ni 6.7747038428420305 3.1706836543585197 0.1634197527998598 -0.5027913073743147 0.20014649714903596 -0.24485463868968796
Ni 5.100497835490518 4.978979195496517 8.036207500311447 0.4904746947904907 -0.5629273534342628 -1.173095127912728
Ni 6.824782102745864 4.982152249608948 11.997885015836056 0.4952559182292181 0.49734236844460156 -0.8402673663461657
Ni 1.5710164211128446 7.361541535911907 1.1624773048765 0.5737401277790506 -1.2554537328163022 -0.8457307034535823
Ni 7.704511355417289 0.8870254106275963 13.086281772950603 0.9371020533787281 0.4677188891512138 1.1757945291217622
Ni 3.614873900050443 9.182295980697242 7.041416772764816 -1.3858968519319295 -0.7286105266991064 1.1761555120056066
Ni 1.1142832791647246 7.175740552604895 3.8192279174030785 -1.186391587911318 1.3983129662080949 -1.3419227603438244
Ni 5.533955692272749 0.2580364934277065 1.3292399635089267 0.18864081050228157 0.39080330964008175 -0.19123376804043843
Ni 6.620689395731899 1.8831982832155532 8.871159359949216 -1.6964125802648524 -1.2675926821716814 -0.0316425666059455
Ni 5.413491626145526 7.751677871547362 7.931633902529033 0.11364430239073331 -0.7824717954939364 -0.5728273861567942
Ni 9.102521667305895 6.795011389161587 8.308405147592689 -0.29832612824526683 -0.018362818777903862 1.584624871466884
Ni 0.5097371443938565 8.745385094439719 10.144376253349549 -0.14300732893388274 -0.787527869860605 -0.5673295962670165
Ni 1.1034202350856972 0.5023084647659304 4.265646766983379 0.6930873940918322 0.06654812023387893 -1.2136414247662066
Ni 3.0145133969543547 6.216852932340419 2.8673536799782835 -0.2991619938830009 0.250625222624878 0.564711441917879
Ni 3.241526753674584 5.622334581816042 0.4388837793144874 0.5638753191698289 -0.5800077059553171 2.2911221112067186
Ni 4.881445111587653 1.7655153056927542 12.669707363800132 0.22611438196770736 0.24792556430552787 1.3169131256733642
P 3.626548872681769 6.389952366685612 7.23936402056397 -0.21794110212829562 1.1889611484107074 0.1161182178525226
P 5.785233580440979 5.224694906455896 0.24829895030738228 -0.5428575792675812 0.5349437237371433 0.7124344311598763
P 7.575228065359926 8.197286659077783 11.64582252979614 -0.17443675108775764 0.7967524737826666 1.6085986086736617
P 4.171819556878802 8.845886917194914 12.495239783181756 1.8713404120564159 0.7785614046959366 0.46052031452024556
P 8.77967274387816 1.1234571385544876 5.572329115506552 0.16605598322323015 0.19931114573193418 -0.5099965668735023
P 0.8292655600180519 1.1613658026859397 12.572932946375833 0.8358833783458572 -0.7780469269533633 1.0701088194564732
P 1.1367746333146014 6.195220169303317 12.811037060470216 -0.6507261555168019 1.5861721613493458 0.5822124269161199
P 8.553200672859465 1.1165697446280938 8.743201286609398 1.5568710983923832 -1.5016378889506912 -0.3927388360998978
Ni 2.7112067538543565 0.45742188134075934 10.675058354639077 1.4503276687124893 1.8337537120518936 -0.029575142553955512
Ni 4.0012305682872675 5.6882127846973605 9.9339449041204 0.504853332109666 0.1779031123698033 -0.9321747912804398
Ni 4.581068877285605 4.217184898174466 11.947551978352017 -0.06976379895769921 -0.9491535852266236 0.9960870165533683
Ni 6.48347347039346 5.013724138027634 4.409408516305521 0.9972152166205406 -0.16626578524119104 0.9137451238203425
Ni 0.9956017228477193 2.9894462694661517 9.803568776896666 -2.183213939968814 -0.35106845294430505 0.12981602705458936
Ni 9.262182284233733 8.805113171850179 1.7305501158761862 -1.3259680367867808 0.39897658947949355 1.9989072380655122
Ni 0.9799137700153778 5.0184090590995165 2.207976236893402 -0.40221720790397825 0.20645238476240577 -0.12280128629965302
Ni 1.9766073967782571 4.250903264375091 12.773693946571745 -2.2549037523046325 2.4523369642875634 0.17352632345834632
Ni 0.8175383253189916 4.660983178358384 7.12970886994562 -0.7760003288369798 0.2946556213722151 0.7461919872262955
Ni 7.965513721188909 8.558846842677172 7.331412453863167 0.36329404847621954 1.1269973051134008 -0.5307248005597891
Ni 3.502519786934108 6.253399049705945 11.985551167850796 -1.0512672612699379 2.3168359710330546 0.7422705406847023
Ni 4.431739351247357 8.158584731418223 3.7150630836504432 -2.04846113773424 1.0968092115657948 1.1127904174853995
Ni 2.130276540940859 8.433744518038543 12.418530266762534 -2.2505449611153043 -1.3638452714485285 0.6402018589467103
Ni 4.370984697506404 5.959135610826374 5.128517769805701 0.1608466711081488 0.37123027260416064 -0.5878140893736135
Ni 6.797764480229726 1.1962787304347733 6.321515188987737 -1.5725188322319692 -0.4992817515591595 -0.27482290291700406
Ni 8.469086741343764 8.345953576757259 4.597030272722342 -0.37430171244063276 0.49260896752467415 0.8393371412224124
Ni 9.128195408080297 3.2566080932207253 0.8818206686320005 -0.5441606143497209 0.73202058082192 0.20450580255899614
Ni 4.312936472273112 2.88129178679274 1.2224984231667564 0.5637668186164225 0.02356878845887554 0.03560952167349351
Ni 6.427758373184014 7.469677353561127 5.658968424795264 -0.4531265931593357 0.104346164918259 -0.7008004464653738
Ni 5.306653027677564 2.754481612440655 4.951414687771589 -0.11898268388451123 0.5535952774000595 -0.8832700951599369
Ni 4.485233310578102 2.437521504145109 10.136303630387042 0.07627460349302348 0.5745618523493976 0.519245596275596
Ni 8.142448818005304 6.425695888010934 3.168632368199954 1.2959843459404972 0.056861489073734325 0.35692105507034017
Ni 8.617902979216765 1.8289390578929876 3.224784226975464 0.7140012614263639 0.0938627488884319 0.9845160238863173
Ni 4.4402599347904435 2.534383647183106 7.153380786875564 1.789441006177447 -0.756830183666432 2.017179811122455
P 6.276590342262976 6.250981929073241 9.530100041468033 -1.6325998566842657 -0.935000690765009 -0.15735537012543868
P 2.2096775538483913 8.858569801132541 2.6532751850222573 0.4097945060306039 0.11632467743637386 0.07596581400335303
P 8.418000570133628 4.341988582426044 3.258754571002664 0.1291467689017066 -1.0952639785658622 -1.4181765379012414
P 3.4389467145403487 3.9816042953506745 4.361301282956233 0.7223378063165173 -0.7104896487286796 -1.6304941231951724
P 2.2370218142878677 3.361664181878469 1.2453472125298861 -0.38043687880409316 0.2972910021125332 0.18252929828790498
P 9.361629533122152 6.916959324711978 6.227896093902888 0.44674048712733383 0.5206617598968324 -1.3468371669263062
P 6.452162892313445 3.784641627577583 6.6072907081165555 -2.5140367552902054 -0.5956109597102129 -1.418219732434351
P 2.7435905708253414 7.650392117776153 10.349426476104501 -0.538734301127827 -1.1912954529708386 0.4737599531389712
Ni 1.0438321453566668 1.4337538332139286 1.2591089348657403 1.0428741521102363 -0.614338360916387 -0.549857150513866
Ni 2.854348824373365 1.932651264808996 5.557235643694686 -0.93893756392557 -0.06229911514953786 -0.6508896776778597
Ni 6.875131005500463 4.0968234896802915 9.48058639854597 -0.4148063574228985 0.3141342989221171 1.2347540383751057
Ni 1.5697845295162538 5.607673205314192 9.479835131322293 -0.6003651865657468 -0.5742960002825206 1.042665635643856
Ni 8.161636462873416 2.892668119037014 7.241576759181786 2.494322050470098 -0.1985236168336323 1.3073697049593034
Ni 1.7868680933669938 5.255986819511721 4.817145969752872 -1.284226948294253 -0.609733258044208 -0.21204581968978317
Ni 4.800056273603804 8.400884742950693 10.15268125586323 -0.1770093969109403 -0.06712867532769728 0.5084001689206599
Ni 1.263183509646585 9.140122358538198 6.448859183031679 -1.692506303231911 0.42844066037688144 0.8131643394817866
Ni 4.7598798090331735 7.137803890937157 1.538503815474944 0.26432817403326736 0.10531624214101216 -0.6487386927731279
Ni 1.895909164689467 7.636607997411271 8.45170307106369 1.4613736421140058 0.7154246241364517 -1.973448945893408
Ni 3.1816213585343105 4.37317783784882 6.439242962568595 -0.1610598155602194 -0.12394157055168331 0.935186324413254
Ni 2.79149435541095 3.7130799248301747 8.703630502073759 4.440195400738083 2.4389844542400576 1.2472799387562583
Ni 7.215105088623227 8.105436075035009 9.649576727815566 1.1199046599326778 0.9877139619983247 -1.4878644893156827
Ni 7.176860454056341 7.359572375859781 1.360123112534973 -0.22585084389367557 1.792025993295804 0.1913633516397672
Ni 9.075998667930811 6.71171871871028 11.097138012674616 -0.05824114303008034 -1.2822523410663853 -0.035814438595448
Ni 7.432860593344835 5.567170102820223 7.076097320962474 0.49327411191249887 0.6504806151648991 -0.18697293588155542
Ni 8.974899564401511 8.116803074767187 13.221520138976029 0.9264813404400882 -1.0179637620218018 -0.022034354092220116
Ni 9.002393145034514 3.621807956537314 11.855065850235547 -0.35953175322030984 0.38000467636268104 0.5268344643664475
Ni 6.168762497512902 0.6193857622537391 11.407799608556985 0.7250161244796288 -1.2587709701149934 -2.4863467455741053
Ni 9.056960343256227 3.8050611640422844 5.136098569380782 0.04546661697323137 -0.9557782896319929 0.3488742735064636
Ni 2.769394966769079 2.356048673552402 12.828261144793458 -0.2782879786474691 -3.107965185091673 0.33456248486948187
Ni 3.123143837744631 0.1739934890039305 0.7352806304590626 0.5709286264721846 0.24274890520059483 0.3806250835554993
Ni 4.905317677527646 4.960659474253276 2.663861053492052 -0.011745056351070095 -1.0214663758584217 -0.487299896606935
Ni 6.011873636677393 7.637905216592529 13.117342239706462 -0.7973122029408786 -0.007231741861748836 -1.4497746244224967
P 2.652150617314763 3.794991383491365 10.846848437537288 1.3157350462048631 0.05085667764055113 -0.06337820714632957
P 6.944238257566786 2.735489950326547 11.541098678568991 -0.26296934601252775 0.02516004420539538 0.10243454971784295
P 4.447091333644265 0.8546835899610412 8.730388680753645 0.33887036821621636 -0.5549453636700508 0.7423304473883603
P 6.1548850520270655 7.230989024209571 3.346541779279108 1.648188712261458 -1.3435986053843505 0.28639903779037773
P 7.560818666684653 0.9441795812021504 1.6400863431307857 -0.6085088987188036 0.24307903484650398 -0.25943767871018547
P -0.5358355144685994 4.811544595993222 9.15821809949115 1.837455586383513 -0.03273399989791136 -0.07254650390915893
P 4.612258132708381 0.4842948499194192 5.408324214198312 1.7312826526691603 0.9974227046456563 -2.334911340477527
P 1.750443298658708 2.6672132918367137 7.484831486701612 -1.8517565763872175 -1.4109224274419894 -3.7777005347211263
