# total energy = -340889.4761903975 ev
CRYSTAL
PRIMVEC
9.12559627606129 0.00000000000000 0.00000000000000
0.00000000000000 9.12559627606129 0.00000000000000
0.00000000000000 0.00000000000000 13.35623257942774
PRIMCOORD
 96 1
Ni 6.883336981780948 2.11887222775318 11.336890841394673 -0.4719552958300646 -1.0358326718824225 0.767969231002387
Ni 4.943636713714688 0.4606318168442848 5.874979568625331 0.1917400182528956 -0.052839769508850935 0.018157130525000988
Ni 2.8885889071721795 1.7174737445715125 4.856312969218401 0.23534515653735597 -0.1850844606095909 -0.45598925941911145
Ni 3.84167532062138 4.138905120914885 4.608621468973813 -0.8752986469186862 1.3991730002155454 0.01865283921449691
Ni 3.8182590402629897 2.8095794935545086 2.5258236363432967 0.7319375341898104 -0.6654475208873765 0.15740087865139346
Ni 5.229824542366083 4.827157601285033 2.4268410298883656 0.45254500962425287 -0.1464898881658445 0.15185089536744173
Ni 5.6747886227538915 2.863520893865672 0.35139477771642974 -0.20106823763235696 0.7742959445513633 0.8714880149233443
Ni 5.929803414108225 7.9632691851684285 12.565263646037698 0.42889805962927424 1.148301723018132 -0.5487888571503516
Ni 2.1865020226619998 6.532813698520569 0.19027598538453855 0.5099104349175992 0.07670500616222273 0.6062684394240591
Ni 0.8726570570319326 9.535700700583178 0.24383776088552703 0.11083640062829297 -1.7401509016930674 -0.049148693810508896
Ni 8.336579082635705 0.20523101276229774 7.1465730229306335 -0.5639221132473643 0.48397263200591484 -0.8707267112772875
Ni 9.208183045843258 2.266962406107022 1.4297710669179766 -1.619766195254707 1.329603576656839 -1.0028582738389311
Ni 7.165317910492664 0.9785103250152472 4.603412578549586 -0.361909509423867 -1.5771704720713675 1.3455693559574762
Ni 1.0438860976136528 7.324878963519342 2.3622765228097813 0.3143279029901619 0.8519111212326813 -0.38172140194347165
Ni 8.072612081214505 4.035986644733308 3.4127576889405846 -0.6842471700923829 -0.17794682112354515 0.7342168171422904
Ni 8.013003685539912 4.1242129107134 12.752557386519227 -0.21401297071848302 -0.05432278181228064 -0.18970190477694426
Ni 8.306610624063238 7.5706677769148545 9.078244591285548 1.3168892144139643 -0.3318579414541252 -0.34737480614280175
Ni 7.257167038242937 0.8891561353203075 0.3074513808193943 0.03941578279346115 -0.624401401579344 -0.32634626760727664
Ni 2.0352452623578996 6.940545345602752 9.300545944670763 0.6079987918516044 1.2985063410314024 -1.1712243932525765
Ni 0.4842105328185674 4.650431301432895 1.4009615590881095 -0.48766499325583756 1.219667062134996 -0.6848120414569174
Ni 6.960639908872111 2.4019573536291063 6.938028506116064 -2.089378958994524 -0.07098738695215517 0.7116157919133228
Ni 3.9587202200277383 4.470711805962068 0.20434765503092903 -0.9180393803203223 0.8191529529650537 -0.20148089968974334
Ni 6.282571594082619 5.802072441319296 4.5402378998024835 -0.3463077983308681 -0.050595710669680605 0.3782606970883808
Ni 5.271145242858208 3.238856673733402 9.457134790950471 1.6812181319126014 -1.6290105966711104 -1.0616668593367071
P 0.4193895964811868 5.711765539360359 12.231691158087415 -0.11948302055969744 -0.10318814005441584 1.498865982632509
P 4.249233581371993 6.458284952734531 12.298632883027793 -0.5163191666574205 -0.43226260522613297 2.3509254565175963
P 2.649616914286299 8.809549618370317 1.4249764785702375 0.4469698295293206 -0.5699837460604118 -0.5813138263612504
P 6.820260859474948 8.113768520971458 5.776396663292653 0.1191534051344206 0.295803104713097 -1.0109616196723556
P 5.10422895913439 1.4494276015602108 12.371571037361583 -0.31565536355233376 -2.3636621873579746 0.2054609673834139
P 3.9912347199953704 6.518650772910195 8.157545832014042 0.49234337256811334 0.33688984745107786 -0.5625229189069926
P 4.941884599206189 1.292266580386322 3.8760185901072592 -0.17420458047229354 -0.4924328469581261 -1.5722588937023632
P 0.5307437739734794 5.594446872062048 3.520702543618421 0.7195337612088188 0.3113420808889606 -0.5323214556229477
Ni 0.4961623264216008 9.205445366923728 4.756475294380936 0.638939447294519 0.21514914120545528 0.2781946476027144
Ni 2.10485531168518 6.663820760416537 4.9701748606009835 -0.12957691446058975 0.36010639477685724 -2.07134292742842
Ni 5.940662873822365 5.797299754402913 8.885287505679148 -0.10017455003907265 0.29937359567317473 0.5328341335933081
Ni 8.853589746589176 3.0869611216814117 10.436186263832145 1.2235797669258413 -0.14107720179070543 -0.36536044408694496
Ni 2.420911217348661 5.406541716621823 6.864689738100381 0.6648546244983841 0.6565767007603079 -0.10549621936230219
Ni 0.6465822695359641 0.4346996095588453 9.103047049736862 0.9799510302234543 0.16918655843241184 0.10990000485695267
Ni 1.5680329779507016 1.4902098918648274 11.376571672214 -0.07872126526130314 -0.03951091361042873 -0.2972174685621204
Ni 4.391976160236351 6.9959833437232595 1.3573804483680922 -0.5400442781885022 0.9882130131219306 0.7998195427437644
Ni 6.329385903606603 8.140698155943246 8.032438468189664 -2.5180970414025086 1.216185788454615 -1.041424307037587
Ni 5.88328112366899 3.0719130132203882 4.620388012969959 0.4505359496140241 1.0230907988357218 0.7017291289272302
Ni 0.8040982764097522 7.680357445624073 6.792418664863317 -0.0655675014881645 -0.4628080821131578 0.4974346710480917
Ni 5.1709005664213725 4.764930159444089 6.747261563645289 -0.35609315985240614 0.5205149499063229 0.024997807595918235
Ni 1.1683774836811358 7.649029273188237 11.782762006064486 -0.2897283592739268 2.0908797119097664 -1.4851964555652164
Ni 4.830552323145252 0.8000191348196506 10.236003530997463 0.3647464646520299 -0.5438489966465729 -0.3353459000027257
Ni 8.394572247747774 7.213072156445686 4.199252689897751 -0.40702979880127327 0.8936658365719642 1.988985093855794
Ni 7.369119854858966 6.402116906902148 6.993403537621422 1.416389878314464 -1.4211801006142557 -0.9902606396795784
Ni 2.701559808986205 5.372822637929597 2.366070033232612 -0.1861247289486472 -0.24912884058500964 0.5885044305724186
Ni 2.392703998881091 5.6154174925856575 11.23085506148339 1.235056400106873 -1.2880404085030719 -0.36970509420888586
Ni 1.3376572968721494 3.513445869362384 3.586362122264818 0.32176224778102 -0.017720557208214645 0.021892686308033264
Ni 1.591221118399131 1.2127461333703384 2.7217200765496328 1.6571469498960105 -0.9904537295269908 -0.17808360381172555
Ni 1.3758022898176179 3.6692745534621003 8.098244968938076 -0.8441397048173785 0.3334324850300967 0.3303448472437085
Ni 3.6786830433488893 2.8659665537004533 6.970591371744607 0.5840191411075555 -0.04569621648553421 -0.5375551932180613
Ni 4.3211341553952805 7.242146306571108 5.8685286845312765 0.33857623401456527 -0.5427981867845555 0.47848178409467274
Ni 8.322315775464947 7.230438166391913 -0.04305730148674718 0.9016228866355117 0.5503983677293166 0.06083590034045006
P 0.5009706031639375 5.827441599306952 7.926804214519912 -0.4386654234286832 0.2942475873005191 0.0363127183881052
P 8.882079858545099 2.3155197045431075 8.208914726700486 -0.8492150624577569 -1.7768289738403917 -0.31685915405244786
P 2.125196266057297 3.4578071081211106 10.243442717181468 -0.8366603657211978 1.2974460180876881 0.7802727309600884
P 4.144937140134251 6.40397852856743 3.714074843860949 0.5105424120746432 -0.06534381551313262 0.18541484736581618
P 6.891495264961152 4.132790971327931 10.791368164053926 0.09928237724210644 1.6511233694097498 -1.626319422992193
P 6.618831570172239 8.347274281614675 10.102267003218723 -0.721399353662648 -0.09993286634191177 2.207002300637664
P 2.4642851770304337 8.806948823396763 5.874365415987716 0.35609136008019315 0.06892279111364259 0.2383525759051121
P 7.103628878839228 4.0602059775747605 1.400894942234401 0.6922103908035175 0.995956404512775 0.9798983226086478
Ni 3.0672680846535836 1.7306511057708562 0.13449760251836962 -0.35252189756137997 0.20268006220416704 0.8600424920905639
Ni 1.474340479727945 1.522788271007249 6.911076057153278 0.5039382764945642 -0.739198843737914 0.0023155355070540768
Ni 7.107279117398602 1.2585840040796894 9.044253569820649 -0.29058427951631893 -0.3300188313628575 0.7442896279972601
Ni 2.9649701490271005 1.9405215717421194 9.05819748111746 0.16166813856817963 -1.4592501680130998 0.25640583386239707
Ni 6.7730997772878245 2.088374484589602 2.570767198605601 -0.5915822981667941 0.0019411828867708504 -1.2979584389477323
Ni 4.358530849436077 7.371346500380185 10.410355350666729 0.4294220504535443 0.8449789128892222 -1.6583628245809827
Ni 7.103209101404899 6.3126860621974625 11.306264427321878 0.47417621474078336 -0.43007948153188513 -0.865449007818116
Ni 7.913936211038476 4.310621468344281 8.533284050682944 -0.36548488547995117 0.2103208665788765 -0.6751380087022631
Ni 3.7683602791563335 8.838459507760568 12.347022270490147 -1.8897849919148486 -0.4550744609143259 -0.05807427843491289
Ni 0.15512875085595687 5.7208820101623985 10.098394100107225 -0.5000291712481453 -1.103075761300797 0.5086215409028466
Ni 8.76515359189192 2.4573314725748245 5.670909331724915 1.7029992323434349 1.401398032891322 -0.8170904140090701
Ni 3.794651122380232 2.9388435665383743 11.519844448229106 -0.10157554415165732 0.5160689983198273 -0.2689880414027819
Ni 1.3782205728632035 3.648048416239335 12.44494995800142 0.06020263763182536 0.27237906936220185 0.8471890331666635
Ni 3.660212836238452 8.823092003425598 7.9349113943602845 -0.7283575301480358 -0.7033700069647629 0.4518078743479122
Ni 5.905483699706388 8.176233228318761 3.5756240329827764 -0.5014545908407622 -0.02904086731704031 -0.26269423797427016
Ni 3.134578483688458 8.630040011616655 3.7506703105379633 0.9756768283281326 -0.36995834787027254 -0.6863562460155858
Ni 3.5096861236462273 4.4780214086772165 8.75084374417953 -0.016879292253841896 0.8149312015742223 1.2189594945450104
Ni 4.917765647925118 4.9667335981991325 10.8794794475194 -0.6617006522504346 0.6347328654123391 1.1971994771600993
Ni 8.322434408218127 8.985774010420544 2.447155520030927 -0.0134412131065704 0.3529088485871535 -0.12763418891192213
Ni 4.87962065497965 0.36038531528817025 1.1653021576948623 0.44925862556349727 0.0027176560414791905 0.9277476087470216
Ni 6.1753093340153855 5.922603318549857 0.3378633433768268 0.408246959037826 -1.8247365961549478 -0.40143019322630863
Ni 8.400604266967143 9.199787497156697 11.041784567383086 0.03762912320668358 -0.03579515532173836 1.0598804568602458
Ni 0.2704598632586885 5.077171565813023 5.656417884644197 -0.7499051744118246 -0.3238880358747712 0.3335445851279288
Ni 7.805761391331399 6.21370984366001 2.2292490538711998 -0.7059138564325391 -0.7651147922727275 -0.5184231003743007
P 8.833394801759434 1.8537371499929798 3.5794841602593155 -0.36367842839883174 -0.39682997545013593 -0.2895334696543014
P 2.1747391289044136 3.3465022088493694 1.317833763815824 0.007781443717631761 0.050306718674352074 -0.35403884842653865
P 5.143332139701694 1.3158288702870873 7.871990407193058 0.12528291507092615 1.100200496635531 1.1497255999488523
P 8.831332416973387 1.9505232253948066 12.47127547849163 -0.002277997400899303 -0.426714164604078 0.041370335416670685
P 6.7301364694439805 7.8909853360964055 1.3415000855155315 -1.0479309978078533 1.1694194788333538 0.09567511950682232
P 1.960351492715924 3.5614282552253673 5.667503659149018 0.22259428462959083 -0.5419180981724473 1.0538316795630045
P 7.175018419464203 4.375166811670429 6.068831875238418 0.5089501278868589 -0.010851340892207118 -0.6476961104412264
P 2.611544926112018 9.096029466106463 10.354833397059354 0.3013767421461326 -1.6118250860307595 -1.2062636442448968
