# total energy = -340852.7207418104 ev
CRYSTAL
PRIMVEC
9.47857352640989 0.00000000000000 0.00000000000000

0.00000000000000 9.47857352640989 0.00000000000000

0.00000000000000 0.00000000000000 13.87285046479260

PRIMCOORD
 96 1
Ni 2.577470569872418 4.7624713265745715 10.384577229876257 0.07982966783413348 -0.5118577884519572 0.48717879764803845
Ni 8.45718135155927 2.446524077360531 5.8301349988576865 0.43006148380975606 2.5169341314426594 0.4705221629279639
Ni 6.147850146628494 6.297147157381641 8.46049695655968 1.0248198657116867 -0.10053347604038816 -0.9019676715694402
Ni 7.232312694675547 2.800918460894874 3.555847027909226 0.24117101919051367 -2.8102247541465473 0.16271046378976495
Ni 6.088514276695493 4.652444045714783 4.392740611162977 -0.006710322140640056 0.8720369454482787 -2.192830380012656
Ni 0.715344148481732 4.845010744366357 5.756345252237651 0.2739253308033992 -0.17164273328238824 0.8418143991183115
Ni 8.065754181470895 1.9372403247247219 1.2719127127385907 -0.2552521798739281 0.7449203196027235 -0.3942264763890178
Ni 1.6979158231371259 2.6025887895724904 6.774126983768463 -0.7803565489231463 -0.3223122067472191 -0.05122408828229887
Ni 9.160955953261414 0.41823731515315016 5.642060196174363 0.27897163497805505 -3.184395854546587 -1.8662470566939087
Ni 8.723083773161585 7.203734795658295 2.4280266412304585 -0.794289871174787 -0.6425600747662418 0.2992499256111169
Ni 1.7532043421977002 6.228209492521782 8.639928248094138 2.6721598568196043 0.9019208774919047 0.8183242864161714
Ni 8.4626694455994 5.47983820263517 4.192250772946387 -1.1158032361697945 1.1123394459909102 1.9896949754386248
Ni 3.761230653609268 6.6851336052997805 11.65882641097563 1.6341373763747147 -0.4732254207917399 -1.7665553598285253
Ni 6.15952774914566 2.8459985563264008 5.770925193951859 -0.33377469886086386 -0.5632140314367461 0.14928287752994937
Ni 2.022642271704968 2.0550969072721563 0.9051535301103816 -2.428166023468315 -0.5870586992648277 0.1696570703109272
Ni 4.524397996685243 3.0438922132690847 12.07330547174724 0.17409865102204852 0.22124214147707058 -0.5760366371227111
Ni 7.934077838801685 9.346404243235723 2.339392500696354 1.9544767756662793 0.5075020825864227 0.9221708859901925
Ni 3.9296649042018292 2.9317417319516292 0.574488755262503 2.5194039331393903 0.7509189603883196 0.45311399475384545
Ni 1.9984339950581813 9.035525990510072 6.3815112005667345 0.06507590656372664 -0.2504524444924396 0.3254384110810266
Ni 3.351064343767292 5.352872710981408 1.4340086412506095 -0.07599229636591429 -0.18837752953856587 -0.30368045057864473
Ni 0.4255528781586279 5.570936772271924 11.86592091918732 2.166948112929255 -1.8849577457295343 -3.9173137503717954
Ni 1.0772872679289576 0.4800594149077852 10.158727468336068 1.2128099300038468 0.9827172801146817 0.20093556870923457
Ni 5.565372849644021 9.055212987610846 8.185855290216434 -1.5515499432897861 -1.87713130770658 2.245267514766449
Ni 3.821846130960952 4.011540821850594 5.064589481697655 0.15280143220616912 1.3958801883968863 0.9330821335860576
P 0.03298164425221592 1.3106781825232536 7.491394334807609 -0.24994593716966632 -0.008644820159191564 1.9252790710564003
P 2.3329138957284297 6.071613980195406 5.1543885389114354 1.2962633106334966 0.17286092196020553 -0.20559517896843305
P 9.20438677690886 3.7370034198155375 10.750141164389682 0.15222601931867333 -0.747096501318436 -0.3065402886249431
P 9.455692195364717 1.6561153141268163 3.191712462275338 -1.2472223460454457 -1.2516428437106446 -0.30090854426046243
P 2.3762499336411587 9.119752594379824 11.883914095208693 -0.42364323898823814 0.21391732568088323 1.1226117744511954
P 0.32513592294182114 5.364578749218989 2.573593833322483 1.6709553165340127 -1.2114099643325267 -0.12830344706480484
P 7.966447167207629 7.800638481466735 4.752672377319502 0.350550375657306 0.8425682465652006 0.10087003344420047
P 6.144380988737843 2.00441497491884 13.850001510437266 -1.1370418338335966 1.7018206386543013 1.4851905420279454
Ni 2.806709869286099 3.419148937014696 3.1900063190504273 -0.12489827803799781 0.7766353913178173 -2.714847368385802
Ni 8.593758116713362 8.606449926592003 10.357109271812543 -1.073235280900597 -0.5482782360625202 0.41636341749737327
Ni 5.432881349656242 9.321532466445916 0.4552691538498344 2.2177034891052516 1.1625273796992108 -2.377717894120092
Ni 2.421320550499213 7.068399723629 13.282671921717958 -0.6550021571843364 0.7273866815943344 -0.07057163957097523
Ni 3.912546600511893 6.083263146992157 3.639917235316695 0.1922015312703464 -0.8550717783488501 0.35660918025687616
Ni 3.6936768604762804 8.329817759819695 4.131625817021231 0.05682935028421826 0.9061482853096909 -0.3674204119397672
Ni 0.962606007494551 1.2734842602202028 12.541694866996636 0.7786369951288784 0.8923592019453986 -0.07698911306154484
Ni 6.5256186923441115 0.5877037823967826 4.712343890769351 0.5119341502158474 -0.24222619992790545 0.8935784190644804
Ni 0.7139943996193583 7.282994627028864 4.3991225346814895 -0.013365108452996339 0.8456240026723888 0.5436633629983282
Ni 5.655438254772356 5.383242060384816 10.878354036312324 -0.05042550364040348 0.6328366768308907 0.35899619243181397
Ni 8.882930436188763 4.88172125942235 13.647041555973944 -2.3399000519413704 -3.171234120353648 1.6387761606983064
Ni 0.5355014868586018 3.524351623977377 3.873466442087969 -0.19384678018325324 0.2893815174574694 -0.08763450859053294
Ni 8.561265566852288 0.034140873787807946 13.13475878269168 0.31841107192060003 -0.6241604892131315 0.8948775974918782
Ni 8.06292956657632 5.2694233501363374 9.709150197856003 -0.38634475964809595 0.30865296409257165 0.6834503852227003
Ni 7.329970437154735 7.879414905590245 0.5822033662111403 -0.8808113492067993 -0.6849051153913559 0.4358387526131655
Ni 6.1079169165921146 8.310926962890546 12.337777576612671 0.5587472539146442 -0.5005804157659249 0.39091823795139125
Ni 5.340967622700921 4.480644901539759 2.2805163415767313 -1.1866088461284465 -1.50505025706635 -0.31399263113793024
Ni 9.022900530645733 6.979831933109197 13.098412244857002 -1.1223811464976283 3.514839689262005 -0.16628892516964267
Ni 6.4237714203904215 4.4537067957331145 13.632350714950116 -0.7228602544788906 -0.6107580997642965 1.6563252253256637
Ni 5.569856214896147 7.964485102498981 5.8053437899423885 0.34203719597997223 1.5557249006030818 0.6735279839026658
Ni 1.7559341713575571 7.439874496559392 10.810987918934076 -1.2028623318728318 -0.2877267554628658 -0.9030359649329546
Ni 3.5926826601350457 1.716171555643669 8.885574958187375 -0.40452323032933557 1.0448410460286202 1.0816587290776019
Ni 6.262341835593467 7.266814702112629 3.641609160681398 -0.2187905946127845 -0.4828886549131167 -1.4171732934477077
Ni 3.319709222722824 6.847596354605154 7.110626768445536 -0.0889974503763306 -0.38570892583630995 -3.8304261472496157
P 4.782916609553084 0.6487230469783625 6.325562024935181 -0.43790463400325874 -0.4877665518307084 -0.24158290991695167
P 1.8655538735580621 0.05465250678062185 4.471275331662958 -1.9778303627905551 -1.2659554036785747 -3.2283861440846073
P 6.489543241710725 0.4983331567039247 9.978796655979648 -0.1316245410182378 -1.0960579352220672 -0.31307243331650597
P 4.154496666951157 7.01764196268791 8.900681908586611 0.3170481301348024 0.09563526740782238 2.5794168233579127
P 3.628066174904997 4.732471641536561 13.17888912506134 2.202324178435704 2.518278304175379 0.22157664199835386
P 4.934232556455709 2.5382671899933613 3.518432254844284 0.3261192391981352 -0.11123029363260198 0.14753298471837817
P 0.370949659960059 8.124691951318086 0.828858596521769 0.848037754320204 1.056202750898342 -0.16887056985388982
P 0.1700361295092831 2.9008984538746345 0.10505576907386917 -0.014940423359916206 -0.9706870884230249 -0.2822742169887268
Ni 2.834245125221461 1.7787396191305287 4.850309266937051 1.6127571109267258 0.42176916189397684 0.8505846891117738
Ni 8.264263945689242 1.7301998443818227 9.818399287833765 0.5278222822010136 0.6014149679864996 -0.19268772687814556
Ni 7.0396512102892554 3.6811461863466595 8.227738262815947 -0.4144440889874733 -0.08929775522556879 -0.7222239064464723
Ni 5.874990452097933 0.4203481934653035 2.558000632104147 -1.9727220950297122 1.2059509981004843 0.8725964174961746
Ni 0.35057925771197385 4.654946389111318 8.120903365501437 -1.254888861451768 -1.8397078727527993 -0.03238278720607972
Ni 4.619240602843329 4.5617814904577285 8.54338708156992 -0.6191365536359789 -0.1231715251548782 0.3091476443408031
Ni 7.134806609371908 3.7164538725288367 11.667108788475224 1.3531497394078955 -1.3532656961604692 -1.1917693072834636
Ni 1.222935027895491 5.796621606633707 0.6978116311310815 -0.9111115428522373 -0.6064916111784586 0.523968198562246
Ni 5.609666223477394 5.768252236232833 6.145686188304899 -0.8952154404472712 -0.028601980007408805 1.9719641338177647
Ni 4.206562471031345 2.742587319749876 6.937563182569384 -0.4103583489538739 -0.7781711112360534 0.2572589258913118
Ni 5.023065747032721 6.414017968288017 13.751712494964861 -1.061796700046352 1.1074360951520217 -0.9989681947559054
Ni 3.9933514393583525 0.20874662356780987 10.654682450955935 1.1960537935914304 -0.1686139737583935 -0.6056842847858149
Ni 6.742573760538437 0.9112188692749387 7.162539019635482 3.5058883936059884 2.436323362468127 -1.065473377566991
Ni 7.6636351805064145 8.187515936288682 8.132944945239917 1.1538630191559935 -0.03857091829466261 -0.4931743531098409
Ni 1.9023781314957156 3.799505133288095 12.887267542200846 -1.7703809042222027 -1.125725637489829 -1.057123977161031
Ni 3.377462170886047 9.054606358908655 8.119348879452073 -1.2512998585489288 -0.42688848539841323 1.093020176837008
Ni 0.7870249125043086 8.602810154378862 8.254803381507113 -0.4719439829761549 0.7152495320111683 0.4480023845588929
Ni 6.820184320124924 1.1330876299570052 12.173190678992283 -0.23128641308695005 -0.2670597140318175 -2.233069430038361
Ni 3.928214682460655 0.9056293544986622 12.990814322378016 0.376035664412604 1.0995379233508678 -0.9978469366672685
Ni 3.4163717149874806 1.1409358887915941 2.530477698314298 0.6510858528490657 -0.9639037469526044 0.22375925147196948
Ni 2.0600921154917557 7.384093091678287 2.319998391515856 0.5806923907271676 0.7915902128554367 -0.1277306052804703
Ni 7.788505907422926 4.452199702551111 2.2573071065738644 0.3403598082775493 1.1237919108022258 -2.620686114420345
Ni 2.6241146299267792 9.168377676289776 0.3720188430476697 -2.044240671894989 -0.358962253870085 1.2308487897834286
Ni 5.658490355430252 7.752402021069124 10.23816360117321 0.354231424053319 0.734927984276702 -0.30109700612218465
P 2.7171563071252365 4.322333767415 7.477452301088047 -0.7683626097860637 0.8478528920029076 0.3474699369597693
P 2.281625334672923 2.566266896028839 10.528799412392644 -0.1965307547733196 -0.5519680262092816 0.5927449510163275
P 6.332056743478007 6.071557108754575 1.4184571457555495 2.0826930623339166 0.6669372180590256 0.9805788936154403
P 7.4950587513117775 4.638690635607309 6.010467702729305 0.7880341200730622 -0.7816171608031249 1.6436967379283758
P 4.179055650816398 8.507180826622623 1.7015745524972117 -2.309577746808745 -1.3965016240309691 3.2864249412958952
P 9.28397835835094 6.790724913774802 8.783914414131077 -1.6389643654497128 0.3259397761974774 0.25236380258253954
P 7.470774646077216 6.732516994084936 11.332953055017708 -0.019565066616121143 0.3892488206687683 0.5756769397904473
P 5.567334914352668 3.3234627378176276 10.177858073174052 0.3253455942569042 -0.21708055390021325 -1.42397977484658
