# total energy = -340893.5399033613 ev
CRYSTAL
PRIMVEC
9.03811833235355 0.00000000000000 0.00000000000000

0.00000000000000 9.03811833235355 0.00000000000000

0.00000000000000 0.00000000000000 13.22819976640551

PRIMCOORD
 96 1
Ni 6.290918846509542 1.8915696638688833 11.31696300487729 0.17537674640352377 0.6225754041141988 1.1082729892310201
Ni 4.675165433129395 0.37680366323690645 6.092366756343022 -0.22631107135954573 0.10590682453715955 -1.391934573485577
Ni 2.7595814894312842 1.5052804956712031 4.898653691172786 -0.0676287548925674 0.7377158314344843 -0.018307797170252344
Ni 3.2486340605865593 4.313794356572357 4.743659003633665 0.7808268036913456 -0.9793123681981909 -0.568422315110563
Ni 4.969907502949109 4.821872166357864 2.5800148701752934 0.6382902437462943 -2.1094538753675285 -0.005353036781797232
Ni 7.225261420911503 6.034697236092228 2.605955172974642 0.3747444564050062 0.41084737277515054 -0.3228583090586762
Ni 5.298632896877931 4.280940797227514 11.653699786702472 -0.7077377970151554 1.0551012903040475 -0.3207111808086864
Ni 5.692233902629938 7.646871554699181 12.39589468143358 -0.8742732909779651 1.2852718446189995 0.22093849419372275
Ni 1.5668752706189615 6.685649617025814 0.4688008598969567 0.4073645564328726 -0.7758897714010443 -0.48914517734578983
Ni 2.981919195038746 1.4247870157468108 0.4746069469734703 -1.6702582904669883 0.09580033223077694 -1.0986568062974948
Ni 0.4392679051472435 9.213819130263055 5.020577904532325 0.486704172004465 -0.4415581715954459 -0.28135479049825096
Ni 8.568877097875362 2.424592679649374 1.320611858739789 -0.07143321624032213 -0.576696125083581 0.3587413961085305
Ni 6.883557289370799 0.6071527567407284 4.635968018680249 -0.7857268120961242 0.25611427076390725 0.8817282045941137
Ni 0.5181607343536248 7.300666440337643 2.5334116217434333 0.618978945012192 0.3543764342716155 0.1924604413586879
Ni 7.595462738866042 4.018229818004259 3.7948662859908433 -0.03815157136905688 -1.3373775641753032 0.24363182202618042
Ni 7.579718337111236 3.947461353170664 12.626118145095615 0.6246623685502145 -1.3096911540036282 0.4979275515241102
Ni 7.7947261289281435 8.56098682076173 7.292533941658554 0.9050213707940994 0.9243941188937563 -0.4061998467008101
Ni 6.961366448215296 0.7224493180871802 0.35843820722900555 -0.9073690450906696 -0.38275061453893433 -0.6777183678349296
Ni 1.956815838534748 6.32191959164099 9.386267327692362 1.1102645657397523 0.5682526223019182 -0.5686164333992401
Ni 9.000492428415376 4.78743693634305 1.5479901228194983 0.246468263033711 0.21570578503987367 -0.3727657354120806
Ni 6.528305018777021 1.7789004834582076 6.8490190248094835 -0.9392360690025954 -0.18755889029201248 1.3025951663887956
Ni 3.2237611595364886 4.202128407272349 0.3866814225238331 0.5799246593232077 -0.03528967644022954 0.4028936651457126
Ni 6.135436100592259 5.709876309188708 4.848651206518204 -0.5499247705270077 -0.4891058394674221 0.3994504437921185
Ni 5.4148811720618 3.0860563919496884 9.051316478006532 1.0950770593660366 -1.278345035592179 0.23308695663079856
P 0.07767810613184281 5.523410894376206 12.552767489916816 1.2364522520131351 0.3456783922769853 0.571659591100938
P 4.019097477343214 5.920464461247809 12.391475945487583 1.1285587360632499 1.001694335437817 1.315470736799883
P 2.336037198367183 8.32377237273842 1.6660523483088723 0.024351946481803218 0.7617561602131396 -1.4177049975814615
P 6.352938413008665 7.813814634385174 5.818819977312741 -0.34414267235874924 -0.5139344684753278 0.4815100293980353
P 4.681013095549234 0.696783774078501 12.556736127580727 0.8549995303500179 0.9934485504892568 -0.3757479579688561
P 4.036297016114393 6.048164032082274 7.997689724546168 0.3890953258100395 1.1612649680470195 2.0557005929054726
P 4.801364676356916 1.1082178906814868 3.831945165554039 -0.6577915470040155 -0.14207736092044565 -0.20912478938824627
P 0.2291967334442712 5.571575025806376 3.7376143267969217 -0.20236690183912245 -0.2531613587831704 -0.31672982756343515
Ni 1.6296630771577842 1.1877171776133257 2.6597672244143276 -1.0837364375422367 -0.5499078012461432 0.2148516645696945
Ni 2.0151749671976495 6.4367308060447135 4.819919029033403 -1.1825092221377764 0.6126835989217835 -1.618512268242948
Ni 5.962862273321167 5.460433287356987 9.204220648825856 -0.22782108024616896 1.501532987941711 -0.6711466281546828
Ni 8.623096768441993 2.304268213196035 10.042240383238346 0.6454625931250173 0.9295898041620829 0.23199038113251014
Ni 2.4045822861447026 5.375203833540793 6.858080642030704 0.2217962142083277 -0.8937285714890996 1.1018493450928635
Ni 0.5582194814590472 0.1103518069262142 9.079836259715652 -0.1499156260179418 -0.47750347934180337 0.28348006437136986
Ni 1.4769821478558796 1.0323790415858682 11.479762107407959 0.19729437241222147 -1.1633203079141514 -0.8348778198994783
Ni 4.00685986541669 6.6835075830327675 1.6129805187427333 0.31178482485333403 1.74733790635981 -1.4711299501698212
Ni 5.537727273468979 8.176902953383896 8.025178256978467 0.46753299839265294 -1.6130299049721382 0.6846616319219822
Ni 5.206886959901453 2.8627154552315583 5.1344202326742145 -1.2292971290255925 -0.5581412448995291 -1.2926596524426384
Ni 0.8653672722022077 7.346833147664591 6.794069074299229 -0.8547390775997796 0.5977128365445642 0.8261319553860482
Ni 5.163160544465319 4.615739806529027 6.880515962625396 -0.44961318068943856 -0.15826451220326937 0.3263442107247477
Ni 8.265431320311746 7.044833468999236 9.213547082907821 -0.321408206875711 0.30087717680189474 0.37544971000214694
Ni 4.59036980898268 0.26388141551903527 10.151267202049029 -0.3076890575174056 0.046851927356532215 0.9292725300319803
Ni 8.077330006120588 7.298036347966433 4.554032958916654 0.34854851473592874 -0.04191155263212137 0.680118749746306
Ni 7.342314088607528 6.135951273324764 7.072404248306373 -0.08266919416545762 0.2495600145851573 -0.31292228089188684
Ni 2.360403964802862 5.267550808683456 2.360519652714723 -1.2141451038755025 -0.8419738075143111 1.581066207581348
Ni 2.2330930330473047 5.120970609108586 11.684561344814961 -0.7810443190187903 0.247737873774754 -1.3473673283981633
Ni 0.9574891948922329 3.390939230293449 3.770473309012633 0.31076898199430997 0.03376346960369024 0.28048344363689115
Ni 3.577196768389326 2.5709921168619627 2.460815649427162 1.2065924883392252 0.9290401023061999 1.0394579273398359
Ni 1.217009718421203 3.584580910888566 8.232001129031223 -0.512643003357414 -0.1405868924178482 0.7008976341648704
Ni 3.4562125193136564 2.8782881327421945 7.3022707063029 0.7796528379879024 0.15359050376636774 -0.9517755962305028
Ni 4.0969879792507395 7.018017372554628 5.854629001280903 1.3224086015702967 -0.024307466397112978 0.9095683667348335
Ni 0.779357828792765 7.316781404935127 11.295374555949891 0.08746944376757838 0.27434262084647587 0.2257351442514177
P 0.42643287361337534 5.61488568780926 8.074664665088731 -1.2809197382978907 -0.2283083042952326 -0.24378043178890274
P 8.455674668495952 1.7028808720003066 7.831795066561414 -0.42051934864727586 -0.562377908688696 1.8743262341576172
P 1.8966581243671354 3.1039337895794263 10.478004209992744 -0.9356874324193886 1.0179575913742147 -0.4156157406980713
P 3.978407869593426 6.156323191554001 3.868414875956342 -0.21537179873922263 0.37519028569317325 -0.6915987253614476
P 7.0471653034726796 4.13347486207746 10.47301697641737 0.2911707481474082 -1.8376905852124543 -1.479103455293601
P 6.332232084409205 7.6403008428302135 10.2659554980464 0.5183984177839523 1.3351769569795586 -1.6421268223380945
P 2.406787586964549 8.426815957357553 5.765418256435437 -0.08977315220009055 1.6339514856161537 0.29460085687487975
P 6.772740923173519 3.858020136313288 1.6320156993028907 0.07345513176635737 0.5312387640817303 -0.4658489258220106
Ni 5.154402608012733 2.8061549120733673 0.30930699716062493 0.7855080112170988 -0.6401674061643491 0.6700819343355944
Ni 1.3400275440725513 1.3930361068118913 7.069109854253774 1.128556679180721 -0.9848428110981168 -0.6601672463250436
Ni 6.811342725638943 0.9472490070689298 9.295296861250078 0.21464983297153356 -1.1411008343943185 -1.5942958188977445
Ni 2.645375828941207 1.6033621534456821 9.169999622210346 0.26114257721643414 -0.6994074227725889 0.5465093170875556
Ni 6.271857455406854 1.8271640341876323 2.391618913333614 0.5344289888842537 1.0296357990430913 0.7041783617986712
Ni 4.334681447534099 6.85505106483885 10.367733746129556 -1.4395935701244367 -0.5115338294536352 -0.39612369341173065
Ni 8.164312854850921 7.336873141502826 0.22236210852637026 -0.029747149355445538 0.19446744448638767 0.3335566693127868
Ni 7.62309226594092 3.959870689341357 8.09131920533763 0.8294764463782488 -0.7150021918870525 0.17199754551864574
Ni 3.056194449700621 8.095379127994494 12.419493207829559 0.5510905087003347 0.23350064712944946 -0.2548369467133804
Ni 0.12129064127973906 4.8458141412421805 10.416056044626723 0.4700961311341388 -0.8777849036756497 -0.8434262236901217
Ni 8.491691569180738 2.3280746163086388 5.76016620599932 1.4934229572400668 1.1584614371599533 -1.5500435339475886
Ni 3.74273893976763 2.547791267663005 11.482341586317728 -0.21973084703886675 -0.6657779076436018 -0.1556278459113707
Ni 1.1918204832371382 3.070456600084709 12.552926560795624 -0.9669016532386638 0.8520538174581326 1.2017122774287883
Ni 3.1930405960665795 8.54354325280147 7.900846288953325 -1.3445054334693363 -0.7244664226237458 0.3821610605840515
Ni 5.638827662693576 7.598797804450153 3.455973009183632 -0.5792805979813056 1.287534672511247 0.6969926426835094
Ni 3.200560310337531 8.494628957567828 3.6188118794340007 0.5153367481394932 -0.7005777889316063 0.9807231325027885
Ni 3.5312469758971177 4.198847570396922 9.411216148934592 -1.0668239780576143 1.4399602094352362 0.4528998218605103
Ni 7.355500702936036 6.111620659361541 11.406795572249008 -0.5516155279658693 0.027497434089320386 0.043083975673667736
Ni 0.5232383491101398 0.3073113806810262 0.5524278553715163 0.34956101516084315 -0.5272221867231695 -0.4310516156371674
Ni 4.573441413754925 0.21726551372181543 1.6321874235470593 0.5640833214155769 -0.7889736011681959 0.10095333718662612
Ni 6.183771956266597 5.718272720916731 0.42604423453446805 -0.8042356695335892 -0.8033962043514292 0.09696941283821364
Ni 7.95100422923947 8.868111112397795 11.256932728175086 -0.030428748803502433 -0.4122218845251739 0.03823950309717285
Ni 0.21766680616608258 4.979126383425516 5.907370035724066 -0.9202471866049183 -1.0249455926562736 -0.5346899558551242
Ni 7.8298030653290605 8.890579874029507 2.56521224032798 0.20578878303647782 -0.6029918255553163 -0.8186582727168223
P 8.589041139387973 1.5564272060790336 3.526519136311619 0.08708866338939195 1.175232485970705 0.5997846314719284
P 1.6319135685682011 3.1797907149112734 1.6426119889798905 0.7235580518768635 0.3166958890017062 -0.8648872217773749
P 4.6979776432494464 1.222432589289678 8.125871027076116 0.36404712459216015 0.24301758548094918 0.2981093842487705
P 8.472594025605593 1.692884713366085 12.21948326921123 -0.35887895012765936 -0.23854977951758266 1.1839570103278965
P 6.338974520522342 7.756802185321277 1.4240287176370356 -0.2514513180705992 -0.37477402409136096 -0.8784968421410096
P 1.7805002303644077 3.2893327064544615 5.96294180876057 -0.5113245416563065 -0.3843930352383638 -0.15554479927926115
P 6.888392682561855 3.7741915908047834 5.946512317652715 1.0591057834777502 1.7272743028407156 -0.10729007803793135
P 2.4317960597863317 8.473705714133631 10.151002385188285 -0.13982018945515276 -0.377989188594549 0.196693505603429
