# total energy = -340896.2914867966 ev
CRYSTAL
PRIMVEC
9.04271080071713 0.00000000000000 0.00000000000000
0.00000000000000 9.04271080071713 0.00000000000000
0.00000000000000 0.00000000000000 13.23492130807109
PRIMCOORD
 96 1
Ni 6.229704354039321 2.187621649877412 11.328748836454242 0.05423664985637756 -0.5639388254179126 1.3310243682637657
Ni 4.6700175878187125 0.20637093831941966 5.985241900564361 -1.0757860723469086 0.49438097182343244 -0.029357627226510728
Ni 2.796159918775732 1.5635208756180905 4.866295052295046 -0.09316263749761373 -0.21734486330519343 0.23951882829907137
Ni 3.5072515713458268 4.3440730754786046 4.975006522050983 -0.5437644073525668 0.20319813949116616 0.08258177665797391
Ni 5.277977123223072 4.455434059511575 2.5645173164630557 -0.18585579155797669 0.053853041264713714 0.06927940312211293
Ni 7.17399847654253 5.984963385070393 2.567561092932849 0.5228045172714479 0.11771821534979081 -0.8930037775079329
Ni 4.932455141907618 4.633430779747466 11.252157979884133 0.2754337970281257 -0.17607325824991613 -0.5589064052003277
Ni 5.633409915622582 7.799157247970496 12.241243362006548 0.12987644797887957 0.3697349190055568 1.3181202586075882
Ni 1.9354114017520698 6.470755896984259 0.44092710206574687 -0.2920217832937938 0.6341260850662757 0.08898330930894352
Ni 2.6799068281766347 1.5257223442938666 0.3480638873334537 -0.04289911335637128 -1.362410338774215 0.34239020844401674
Ni 0.6129230793861462 9.17880364130467 4.903446125522903 -0.17477073738840868 -0.7536700407708956 0.4987523614182507
Ni 8.670114985536035 2.280408905838623 1.5217643497578346 0.7334385442153691 0.5605262001919379 -0.6017576960378991
Ni 6.705350944387211 0.7542371388158537 4.85245156626532 1.3629710963736914 0.8898194662426806 -0.701478960589637
Ni 0.7673038559841561 7.642166745023163 2.5785859659927755 0.38972987407024495 -1.0801255802625267 0.3520277315337808
Ni 7.63008568333676 3.875054792178718 3.7931811839340637 0.5118477611496282 -0.2855030083386696 -0.3129755027273255
Ni 7.789788999537028 3.957243991031797 12.442255589880336 0.5841448680521424 -1.3104190333085883 -0.20164853561585916
Ni 7.920899264051364 8.739960884088262 7.0435193932450435 0.5921931922779157 0.6142108341995874 0.14157393892146586
Ni 6.843008131551963 0.664678130625635 0.4486179276378169 -0.6852488718840197 0.14799886861120318 -1.3825413051961353
Ni 1.5891569608583238 6.528873399572964 9.254571611188053 2.156715379457654 0.547018138403174 0.22413900340889142
Ni -0.03416788292071297 4.795675097694649 1.2597554201628924 0.5399910563530635 -0.17614936290349018 0.454596749946959
Ni 6.1345026942829985 2.197857998551819 6.909211626176582 0.9216327540985353 -0.6763171166120288 0.20357069233923653
Ni 3.302877263580567 4.401973553007075 0.4984604455339867 1.1293570635948291 0.24593398779679582 -0.22380501710824036
Ni 6.092173764826374 5.661577959898887 4.798532594321074 -0.4809991511998878 -0.3756661968883272 0.1302556856951692
Ni 5.280219715512165 2.893920665700656 9.11205848830055 0.06871504597821068 0.10036044079763361 0.5101616316964569
P 0.24169809677022006 5.685197520621105 12.479207723469646 0.03276511024616292 -0.6977413479240757 -0.50645692915136
P 4.099350191931362 6.182239164823807 12.489265930740443 -0.41004544569914547 0.24257278463404675 0.9937534833241853
P 2.3719753958360132 8.526191199757005 1.4870358187648485 0.8834158767091819 -0.3398165341795696 -1.2706700355454243
P 6.355181009698396 7.917707187123743 5.808026470545315 0.7513318795560222 -2.1846267611559407 -0.25229618256939773
P 4.8443248820306115 0.994029032140345 12.595647998183194 -0.8539880583663678 -0.622048070855819 -0.45056757418290794
P 3.9127267255511384 6.236061379762032 8.122006440389006 0.47280298854234054 -0.19182589309848253 0.3837366326012875
P 4.753897773599454 1.1989187744236622 3.8498138734023293 0.24874523199334578 -0.6944518785395266 -0.8508176310581863
P 0.2938835810458412 5.65325866592322 3.350089256892475 -0.42710420095364504 -0.47203679980027735 1.2371096830914758
Ni 1.4950042555598022 1.0330302440067032 2.71498531207925 0.34772781860684626 0.8859921220767902 -0.2165977007265238
Ni 1.9623858081970844 6.441294745057388 4.884956494661984 -0.40149498502597303 0.5982728228130922 -1.083706869855882
Ni 5.884372269651573 5.533958181769993 9.117338527161843 0.16343474355029916 0.23346773700898502 0.3734141676293569
Ni 8.57531120505681 2.3912001990884777 10.225803065021818 0.3439626951374592 0.03997551195167309 0.3361264869224921
Ni 2.3523255851739227 5.129685708106817 7.050401800467739 -0.8726455255665553 0.39315638325329066 0.015164623555580334
Ni 0.4171067931628113 -0.22902654606576192 9.26083187990474 0.5726489515974009 1.1270263585791236 -0.07359474266801519
Ni 1.360349248394965 1.0754857714151318 11.440120671740223 0.15274255394377564 0.12635917885424044 -0.1309308573853229
Ni 4.084936110847435 6.805987273360247 1.661618011386379 0.6911624091549774 -0.4749105218036467 -0.6507680644983308
Ni 5.822113205496721 7.6877872212266825 7.923019779744075 -1.3754643437446956 0.7150888380635877 0.5943236083573571
Ni 5.393986060629404 3.08814905189994 4.860325958867505 0.5019783245547161 -0.3919705904753056 -0.8162149533826524
Ni 0.8697785680715969 7.365722031838271 6.946084183910471 0.2525676910632295 0.5815830208622371 -0.42279400361406544
Ni 5.090874393168163 4.511100987461795 7.0818604872198545 0.053364531664069376 0.6780454121570452 -0.7706511487099245
Ni 8.074516835854215 6.988704288656244 9.10483155379473 -0.25384270112091123 0.1907689125888779 0.2728048440457108
Ni 4.645240560108576 0.4667738824686247 10.345883935120806 -0.3836497293144361 -0.29212951251625174 0.5202416416402783
Ni 8.090857014347725 7.328909155995946 4.388104747386987 0.31048204688151043 -0.13566194431240505 0.9265577022039784
Ni 7.253501990275204 5.979573929407897 7.002967356469091 0.6072554859276768 0.14289677149794744 -0.48078472119623644
Ni 2.333778985234692 5.108543850155612 2.6318963634972805 -0.46638448661050647 0.08372514623379775 -0.1912085712294578
Ni 2.39027784258248 5.440528893338921 11.351591628315035 -0.19288133094619037 -0.2551326235769284 0.0670487140193813
Ni 1.0351371956331494 3.2965473659903863 3.8620161074140293 0.40243240923857787 0.24620755317315665 -0.2137574030642512
Ni 3.5747644505005294 2.843932560159912 2.935770331482596 -0.4820031669843699 -0.17070248085630602 -0.6824677095944569
Ni 1.1782200093037702 3.22365407388403 8.324911307642259 -0.43684791060397027 0.5642797536970992 -0.5009357422228147
Ni 3.6027606832708154 2.6516845276352705 7.099370792496464 -0.15782253956984432 0.2628161082641151 -0.3512106349491242
Ni 4.126650135966728 6.823765242877813 5.94960005577622 0.4925801711692678 0.09421139047710227 0.23765914938251326
Ni 0.7753319746706742 7.4812878764132895 11.413584836771099 -1.3136038587944732 0.05337018809102421 0.7659951379951517
P 0.24549874813758163 5.587798482129905 8.003077611651431 -0.795813764018481 -2.0313283347086952 -1.0938809821754063
P 8.64273365710308 1.5189131830290004 8.202580611085505 -0.07716266252493163 2.879635540640202e-05 -0.5295402933333848
P 1.9263777336197971 3.3889729135178723 10.428403192919658 -0.007014997865252435 -0.32846588505344076 -0.2741626436251859
P 3.9740182196457767 6.0459202988638365 3.751968124995479 0.8465508853620324 0.44657876473848895 0.046421267577016825
P 6.855089193238365 3.91209373579212 10.305358122206298 0.739470609342062 1.541136461265946 -0.3805394658202285
P 6.350524013614192 7.725739478635239 10.1811221264749 -0.44248582561603794 0.4073786975002597 -0.7494328627610963
P 2.5419964451082766 8.541753705118007 5.779849383558166 -0.7571952803153347 -0.6495102808318297 0.42874533610149385
P 6.984870179258763 3.711553537424342 1.3145533436010894 -0.9547164240263816 0.5156331963339894 0.4202357559685859
Ni 4.9326902523895395 2.526605751253293 0.8076587616637289 0.657654764315835 1.2183763683480306 -0.1045107155205813
Ni 1.6230309556766354 1.013479903163887 7.198791781132185 -0.7841710375732301 0.4187190622137434 -0.5295577768348815
Ni 6.745012274145117 0.8626402521320413 9.255048162049485 0.3553362270817235 -0.5653696443271682 -1.5006246171948285
Ni 2.867000515520701 1.713602747481283 9.31459170013815 -0.2388598545588338 -0.6960109954965303 0.2879764095798266
Ni 6.512289067886689 1.8844014698860536 2.550422443071892 -0.7006343532011546 0.371936811752882 1.03265633103697
Ni 4.1866756505433305 7.109297880460036 10.31307426736873 -0.5571750243315179 -0.8520234784408294 -0.7216631488469959
Ni 8.036401809650481 7.282474835816546 0.08756780326256457 -0.17893695295095635 -0.13062052523375567 0.35513953768988515
Ni 7.725233086828024 3.708515186581055 8.172961211718878 0.2072813084216043 0.08830376674341565 0.11809591040418373
Ni 3.1465287931030956 8.360239370364145 12.395787811670816 0.4164966006411279 -0.021842549796388187 0.7596745950937627
Ni 0.10764714268970314 4.835327384741712 10.342984842024503 -0.013472837675454215 -0.2831311656723834 -0.28769693066619484
Ni 8.505700416986503 2.153657227950669 6.041424263032639 0.8369383019729328 0.6655508792344602 -0.13099282097150988
Ni 3.5861401807411686 2.867615419858032 11.818718176506541 0.22554693950001156 -0.9222606174905214 -0.8484190489190226
Ni 1.2817680911682892 3.4224942426133027 12.504671092932774 -1.2047253532234994 0.10949814143284368 0.645669824039817
Ni 3.181487913222581 8.394674013254729 8.099520835606514 0.36206120451038293 -0.38595857995327076 0.3569963883929658
Ni 5.721097082668274 7.758627817971651 3.6583706421427244 -0.5600397474738226 0.4848079834230166 -0.7090470027448821
Ni 3.302307572797451 8.250081066873307 3.5946050623614094 -0.3933792978973741 0.5818041357341076 0.5338330071714678
Ni 3.462815690262756 4.312749125118051 9.116928892360649 -0.4651416153423409 0.617809093073807 0.42954777739813116
Ni 7.191315267807097 6.0373478089845625 11.284014545913347 0.31373243549800806 -0.10637450820219745 -0.0004643412309282326
Ni 0.36148688730897477 0.15493509477269282 0.4956834290340658 1.1318626036255022 -0.12558964767806757 -0.621632323474639
Ni 4.577899492459891 0.14333962665856545 1.5571674669797173 0.21220111432072486 0.4041517059225298 0.18901773422572607
Ni 6.045395821634935 5.3454267034018725 0.09372588934672642 -0.6978629611036046 0.9087998639999252 1.3744572426364199
Ni 7.719834588454685 9.045966219019299 11.295264582473266 0.6606940653627911 -0.8551283426183983 0.17741794520326862
Ni 0.16518862459770176 4.998910023893677 5.649048379754666 -0.19726300495365381 -0.5524863606065968 0.1251049947321652
Ni 7.945947573086794 8.94543840257638 2.376713776317806 -0.2854513291651278 0.032968227395904506 1.3469073580426094
P 8.632687205356378 1.638846656941245 3.733757009628528 -1.4783897170560283 -0.1725413338372577 0.018483403516168166
P 1.8582861209711354 3.088782041658958 1.5067959504992252 -0.7032779614715888 0.5301804980205449 1.1366255722317846
P 4.733714442997619 1.0372079764162228 8.035873715337244 -0.08093524219348641 -0.8067607499482881 1.5720112964679316
P 8.439218406867917 1.6799186495906766 12.37196478995463 0.37139662297869586 0.6631211867470451 0.8595025604266939
P 6.362668374276496 7.676429576407728 1.4256394292244297 -0.772623956165579 0.061127463438939884 -0.10993394341868164
P 1.8164002843458231 3.2521295703290014 5.976109666883898 -0.6807512411239823 -0.37061397917640043 0.12341243752109067
P 7.152856618591326 4.0100262942230644 5.971279050751506 -0.9138577381388067 0.20155006236478193 -0.018879353403006196
P 2.331464051258855 8.414197225965015 10.379579788535509 0.9519121218083669 1.248533351547385 -1.6159596770244233
