# total energy = -381162.5798706823 ev
CRYSTAL
PRIMVEC
9.21253365598736 0.00000000000000 0.00000000000000

0.00000000000000 9.21253365598736 0.00000000000000

0.00000000000000 0.00000000000000 13.48347422271471

PRIMCOORD
 96 1
Ni 8.413429463777096 2.926683820471549 3.7269674246723867 1.3645086160641404 -0.004984597698784963 -1.0421516721219148
Ni 5.9285419172704295 3.9323424420945883 1.8986212377455156 0.43109789549407046 -0.5122935904377952 -0.3259492892791741
Ni -0.07305723604546478 5.539008347913995 7.259233473656989 -1.3704800031562268 -2.5817922655686245 -0.2946941879196344
Ni 7.553144626522348 3.8686101328259035 9.301534310793272 -0.37922383233259854 0.6141442426277101 -0.4514072964753839
Ni 4.622886342911706 2.788532662652353 0.18268454651604837 -0.01818926931451706 0.115923071122581 0.22286347913057747
Ni 7.94469574079492 6.673826694305315 13.102593539064012 -0.3213395584213046 -2.576157178770034 1.2447851973588628
Ni 3.97348561832962 2.4683694732891546 11.31165116087692 -0.32835661316908615 0.05013316921096527 -0.30407434358295377
Ni 4.5654646193396164 5.755281792896888 1.0409242012530662 -1.20793306152752 -1.1801193817493612 -0.06766603588840604
Ni 7.1135409356170145 1.0909574726665134 11.725499370859666 -0.8356805183064318 0.927310778319919 0.5446995175723264
Ni 7.96052287397266 0.9962434120143958 9.639646279883008 -1.8871426691959952 -0.06808769680685693 -6.35062480837616e-05
Ni 7.6303640853674075 9.10125566710444 2.4659659232041298 0.5897035930868425 1.080702021591287 -0.7197610467282766
Ni 0.8197091531057158 5.285166189835166 3.0247208420882834 2.260154973401243 2.7107343746586925 0.702834446176267
Ni 8.816993722207858 8.194097457551473 10.69502494676813 0.7251806750819512 0.06554359022876455 -1.7378695618580586
Ni 0.9613002710695965 7.830257645140741 12.46607930685039 2.3935067815232327 -0.902373134537975 0.11879190802994381
Ni 8.269870548579942 3.229352408027689 6.039828405089854 0.7933491045280724 1.5399234147944512 1.3312277425238235
Ni 6.596220309037983 0.26775676922647684 4.398214752058717 0.5309163477453049 0.0685479242727271 0.7538073376797083
Ni 0.7797525512323218 8.765025818683046 3.7966906447125988 -0.3069076992666908 0.3667187578870523 -3.0291855557886085
Ni 4.351927296914226 8.573792040741536 1.8735014216595192 2.2704144463457223 -1.0253975925920276 0.6865688762470241
Ni 1.8611345162009643 3.829576626845647 12.646824614988141 -1.8436439745824118 -0.2057756704103553 -0.04533163405726386
Ni 4.031699619813983 7.81292886894323 6.630619910484827 0.3655393928669704 -1.0120733646792957 0.16370033850686
Ni 3.537926229790424 6.536274351187255 12.206791620004761 -0.49448818682525814 2.240806393671302 0.12391740218196724
Ni 3.1436021428248964 4.713832477213594 9.961375600003027 0.27487252520801697 -0.2869363983510865 1.643021823348538
Ni 7.842197089028025 2.4038633111759236 1.4307986343624544 -3.3074154275046332 -2.693893391841954 3.2308618593186096
Ni 4.921188189416479 0.5130395620925956 12.517504592130633 -3.4098864868873657 -0.4499438245559799 -3.0358038324360748
P 1.073582633799682 0.7794614351622305 11.799671323502633 -1.2804937065040656 -0.49994586750571973 -1.172987141579954
Ni 4.866576288672801 1.1002805569365206 8.189768487888948 -0.5893572654910173 -3.3698922058826155 1.336185600749731
P 3.754835339609908 4.550512676878924 12.371181916774384 2.5247243169110387 -1.8556795655907075 0.11200522412541357
Ni 6.822931554888383 6.940151835769381 6.396897005110808 0.9873560644382736 0.5708160121537201 0.2677135455657325
P 3.5573554637088485 5.773052770719856 4.062544104442847 0.1608556699692133 -1.0166255028263524 0.14219228923175511
P 2.975353636873177 8.45007692348667 0.2868497456588778 -0.33949694605662173 -0.5645810869876018 -0.4123224146587802
P 6.593189385396844 6.244061989566351 1.4406689431439619 -0.45794766869706294 0.8406463469521394 -0.3336073200450642
Ni 4.40660368539495 7.661474812224932 10.398684448722928 1.3321587389785252 -0.6654714321467765 -1.1765476052377029
Ni 6.588177766975022 7.133421583694757 3.7427567864612854 1.3730701324809063 1.635061687961197 -0.7042313265237936
Ni 1.1992784458352324 7.26102439024008 7.075925238598372 1.383880592832849 2.1746976749676867 1.9883734284137242
Ni 8.7999044718908 1.198541443126141 5.437076266979713 0.039214722526248594 -2.9251566650004523 -0.9679329227166557
Ni 1.3303635901810142 0.5561818581760376 9.418328051356385 -2.063246780683847 0.13747662892364065 1.393012379930788
Ni 5.893810664604493 5.67343764205228 12.118892991904966 -1.2374452120540236 -0.8666242590731397 0.5208944447329287
Ni 6.267719776528187 3.0984515143591804 4.539144410091187 0.46889491173718606 -0.5436723618593926 -2.156286776560667
Ni 7.6590334907510655 5.130939160423911 4.793105409856859 2.391899327826797 0.645867798983236 1.3891251290612399
Ni 9.138336115905602 9.396323914223071 7.907829022779391 -1.6179275993840716 -2.4761014136970134 -3.719764067415658
Ni 0.6890533128379799 4.699184548370401 10.028428106476168 -0.4564769976888074 0.0461610719370947 0.3636648015520769
Ni 3.468878288482417 0.8652835581291596 6.417324877700051 -0.31424382791678784 -0.28998572670037154 -0.044983249578909625
Ni 5.293687783659035 2.905043578425851 9.081605332373288 1.1047832309102068 0.2967880943341856 2.1095001552244312
Ni 4.017917669153972 3.316585891182528 3.3238785329889886 0.30154129274845487 1.0752548824337869 -0.15778243036052828
Ni 8.58803461809473 2.8601601134421806 11.007207318045255 0.21709058120254224 -0.033159517471104176 1.2492563457563388
Ni 4.6038071852801 1.2951256481525784 4.308927795105671 -0.3566896557858244 -0.5663662039124827 -0.07199191695726957
Ni 2.271488412089232 1.284429896336888 4.455695435847534 -0.17112799842949883 0.9824326589947275 -1.4301694485970595
Ni 2.611071622836991 3.5838967737700047 1.4012568020219092 1.6481354904260197 0.5060252409305802 -0.5441025074182758
Ni 1.7353557913606412 6.922988885181414 4.915373238041748 1.0481996780882077 -0.6450455601922569 -2.3858263821598396
Ni 1.8996705453525846 6.873480728198195 10.254856527536953 -0.19860563502447734 0.4743351089161508 -0.5697652022917027
Ni 0.3897344025946607 3.542025807359746 1.2915253899186663 1.316533116626126 1.3457161659479857 0.04613973178085602
Ni 5.534199405237173 7.611607366421031 13.484418060083348 0.460361163234562 0.1418071379781945 -0.035212543345390965
Ni 4.344990258914903 4.131904350648831 7.516133271725161 0.33422232792124373 0.9076670359470627 1.5801778914391238
Ni 7.845771552167117 5.805195301370107 10.87992326517161 1.256678606362339 -1.083782974509456 -1.2119792065724353
Ni 0.04573470311267123 2.4084327279722904 8.524819131975795 0.1939318836978918 2.2906482568940936 -0.3768941557581573
Ni 5.568212080261745 2.481138045224164 6.425576544281717 -0.6809980670274659 -0.5339037125084031 1.2787756953716944
P 3.000402516448424 6.0916129791907805 8.341214253326768 -0.0053291255223972735 1.3989452004754552 0.988050005181505
Ni 1.9772585055521892 6.017857433078451 0.4581439153059174 -0.28107428314335464 -0.13721977571782817 0.6940171049949532
P 2.7800571314978013 1.6707298663071826 8.475024465189415 0.18477824222308176 1.5954528153203233 -0.6732749873515953
Ni 6.226088335998383 0.5602703807047226 0.592445155223497 2.207816311898527 1.4312241151138192 3.217371023921027
P 0.9203533218058607 4.367238528195601 5.364008897146998 -0.13738201232730535 0.16459713928951653 0.24185621818299638
P 5.591390815462671 0.453090840481709 10.343820124551387 -0.7015005578561919 -0.0046878923939725715 -0.07398477901758226
P 1.5855415656700724 8.998351663847542 5.768162757745034 -0.44294888129538545 -0.03058250077254733 1.3704411794984914
Ni 4.39621194719676 7.722811862689069 4.4767562095132085 0.4823901180101434 0.6994783852198405 -1.372331968763301
Ni 6.814916650427013 4.670432230181969 7.095651116107205 -0.8982678541203497 -0.22080865348407777 0.8380189366316212
Ni 6.0334266153080085 3.3061665153827478 11.598174782837024 1.3697135573038477 0.22216028241596578 -0.3490100277533796
Ni 2.8430616505912583 5.508468798156017 6.335103012967035 -1.6958132561179566 -0.8093177120421867 -0.9272979228041127
Ni 5.229107921274895 6.316997620164815 8.078286694351613 -0.27138970886573904 0.8822596516175516 1.0709426282116783
Ni 5.050541377395895 5.633556582956567 5.882030597553053 -0.15299889292895585 0.08583602192921347 -0.26808455575190604
Ni 6.519221951005652 8.252477284645382 8.939206275189564 0.8667998654190555 -0.5594561070562107 -0.6345693432512813
Ni 1.7005508384237964 3.4386888150112576 3.50511026291474 0.06723254789541325 -2.6485067361770387 1.0231316793759864
Ni 6.699474388581698 7.73849159532499 11.350874445054766 -1.7807720176485395 1.3693106654384741 0.007288049020980997
Ni 7.551993059789394 3.9200713469882156 13.386919050444252 0.02596788481867141 1.7037299398618724 -1.5453705539519516
Ni 8.160969185777812 8.780392325167604 12.965223604116453 -0.3449996210424059 1.5640138800847516 1.2260631954693273
Ni 2.0093918236685773 3.9390307416795936 8.070385104056767 -0.4435713453707328 -0.6520710995804705 -0.06144730867220385
Ni 8.825441615760818 7.741973933125447 5.3326061329659975 -2.4010465415437037 -0.6492061193278498 0.8267544194613954
Ni 2.9168264092374505 8.502744979585119 8.398249971729971 0.3314905308123775 -0.38830394025699577 1.0901184298091804
Ni 5.731246292046642 5.154652222588929 3.8884723558359187 -2.6081733266653147 -0.40359249098495004 -2.7481035593357706
Ni 2.8889677068337933 6.937093274526652 2.4161040049205464 -1.2782771584687211 0.11827434496357696 0.7014398798215856
Ni 3.2420657047595167 1.1835250129284023 2.006705448793939 -1.039234241364804 2.0229002585460005 0.9183893074605731
Ni 6.1598962801881045 -0.07849907979871892 6.715956532917143 -0.44781289425590615 -0.6897696425725088 -1.0953632231478878
Ni 3.4346997878483005 3.1922351090910697 5.745066014095493 -1.0311558352320436 0.020937778593931682 -1.9316096412601185
Ni 2.385613281592046 1.4149346510492604 13.327470569422161 0.5834275302701436 0.07297742079899044 -0.07135608314548356
Ni 2.8652177945333204 9.2416454706525 10.780981572729468 1.4004935187991816 0.21668768933716878 2.273374557415311
Ni 1.7391513553124622 2.5342943656173866 10.687554503058102 -0.045389740988708925 0.12017978951640591 -1.1536367620778003
Ni 1.3676559272610427 2.2205154622216927 6.58665032886043 0.3468320462654543 -0.10316859967039005 -0.10405305915787241
Ni -0.275188520294278 1.7525095294147452 -0.2997003091452739 1.4207656387846566 0.13842099511478095 -1.0729426893608425
Ni 0.6774445989164029 8.705153561103227 1.132052743725454 1.4818391090572092 1.5175604737182187 0.5437404960931668
P 8.662969368541605 7.056091574443334 8.707681480395411 -0.2801540853219304 0.6509135889372596 0.6404486848501938
Ni 8.061307994440918 5.178494260228039 2.4200681582420724 -3.12995325932699 -4.911523090286477 -0.08582907995067798
P 0.49138273748594274 5.59806068997995 12.465094486980366 -0.5241851996690584 -0.65444937000466 -1.5911583017100273
Ni 5.474271872454173 4.909976535704424 9.863970558209338 0.7168790971947911 1.78705527955409 0.855695527975778
P 5.7438490383721055 1.7638317335331628 2.4949421059654475 0.23752570912844254 -0.36285387561500737 -0.2759462178881699
P 7.310394359215346 1.5958043283941712 7.087817698562949 2.518742645406307 -0.23776405039149373 1.5347238728713828
P 0.6428662743126037 1.3169225032739584 2.5055392836687966 -0.2555812810785727 0.9903403438775784 0.023086706616134434
Ni 8.643917848511588 7.1036650993151875 2.0756732410573324 0.8862847136165446 2.2739587120535547 -0.06733384935996792
