# total energy = -340866.9532486508 ev
CRYSTAL
PRIMVEC
9.26923237870036 0.00000000000000 0.00000000000000
0.00000000000000 9.26923237870036 0.00000000000000
0.00000000000000 0.00000000000000 13.56645853459413
PRIMCOORD
 96 1
Ni 2.2759210155472083 6.59480869405347 10.05010051381657 -0.6641172321117272 -0.3213040771976789 0.7229672123704001
Ni 5.483798479935368 3.8518666654232776 13.055667708445498 0.11189852334422018 -0.029024155146491946 1.784631500603946
Ni 8.858429437999353 1.393369576227778 11.30516109031199 0.0856709571062589 1.9872110326745067 -1.4013067587290964
Ni 3.804519425529107 1.0302844677911 5.8001768524474695 -0.3362871808700724 1.9726071667184026 0.18803428726653423
Ni 2.5066600215545662 0.9588094155546184 12.417542223925071 -0.8312147692255942 -1.0959064972458674 -0.6678715569478368
Ni 0.8670671863352464 3.3184779472419654 8.024465461890038 -0.5033932026243718 -0.5353712981928651 0.22973578077037854
Ni 2.8733415922228294 7.9140614867664105 3.485874725657154 -1.8699872404626312 1.624650777040518 0.6446467820919415
Ni 9.055984591457548 4.384884614302365 10.14488953977698 1.6317331378085964 -0.09497757921916546 0.00907368016649405
Ni 8.832577548401694 7.037451625515141 9.083720916033768 0.6609498901273392 0.385141226258298 -1.1461610225260455
Ni 2.6855469406457164 8.863907554439733 9.008806978519146 0.6157686656050104 -0.7955137162795589 1.5818375385297336
Ni 6.741160606874351 8.43984016501955 5.72146438343155 -0.4338584889583431 1.9513816816807232 0.46692570382595716
Ni 1.4101654256185836 7.955402263964531 12.749784887956137 0.7865099701190519 -0.8286686057649729 -1.753082265042755
Ni 0.9267295286028301 5.200641963825908 12.997304912582212 -0.6443001973858 0.36091654938297846 0.01756217725347943
Ni 4.254086473709836 0.15800797275958817 2.0815971165579077 -0.5051106995361107 -0.036273894730369786 1.2019840430329363
Ni 7.588387000924265 4.65765032071696 8.098158641477083 -0.4684084590190707 1.8048074613311884 1.7334914873950211
Ni 8.450481243993416 0.5188007999852581 1.5365504845913762 0.5918376087107098 -0.22013193913202733 -0.9053414731376797
Ni 7.7901133090324945 2.1775651888993925 8.962260600317782 1.3641324636716443 0.96038750626923 -0.2978278484526097
Ni 4.698453482426854 8.707238985784434 4.7077922342266545 0.005920222139176901 -1.3962090324912149 -0.4907060940750065
Ni 6.851890858983936 7.862320630640871 1.1107265756019005 -0.4850563519883969 0.8014416517282198 -0.8007801068848208
Ni 2.1866953829666906 6.146029530639971 1.0481027135327923 1.0075302253933036 1.2161523641135183 0.7183960480599498
Ni 5.387871192217127 7.782382769081098 9.393185367982623 -1.6596483761616256 -0.646655584991854 -0.10951613915497269
Ni 0.7296433983119511 7.145382569392925 2.5992522393992896 -1.0825635002800582 0.34258021296763574 0.9095380277175305
Ni 1.6993376736566486 6.910787562642423 5.328254269189066 -0.8309278341127947 0.24767051087192832 -0.8366462246538107
Ni 6.324072949568558 9.258647092053895 3.159655208940737 0.6793913846619783 0.381264259801395 0.2753749187657322
P 3.5210570247453123 8.096118483391587 11.245793509639675 -0.06696206784284597 0.3806271404380283 0.5384422238087049
P 0.9150614186617999 0.9281189865629194 9.21337523332893 -0.045585144828966646 2.199222656692245 -1.2081688316874095
P 5.2169094669610425 5.537921528827705 8.895608329779996 0.9367328429647673 0.5337910981899388 0.8947025053665946
P 4.4915827502502506 3.3397137590269192 1.5834500205531097 -0.6167469703578797 0.11267165406481885 -0.20991926026508362
P 1.0492029714371458 5.5517326853355975 8.281048015185755 -0.161810834793631 0.3510499410015438 0.8048931006119299
P 3.1067408679736537 8.279482441807108 6.29725149824558 -2.2201519506457443 -0.9170996421148722 -1.8439710189045275
P 8.06559490058589 3.2423219325648893 6.805125726894259 0.8524034874880674 -2.221133854943039 -1.626281627775722
P 8.022826661574202 7.922274026810702 3.45156466135248 -0.2979497187424546 -0.01793190188807234 -0.725038493077132
Ni 7.466237054306142 6.491336251034945 5.02756685354714 0.6832534387205459 -0.837320625013016 -0.2388788807222273
Ni 4.238940547713932 0.9508100678591076 10.567145721155793 -0.2089026460751112 -3.0523450246242074 1.8627202744875726
Ni 8.550403570943132 3.0739741308894932 13.823542983356408 -0.6402165142347296 -0.010486244243304521 1.1844210944485085
Ni 6.038524971459746 2.0631457822326658 6.871641739713477 0.4464196134528054 -1.2841004500187174 -0.15403607594421861
Ni 3.4486087030904895 1.8249450440180237 8.83922636891385 -0.49044255600097475 1.6330138042932327 -3.2995403956319302
Ni 1.7763279192637316 0.8999636926751858 7.094172840292823 -1.5945179622108798 -0.6036382008900636 0.46034907904970396
Ni 7.6550513214643745 9.243862666127661 8.478195322411501 -1.3153501520616184 -1.9444777554720385 2.4105740214181646
Ni 5.183289960481765 4.13081494995248 7.30159045719021 1.3129297155455841 0.6507868335514083 -2.214205246144006
Ni 4.485715326042534 8.460186130479162 13.564668148849684 -1.9915991344398731 -1.46031871848693 -0.3373433900487287
Ni 2.870449591665472 2.312210061002509 3.738956289816608 -1.497912360469988 -1.1326681302459332 -1.4136015169360494
Ni 1.8463198942913122 2.8405007012782235 10.357923384679824 -0.06883665915773951 -1.8089924459468136 -2.2648642059514543
Ni -0.0978413842409781 8.890602944199955 5.215693343649744 1.899505304526406 -1.4188586515699306 -1.994884232949048
Ni 0.7087134712013331 2.7051420982683236 5.384405426164577 -0.1539293751630252 0.213627048133974 0.3064680406261109
Ni 0.6478711556294174 8.726583874128039 10.587019882678323 -0.0025183955464795336 -1.5631744149025917 0.1639710756697434
Ni 5.141912106353422 5.223889199075434 11.127006440592735 -0.7877160746120111 -0.7120094278073158 -0.9189078989682046
Ni 2.2237537747241087 4.7947144625170965 6.590233400864011 0.7011210630295861 -1.6807183094580473 -0.8914300052629098
Ni 1.7033419821206819 2.1709840337848934 1.2673284057827992 -0.4049703451690832 -1.179161388711466 0.36720932437022563
Ni 7.4403110108480375 5.01542415889926 12.56959564169092 1.5334889720230171 0.5394251565472645 0.12387677875201891
Ni 3.4682409376433188 6.197214232812173 12.679660362903011 0.4752699620255944 0.019068586595676836 -0.9990496987261182
Ni 1.0301176216050985 3.032346007482148 12.336211196712185 0.25731060506485365 -0.2409884708660624 1.2113359165614817
Ni 3.1696974954915094 6.372523228136849 7.731239778455395 1.7764052560394112 2.22502162003322 0.9625276925406842
Ni 9.282394865861425 5.539914413827166 6.247517430968335 -1.0022342671016868 -0.4638948874194333 0.6541657773259701
Ni 7.594476886713316 3.8472876645407954 4.647786930354512 -0.43308278713458315 -0.9723410790866802 2.8870727136445375
Ni 3.964181956299876 2.751877568813822 11.823277820934642 -0.5519654551061204 1.5379670623990287 -2.1649580790824197
P 7.157812610250028 8.07153647865405 10.369373667655797 3.299187640278202 0.22842091861369695 1.2091985585035046
P 8.157480802909873 3.559264801339629 2.6602335934595396 0.3202010739414873 -0.9051846358448411 -2.662508963993402
P 8.415276698747123 7.926102219856178 6.963025249632946 0.3557254921003422 -1.3836517646514945 0.4509072169105138
P 1.7721196876834744 4.547513299490936 4.539269244055957 -0.446630958132663 -0.32310436363121126 -0.9736204600197361
P 5.985597653567085 0.6004831311120022 13.47080141152856 2.1009864613264653 -0.1830926269905427 -0.8399426360168953
P 5.831394700771583 5.1794339597386205 5.283186333580326 -1.7088520915797862 -0.7937818211901169 0.01471185228887789
P 0.43593108016813753 0.9753828033640891 13.264225440947227 0.6101310077032589 0.6581828689051632 0.7859780088749818
P 1.196138845909031 0.6715540448090582 3.2733831308588135 0.41260189357241195 0.4670591440800279 -0.5322576922645478
Ni 1.3259266401529963 7.821897507465758 7.473694151897148 -1.9771114823466596 -0.610567066799413 -0.08798777816489363
Ni 8.303489754126197 0.9971562306372698 6.672405147469692 0.5469628596852063 2.8667149759237915 -0.6579134172938604
Ni 7.330730143575351 5.842415818280231 10.290416490900409 -2.9200496827911904 0.08883855620096312 -0.1050143946298772
Ni 8.110587755410931 8.939303492047246 12.577558839379464 -1.2456907398922674 -1.745302878207652 0.3858012284398
Ni 1.6659313595261493 8.858012322534352 1.1676924981190506 0.623787422144429 1.390913074199598 2.1207338191567215
Ni 8.320637834354116 1.2916768258599345 3.7181459358059574 0.10477271093271631 1.4107730463483186 0.851372989341024
Ni 5.845224395744586 3.237511200868516 9.569644675067453 -0.9282978248235366 0.10811951591776219 0.7179335066012346
Ni 0.9069953324918886 4.341004067384001 2.009328618014664 -0.12225518398819589 -0.6330660192328774 -2.168395386898743
Ni 4.289522749770018 3.2454178562384706 5.198463694175335 1.0435529233448158 2.1336821517872737 0.14901933945591755
Ni 3.0406327013868837 4.711384061841962 2.80463433282746 1.1363453219872042 -1.4893133059470673 -1.9783795504258057
Ni 4.111006599981094 1.6709923605015244 0.25748908423965766 0.6438659380618588 0.13478391258282596 1.1035326463325577
Ni 5.570780958237422 6.576696613639765 6.99698215617725 0.45824951620819787 0.3021922960688925 -0.3433093778241765
Ni 6.395066001712147 1.2862357863497782 11.143149736011624 0.973634086866491 0.1896638524501572 0.7647286125779024
Ni 9.127617220647476 6.581600037661694 11.546237144465389 -0.3335294156192772 0.6083721160306232 -0.2980168245349642
Ni 6.349785800677882 1.969962187350893 1.499608885164159 0.014761731690206836 0.8581666152240899 0.7031218955096987
Ni 2.9157483311648478 3.843292625309318 0.07025985584843823 0.1350561924076061 1.0767695193061004 0.8527289891482863
Ni 5.9790535753828085 4.118292216769821 3.011523603469175 -0.7980827625583158 -0.5176867364289085 -0.1971809867628088
Ni 3.5796941898922428 5.914437755237494 4.523627414118327 0.913084350307892 -0.17409685124983565 2.868524004108073
Ni 3.5626017250596567 4.209603426675356 8.749836670917098 -2.810341996450702 -0.36936673703286066 2.142510291601865
Ni 5.736162605495016 7.414588890506158 11.84692363318406 0.05299095037473455 0.016630152357513295 0.4700051140822293
Ni 7.694028444360809 5.867887669343109 1.9246736440073284 0.3670013221244776 -0.7105595827346666 -0.23508136135300806
Ni 9.162534419684542 5.2639878991111 3.7091779533083837 0.17322807549163716 1.0454565681254318 2.141334526126209
Ni 4.605010349033524 8.836915549237732 7.471442655309384 1.4131505454415598 -0.924594922050653 -0.7738161767014674
Ni 5.425161314788436 6.466698630902075 3.442787625045552 2.3231151191735475 0.9678437054369589 -0.6214564600184072
P 3.986947191456509 7.078143556434368 2.0405307086434337 0.05219493683600043 -0.1213460419103652 -2.4819671284491704
P 5.768048765486392 2.018736889058631 4.133958146712096 0.09689639350843313 -0.8982943364829109 0.14554423642312353
P 9.210836390531943 7.124443373049751 0.5563995880006699 -0.6853486306866777 -0.4932651130514344 -0.5283820113592255
P 5.498091636536152 0.8208480120430964 8.745088970002103 1.920381890865099 2.5616240181508654 1.740222121250635
P 5.908088330936887 6.033222970437924 13.681909109906345 -0.7110267521790722 0.3073545569961223 -0.007917455074863784
P 2.7150138309400718 2.719249870217996 6.774764355658285 1.1268872618980978 0.4070457396408732 0.050575656065022574
P 7.562776111373053 3.3344210272376533 11.220193743167531 -0.9088129766260478 -1.2946005782190928 -0.12274832157453053
P 2.5767168812100363 4.627868276515714 11.077122211748087 0.8293694884867394 0.8314788215202583 1.5448013117120427
