# total energy = -340856.15619589447 ev
CRYSTAL
PRIMVEC
9.41947963617353 0.00000000000000 0.00000000000000
0.00000000000000 9.41947963617353 0.00000000000000
0.00000000000000 0.00000000000000 13.78636058312934
PRIMCOORD
 96 1
Ni 0.2844145966210557 2.7052368987252797 5.7662004492157655 0.4104272545185964 0.5144836561105784 0.7094496374999394
Ni 0.16925203751920445 7.006312632758635 6.124935682804718 -0.25236637368570086 1.4185426629914084 1.1638967492429115
Ni 3.5581331097866427 8.788167353650168 8.371753819869136 1.204934898131144 0.30122813238341023 -1.1998554267257076
Ni 4.353184295864816 8.773840324990434 0.35713580593187055 -1.139115428533174 -1.4236892401893544 -0.010198280689240502
Ni 0.09557757686035205 1.1029739782456462 7.611325815411335 -0.708798891289818 0.17987566271514185 0.0939787056410059
Ni 8.519909990599162 1.674651622156202 0.7897838130166857 1.5708375878748044 -0.540325813984663 1.1332144896677063
Ni 5.254958187212414 8.45312587935819 4.528805785573181 -0.8315536406222518 2.7020718138876885 0.9142629439970255
Ni 5.143403288844737 5.533360329925838 2.216625878706069 -1.5982506897804345 1.2893812388016825 -1.5785048746120751
Ni 5.277385968434523 4.856250449468003 6.823862962198567 1.5772797439557222 -0.49439485578050335 0.07142010361419958
Ni 8.193572115571872 7.848498895374161 8.030320286636659 0.038153114030953644 0.6855931425973161 0.1254443803494549
Ni 3.71993151300049 2.8150303543846267 10.36130524282415 -0.3688913400583389 1.223445812451138 -0.9557415228567863
Ni 7.616092072151523 1.677825986823086 9.125991342252528 -0.12724543811393568 -0.41561316959491007 1.6644175154154945
Ni 6.192026869084683 9.189182863926883 8.681946706650018 -0.9636620632554435 -1.3011093258718882 2.0441360279963248
Ni 1.0552643134451494 2.9997934491648337 2.1770593541267034 -0.42575848555902807 -0.9747265485997213 -0.476276806023554
Ni 6.127296204423476 6.610656806444701 4.047634270639742 1.1870377061357493 -1.8970964379745976 -0.44039063364990605
Ni 8.75552885640758 4.3108060565879285 3.657838302661916 -0.5701642375023341 -1.809191192221181 1.861887494173632
Ni 2.2488442671529834 1.2494374684693241 6.521334706068853 1.3097680299881507 -0.09720389744652291 0.9363173526939036
Ni 2.9361648636312982 0.18182798489830485 4.288467760423194 0.56095043221355 0.18652196438706586 -0.3228907049585084
Ni 7.09543033042448 6.108259435901896 0.6663895705843005 1.1108356077518742 -0.9448539294100049 0.7833575405329993
Ni 2.0361712539514785 6.019603292742513 11.81418086657387 -0.4932021210239829 0.36543449185799004 0.7952100689962112
Ni 3.8917145647214504 6.174111018650223 8.30192627472944 0.1737032153558428 -0.7805581234109912 -0.8215908729825849
Ni 0.7619087466703657 6.188890182336695 4.20242740678308 -0.7721976672614379 -0.9590914131656257 -1.2064037693671867
Ni 7.964217203779709 8.419705565298532 0.8530959040315051 1.5494102712389637 -0.11519853425173063 -0.1694935481498694
Ni 4.8293295764176944 1.701817401679328 8.020863128994073 0.9203019511022538 -2.5320182794692907 1.5355887919748392
P 1.2648948346959015 1.6781179906945205 0.2661511673847904 -2.4957952925815143 -0.4552171571397773 -0.9290897245972128
P 4.919652967488171 9.515181637684119 12.31481867830429 1.4333938690716281 0.44858165410113066 -1.3257273815308845
P 2.1446459824495085 9.049360106908408 10.247402068161357 -0.7083175807780253 0.8802019977575744 -0.5057079668004775
P 7.984337212469515 1.9065874713926556 11.256384709932119 -0.3461612454506748 -1.0340647813487225 0.5844395164744257
P 7.760492696315712 8.012793460714787 5.281885653898531 -0.4699063837208359 0.018194154410523505 0.8015169850508453
P 4.399537555585102 5.2644907006927895 4.836723868000791 0.5164356376306267 0.20638810718337358 -1.0994507629537
P 2.987962582631878 4.075884232279065 1.5172445803895394 1.4872309694967418 -0.7992659842331397 -0.06961827451877042
P 1.9809260053720281 2.1095207425598637 4.599681718806125 0.11355277111819155 -2.2446450506911018 0.6603523657526563
Ni 8.032310622702274 5.4889757414678035 8.14262403364237 0.19128467588303186 -1.3315290758143261 1.047540190127338
Ni 1.8110174301160824 4.054888211974957 4.220046543606244 -1.695473613390351 0.5356908863158129 1.3776410396810403
Ni 4.040052531410143 5.145560349701462 10.864934681314814 1.1033740092675062 -0.24014103526410255 0.4923881097631198
Ni 3.1935804055203376 2.0239070913512323 0.5659176320595184 1.3837386679383459 0.47292023084649526 2.0876177533290434
Ni 3.5690973841850195 2.605258540938019 3.3149579373438804 1.2833430030274027 -0.30368919232939307 -1.3497504839183592
Ni 1.100939370625329 7.08999529062391 9.781891380216527 -0.8184227596672485 0.07484069925997434 0.18230047010655057
Ni 4.57501304335775 2.595094922316156 5.851717079783242 -0.840181491500579 0.8036746548237966 -0.11507846373409858
Ni 5.462742490437323 7.426751110225601 10.886151117444456 1.7782309963942409 -0.3356312924536284 0.2969395323103854
Ni 3.1320523639651854 8.067388765193302 11.93945712105505 -0.39033254065125034 1.9433528978389758 4.48049872834282
Ni 4.194767485871774 3.085020901704794 12.645691090870566 -1.0190490246661805 1.9231424843293718 0.19347731265897647
Ni 5.901238110534606 3.837025065445698 9.433179415001552 -0.4991015172275533 0.8956494426608962 -0.6517491974646775
Ni 6.068933108055484 2.8029451618991303 11.5699968678527 1.0685039368631986 -0.7647113861867217 -1.2540892483686081
Ni 6.234753629111348 7.801222526640953 13.284192407836931 -0.7216382091463314 0.03577124406233839 -1.6821463001538255
Ni 2.048972326895975 -0.09113440827468682 1.8981203010690295 -2.41094888825908 2.154594990680541 -0.7924271069344352
Ni 8.669246422138565 7.784634822847533 3.2482180976576096 -0.9725161712119639 1.3987731936739651 0.5908747305768082
Ni 2.1485927444537354 1.4803654333753427 9.024909963389623 1.8679365285811895 -0.8555381764623072 -1.2467505486153496
Ni 8.057338180328124 1.6496146450506302 4.6747069328573545 0.8197476491262592 -0.10083429511025861 -0.5886975204198313
Ni 7.468319274246252 5.777786409275906 5.855825856838718 0.4889531159396418 -0.6766657582006991 -0.3117516576225534
Ni 1.277516937525648 8.52059761261899 7.920677542652891 0.08849505681861533 0.06115677401497855 -0.8889771728470433
Ni 5.951359162144367 1.5380880051221237 4.4025367179291255 -2.19930467488309 -0.24438489814212103 -0.6867254564295464
Ni 7.927283423783116 4.8294614491338255 10.710017208039122 -0.17715723534271424 -0.389831946865748 0.23416681995853866
Ni 6.852916405458321 2.810169902847202 7.4840912510956 0.45248098915553686 2.64224327176583 -2.908660467117642
Ni 0.0903987469082665 3.2911379570186097 12.110090996249719 0.8961348669377469 -1.7836616804915089 0.38950901630869045
Ni 3.631595632151712 7.932125036361094 2.5458442306328632 1.6047702360665073 -1.8767726388155808 0.4433060075244882
P 8.839550615542905 5.804434117414229 2.3155850487872263 -0.26394867920666154 1.0945366134815342 -1.5343916863429445
P 4.928723926462086 5.8179416513380025 12.950121139956492 -0.12812167007130193 -0.07266734575773937 -0.007301932978051941
P 5.888521812907622 7.760841217065489 1.9254999027818833 0.5253211130457146 -0.40647366918748706 0.09702623421807806
P 2.067415668194963 3.9872563475588523 11.388443931762328 0.8383446954021561 -1.1888703884691139 -0.6243630921422408
P 0.7390570888606903 8.20499794447671 13.384322419247743 0.1183825884066671 -1.2412913252729914 0.8490541113998604
P 7.091464729460806 3.627394544194946 5.192687890655034 -0.3173679753680663 -0.22443648004465216 0.30082189808392706
P 3.630371099787632 3.255635937940016 7.948663758859951 -1.4428501293885214 2.2142803223563154 0.1981477215514523
P 4.116453931449004 0.5831628155376526 1.9095489558177843 -0.12191245593679649 2.10381930278957 3.5147065061182503
Ni 4.327073498070743 0.6689187008901116 10.354880215704618 0.7358715791368939 -1.5431689183149424 -0.7253814782388476
Ni 6.427560959575588 3.9363534791320243 13.558789080741983 -1.9618694685859241 0.3372467165698644 -0.9794728050354551
Ni 0.1556098050353822 0.6546547827445257 12.335814698608399 -0.2353947788283688 0.1058605446802564 0.21553069291459007
Ni 1.0692145629159362 7.176861732635792 1.9099624709776544 0.5114412697398288 -0.2633141309464562 -0.7900125839556718
Ni 3.4700515548904045 7.253988432613378 10.1233795464314 -1.1018292904882054 -1.0862568899712455 -2.8898626176848485
Ni 6.216856617636334 3.8643227176849555 3.0827263164441026 0.6419954605120234 -1.9440494096853682 0.9806436854151047
Ni 7.196991160805321 0.4251595207044805 2.649035572953875 -0.11000182054213958 0.12324403026402646 -0.2636658578589201
Ni 2.90919689318237 1.0864522108102914 12.214412676137574 -1.2332085482648567 -0.0724320898184817 -0.2138445634614188
Ni 6.774593431555827 0.9392304524688565 13.464683768562445 -1.343575465455899 -0.561736161339639 -1.8531465147562083
Ni 0.4402504691698065 0.24127526338249375 5.378679285591211 -0.29002943545411336 -1.036437395345957 -0.8352082066557036
Ni 1.4464553063700538 4.9343756142963 8.818100576316116 1.0399672628760863 -0.5872983260794595 0.8870581014474594
Ni 7.127908696511767 0.6194183929941409 6.886369687697011 1.6227558740106505 -0.5634428596181006 -2.285624578427257
Ni 1.6682934733427102 4.443827949245899 13.787738954906027 -1.259815609329424 -0.2668517117860694 -1.688755577940227
Ni 2.9359858935165484 6.568080758093616 0.41914989264076535 0.8233757327971496 -0.3330090243394329 -0.5340204405919255
Ni 9.175844880638136 9.394989076409818 9.71654468158139 0.8125182212573555 -1.7250076182937262 0.5206658736618904
Ni 2.839473904267606 5.451862991356459 3.004696288361015 1.1723808754545229 0.815062327835448 -2.421415592118359
Ni 7.517272310370276 8.571151960296044 11.233485012775853 -0.13398044284492408 0.9034555689688765 0.5704216049287789
Ni 7.992993714335587 3.8577008234392007 1.2573865674081472 1.9674816725663793 0.9300775424317789 1.7316423500014242
Ni 0.4842177746760809 4.7659647363164215 6.784612932137917 -0.22002523835083396 0.36321665827106475 -1.4405865301653256
Ni 5.858304121954021 7.443385911417641 6.91541747926893 0.4689018537157215 -0.6434041679340918 -0.113827622046133
Ni 0.4419553949997946 2.118940222283555 10.161761100461526 -0.34673331590406087 1.9025098956806847 -0.1510934483761269
Ni 2.850334564389022 6.867488340590871 4.532114848800114 1.194235509435769 2.7676570559876654 3.4933969460071963
Ni 9.147021272683642 6.628789304912807 11.92498126461568 0.8090248633921163 0.40709819014536336 3.0926581224209575
Ni 2.9637262613028192 4.680134437074146 6.397739828718352 -0.8775509332879726 0.013751288147821478 0.12872099421819766
P 8.745694919576044 4.812054250604444 13.108540775793452 -1.755811233938144 2.210411840539845 1.353584770062785
P 6.169373020349205 6.215123433367174 8.854634970372425 -1.6433910337624988 -0.018204438823168648 0.3518246143840392
P 8.3377089943038 6.938530056666952 10.137924165072752 -0.8713365769471445 0.40590982626421707 -2.8419909908145504
P 2.1640124327614183 6.6864647792609695 7.00571826358807 -0.5069994319183914 -0.11444571524610611 0.17975250687371622
P 9.28300088197485 3.1482444496102104 8.175643077865798 -0.1798916035547418 0.9590762436569741 0.059461902811058884
P 5.109163480049118 0.03361718118588229 6.577734782862427 -1.5541830100372587 0.4509002749319783 -0.59805247927217
P 6.131214707988532 2.2069652603014513 1.389665263115918 0.9398446491208716 0.46560801345579816 0.48857747776777793
P 9.462526746028685 0.7325830804465971 3.044152605027614 -0.49774783141313633 -0.3210238269530987 -0.32908474958436224
