# total energy = -381166.1869988022 ev
CRYSTAL
PRIMVEC
9.25586829580807 0.00000000000000 0.00000000000000

0.00000000000000 9.25586829580807 0.00000000000000

0.00000000000000 0.00000000000000 13.54689884841615

PRIMCOORD
 96 1
Ni 3.6135557305932196 7.1785366649503235 4.917253094765 1.442328966777729 0.6606495852781009 -0.06568551512326752
Ni 4.698417528848298 0.1978506615671376 5.333684785873748 -0.9810185522560202 -0.4644116791548518 0.17622726732927713
Ni 1.0297893825529265 8.640130810080855 11.27489421506134 0.9049300966318737 0.44623192292203145 1.676854198516951
Ni 5.535434944707324 0.4854323372560403 11.318013602589078 2.08091231628441 1.474532548093467 0.0702502516758145
Ni 6.808616637059203 3.7272455595124665 11.480969641097877 -0.03524802456901672 -0.9922892400738331 -0.45289622231608456
Ni 4.09121406416048 -0.05040745813679231 3.09599442369259 0.3142615685286007 -0.0921935887161251 1.3076008471335028
Ni 4.223813631782164 8.088666183604527 11.188397201283497 -2.270915811462173 -1.990890795518939 2.245823387269919
Ni 2.8879974794207977 8.98179267240245 9.50774164705254 -1.3650272075717718 -0.5818822972702108 -1.2683910097032605
Ni 4.96465332132841 5.927791197079456 6.426933326291468 1.2825559883497333 0.9408404373752377 0.8432724717210768
Ni 2.448445555172151 1.1736625976242265 4.843937362869751 0.592521779261928 -0.5890636455099983 0.9415109810797011
Ni 4.230505624480089 4.228654450843042 5.258052310171734 -1.5216690965699535 0.5576864167502976 0.739642616143552
Ni 1.0789935778256383 1.893324860762654 10.350007140172599 0.7779314844214216 -1.1715864045776854 0.8572016802076593
Ni 7.721837615687274 4.201377407301154 8.78352457118016 -1.7076575570510524 0.49876907358879913 1.6833919996354687
Ni 8.99193710393347 7.198094314425727 12.994144888451089 1.231435515524834 -0.58776318153102 -1.62107565809475
Ni 4.88735756611351 1.8736098615281025 1.8204996898812214 1.2179133126686832 -0.4707738739274538 0.5788013443520419
Ni 6.586466544745367 5.918377979135071 10.513057588536887 -0.4657226846567915 0.8358666661753088 -0.3243071256900608
Ni 8.296562238913099 -0.0822402399994541 0.41249794713002197 0.6547247351532337 0.8287033156576502 1.03554393699741
Ni 3.9414818845279265 2.2638465200858144 13.313688928157248 2.180715856137309 -0.647601236734575 -0.5334486272488554
Ni 3.4718298769408946 6.9889764845167015 2.4792176145407847 -1.2418842216619839 0.1539733410270832 -0.03747331435510965
Ni 4.145786662980629 9.131543363771376 13.459480884703346 1.1570722701219105 -0.5359775643182964 -1.4343212659819038
Ni 8.227235786205686 2.185828807152465 9.673731759152462 -0.7987170537082051 -1.2965913833968767 -0.4439392702331128
Ni 0.03626541713657105 5.107119644435555 7.586845406139708 2.274713845052024 1.6285855933185502 0.3360573242474535
Ni 5.482750542996965 4.368112616789984 3.159326776163245 -0.7192596816118257 0.792174624603997 -0.18391872243626387
Ni 4.452276226198331 3.63599195507423 11.221735912899897 0.7812543781470674 -0.2253862455524312 0.5376621511095708
P 5.577715750577481 7.0334046518058315 3.0951956422682043 0.8969373082343843 2.0326843345159573 4.3883074536195394
Ni 6.297887086466097 1.5391305529182486 13.464506821127928 -0.922903907501475 -0.6580741112414409 -1.5288414459486768
P 0.8653996100622338 8.415648238984339 1.5334687383493402 -1.1819834315412936 -0.676217357809371 -0.23088866342789913
Ni 4.984081388649219 0.9739579856595864 8.286638097044891 -2.3027638092107052 -0.6559436951619994 -1.3724335273381718
P 2.069121565204831 1.0632400901743677 12.897622843841816 0.7880837423640751 -0.7144524900311696 -1.4213806466608359
P 4.334772979586766 6.954785307440441 13.176391081844738 0.4827888961104589 -0.040990840590064886 -0.6971083423257672
P 1.738603768178258 5.70859372671671 11.374517901099486 -0.6403908350290649 0.11860370327853768 1.4654221011517665
Ni 8.982570165330012 5.908224291735868 3.428503157965807 -0.8356764045413737 0.8760607218956912 0.6287905317859752
Ni 1.3403792953766878 5.987223126696853 1.8812311433918252 -0.18895757041175198 1.9078413351959271 -0.5321023976336061
Ni 2.6444015405217707 0.41537374537517463 1.392851737705606 -1.1485068970504024 0.054400943348383725 -0.07237089756324311
Ni 2.165743573190504 7.151657623740399 13.5809012147309 0.14582422955738758 0.35144203423363984 -0.9998878783566972
Ni 6.79061397343892 7.905187108568604 5.408721183664634 0.20331692445721758 1.235092138440815 -2.9058692775257504
Ni 9.239966603693224 4.517419026486018 5.467907832775121 -1.433955398002053 1.3276793630509327 -1.3583479957793834
Ni 5.726198388005027 3.7784953016541154 0.8457586577731641 0.7639469972168713 -0.007401177560077577 -0.9478744614038838
Ni 5.342339022626943 7.68079709615394 9.40597707870315 0.1285343321286883 0.05223376049373585 -1.5815089515457215
Ni 1.9634380622658127 4.613485682380577 9.561157262349534 -1.856752744050228 -0.44405805519916425 -0.12664200020198188
Ni 1.689344037696435 8.396321986213568 3.535753679388586 -0.26974625972504507 0.46115332011855414 0.15617086289903426
Ni 2.409737514421496 3.139831141004684 12.057159468257426 -2.629534051729278 1.2239885723284856 -1.0163491092365142
Ni 0.9014604725119112 7.520041177512772 7.7544747324952334 2.0364553715226155 -1.0134941562862223 -1.0735924071296994
Ni 4.808062543370596 2.375231637826938 4.3161770148158105 -2.87894031434539 0.8459965555204592 0.769610623260552
Ni 2.6294255457980595 5.864332964801482 6.84988114860262 -0.6900542636924631 0.32853504772847936 -0.13945226459277274
Ni 7.709934569201062 6.839475701588778 1.1410014155589863 -0.19309627517047392 -0.09150710417206177 2.4657691785330695
Ni 1.0539194309118354 4.732877126101928 13.353069870524967 -0.685559204035587 0.5611527780323433 -0.35398074149509356
Ni 5.477835676990605 8.134436451780516 6.998517433442043 -0.7695615151901715 0.36249854915811763 3.0071553154614468
Ni 3.7978308102930725 4.311226050923527 8.229713582118872 0.7108521742744208 -0.35700924390877226 -2.3879729961891973
Ni 6.541520048837864 7.9753465894126885 13.012798239604795 -1.3623681726823698 0.9453640362772041 -1.0805012184343907
Ni 3.4673500367392407 1.5062629649924775 10.712304960613176 0.9077431406006367 -0.34333945973116353 2.1040435029852347
Ni 2.807712078782065 2.303868894118773 8.78478429484017 -0.6728834083401315 -0.3820227352339743 -1.6066142312537814
Ni 7.036264715075069 3.4301414466345936 4.758605662896428 0.08642146211903826 -1.2087581285319764 0.26091169215255067
Ni 7.742431922399424 2.0408448878989365 1.5131076795154592 0.44680939269205633 0.7235868482322699 0.18708529308970362
Ni 0.41402331420694877 3.9710358716433833 2.2512233670547905 1.2729819715080528 -1.7746255384311695 -0.02128642018260205
Ni -0.08903127048696134 3.8930089028418484 11.147052163686869 0.7260995873517947 0.056912911136960044 0.4368872484823379
P 3.890630144718243 2.3832194520707963 6.852048872931602 0.4555801969061508 0.2082436723348736 -0.8778903189052624
Ni 8.862271646526505 1.2058452513042903 5.325380420937954 -0.3481193976183101 -0.27942517757570584 -2.2826467267458557
P 5.532399019942567 4.514633010162262 9.314251424987468 1.9841460205959378 -1.3847997622130088 0.14167189795191085
Ni 5.861537692609541 8.839779886836384 1.6142345185468863 1.0610127706924757 -0.3913494119515389 0.6507179279866857
P 7.965988906677415 3.8989048908758437 -0.33356112648587843 0.3346838409386945 -0.05372577165823005 1.3675276053961223
P 7.404000358074474 8.361223734055155 11.025373594936942 0.48856230825912633 -0.5476174625500697 -0.8213363337696177
P 8.379244909411808 2.4453818628028374 3.46315620286451 0.5720277730736342 -0.28105551409027724 0.4324335835863584
Ni 6.414372187577285 5.685167124339879 12.816002747010774 0.06001006200504504 -0.7941186357042452 0.4934677159805437
Ni 3.7563737766914027 4.776611103277167 13.407474012544144 -0.4140365691364095 0.7770768497306101 0.029492095921845984
Ni 8.456235220976597 2.623298161059434 6.889397226645846 -0.7524477383280203 1.939519897246131 1.5676105962970743
Ni 3.933919840220589 5.587286318281014 10.201302361908605 -0.39132395803024217 2.913749194494459 1.0348101441551791
Ni 8.285686593795448 8.762086129289518 7.085691976771045 -1.0737042501172152 1.765819252993449 -0.4301167625277238
Ni 8.023865850439693 1.0944601335631667 11.843308187358472 -0.04034137993152407 -0.35199867806805835 -0.8594663078721198
Ni 1.8120768498326572 3.4848528834775205 6.4747398854682086 1.171593346556221 -0.4218426954443896 2.210240347958987
Ni 5.324817664152292 6.175617067739135 1.40249727794144 0.9273544870736609 -2.366809474737704 -3.4829942626166335
Ni 0.33609815995545145 2.2107733719116744 13.225647109979288 -0.6093650760715118 0.7321234249483713 0.6273571417735583
Ni 1.5049763993147298 6.455273869087839 4.724318224791041 2.150268595391045 -2.2159140013049963 -0.6229554131614369
Ni 8.878700812555298 6.214038176576048 10.715989721737719 1.0568077314721929 1.2320983459198136 -0.2014140510075499
Ni 2.8450502510413047 4.59851894352505 2.824270826965451 1.0008456142842763 -0.32756239940256493 1.433405181925538
Ni 1.0056408224576472 1.4336877025520465 2.7143916389780656 -1.2960329397902455 -0.4552963471171449 -0.24330837724849064
Ni 9.168881536030616 8.530337701667593 9.355027226690705 0.6783621720665155 2.94320709474426 2.3921572094738734
Ni 6.424146384380893 1.328402201944993 6.240486819915358 0.5889849697532631 0.2937994440195069 0.8264345742281316
Ni 6.958774586628278 0.16696938295391803 8.980198811900953 0.2799769363141178 0.6917442498003763 0.6769061563462794
Ni 6.2731368949387765 1.1042806097077016 3.7825651068951633 3.548130332994334 -2.199288476933174 -1.2635640206282626
Ni 7.645069444958931 4.649231845311956 2.154295915419005 -2.476103470579542 -0.3667187578870523 -0.9794000428159906
Ni 7.682713060868284 7.219040344128914 8.641282240083099 -1.6254413912626136 -3.2307834406721905 -0.5867517095473701
Ni 2.3250185529220353 3.0541032898730327 1.2003093165427008 -0.6121935466592425 -0.11026381595427462 -1.2502053399331694
Ni 0.7278065015546161 1.0504484803423721 7.791539856643008 0.9755523869351264 -0.31352700435542136 0.4082215051165292
Ni 6.945418368836984 5.702308992218936 4.796469568468589 -0.5321561336896771 -0.10927908344350212 -1.0466937829666427
Ni 3.0756787186128167 8.652459626503589 7.009557833013392 -0.6100536174981042 0.13073185400063939 -0.4414409292912913
Ni 8.060556111925967 9.139327548915158 2.917446875225761 1.0759200268216116 -0.7109797009912207 -0.3228333693580117
Ni 1.2278001706396686 3.099170112066944 4.374537114897357 0.3667143870116781 0.12797897384585055 -1.602639819987066
P 3.29396911389341 7.020881462151208 8.597200242264096 -0.0005772126597086833 0.1863540713506339 -0.34806669000350376
Ni 6.209586103978949 3.9270334742907744 6.9656526222767265 -0.5381601737919118 -0.07715674898766066 0.18260154628673714
P 3.154242527769095 2.1296734548726413 2.8980613848986034 -1.3778572694569045 0.3509995473795826 1.6150729035440958
Ni 8.977525717169058 7.154054893600375 5.567274205677717 -1.1095333440006827 -0.16242918510392026 0.10838151132989723
P 0.6303792330368276 3.2321584261524072 8.579833456788139 -0.23958541987094867 -1.0741472511919048 -0.22610718287885576
P 7.4923198522979915 6.042193727848967 6.839774666131161 -1.3425151425121846 -0.14378868718459753 -0.014312045747297933
P 0.9773919127563087 8.978349489437544 5.861485859747703 1.5404877719383534 -1.1909997761072908 0.471238215158382
Ni 5.853772019202128 2.306951098224456 9.780034479673072 0.35321326720144974 0.9984963973258094 0.15486345694152037
