# total energy = -340865.3784430079 ev
CRYSTAL
PRIMVEC
9.29092246250567 0.00000000000000 0.00000000000000
0.00000000000000 9.29092246250567 0.00000000000000
0.00000000000000 0.00000000000000 13.59820416471307
PRIMCOORD
 96 1
Ni 5.489829560615563 4.187307266631872 1.1420671338164383 0.8263942079084994 -1.1508712835175212 -0.24708044269641316
Ni 8.20328992289761 -0.24005885480694916 7.271503308276164 -0.42192985584155723 1.6462871243633712 -1.1251993326727139
Ni 1.2759967103288483 0.38926363695401 7.066810349855261 -2.1570619641637947 3.6630506738840145 -0.43323551066236354
Ni 6.787901502735623 -0.12261787840390867 0.5222501848356087 -0.8743092864222234 1.7657130664328882 0.25447982048427786
Ni 4.168483857705528 6.809911698069536 7.991882414806881 0.3725070824340552 0.896952734853352 1.3721082827882694
Ni 2.2909928266010042 1.121042705356703 0.8524839458698126 -0.9118502207904748 0.43410351508961365 -0.3176240572429304
Ni 4.521483166070541 2.831603732423899 12.37384937268317 -0.06424415469105065 1.7857270476609697 -1.0332471705434334
Ni 1.1568034659477682 0.08360715313247055 9.346521209299672 -0.7904779536278644 1.7723323715216186 0.32449250222798953
Ni 0.27439624607544993 6.822538061707691 3.9959950947537726 0.8553404586292043 -0.5683122718952599 1.0677125513101546
Ni 6.079004118194628 4.160828137589384 9.77867267347229 0.04611093542544962 -0.2632485678158434 -1.9402557469708903
Ni 7.656844317762897 2.619845027463763 2.4137082596908592 -0.4998458515927455 0.9225971748943338 -0.09815906227094062
Ni 3.8841537573240332 8.942429260081868 1.2908882008654448 2.95976577043389 -0.6095784776338986 -0.8214913712902434
Ni 0.1573696448146182 8.33390171099561 1.0421283971643587 1.7739555089473384 1.5588485338337281 0.8814381841575207
Ni 3.207635237594642 0.7469808757498222 10.684720645572188 -0.27951388063477023 1.2307027511238675 -2.556233957483546
Ni 7.068468779516344 7.111913132990965 1.1805919438426404 -0.4202874351421278 -2.0422385538632954 0.11583693916667792
Ni 3.7691600098998665 4.768528794575719 6.9560662703693525 1.3648965955311783 1.1885014351654692 0.31076692511178095
Ni 0.8401957718096039 5.5279966701266305 8.35328164617797 1.2561322469405658 0.7345297203970188 0.920118631446854
Ni 8.475839133585817 1.0290997365832075 4.262030439697526 0.29405552589437095 0.47523216680912345 1.144361250313145
Ni 1.365737730476705 5.254834258555335 11.44854596376202 -1.4710659297011053 -0.9239140939335443 -3.900342926845412
Ni 6.2090863237117775 7.543857409592478 12.308496094929568 0.8478264096403464 -1.0647809794856566 0.7787640076250458
Ni 1.0107315828579448 3.4927643573086473 9.601515221978831 -0.574534598655888 0.09139294719170067 0.09023235122469621
Ni 3.8052180800100057 5.036348925726161 2.5882280182947857 0.14920651576605917 0.346073570832875 0.5438477110949924
Ni 8.138913121095715 8.420827581634738 2.8466206504138545 -1.0196072111624956 0.15568312462933834 1.1898669480544284
Ni 6.090487698368844 0.6205397827490771 3.017890444337408 0.08882287247167929 0.06948920514007387 -0.2607093463337575
P 7.988437340754616 4.922256397781687 5.622313469591478 0.3152316457513539 -0.0455846306083344 -0.3858091988596001
P 9.45314197739293 1.755408309834947 0.13401319481464957 -1.213016389587698 -0.3144675138918197 0.09467341771518534
P 4.538439099580205 2.4024188597962883 7.295096676799145 0.07988777476557854 -1.0366348560687437 0.6632124609092707
P 8.778574551382459 8.458372199340245 5.281270649354457 -0.15838483983121757 -1.0513305104077055 -0.6035001326503026
P 6.708984407266538 2.231995468909847 4.438413028256898 -0.9978785612361524 0.3832540365379141 -0.45078020441434624
P 2.0198558361283983 7.5226926882034295 8.920626252319058 1.449984683550774 -1.031794497257307 -2.962918200019942
P 7.47528111083367 4.96153841798928 1.4117519531068194 0.20282147287803778 -1.2789610719096232 0.43290820922993184
P 8.3351559855292 4.788848042019902 9.73133728166679 0.6484491865571671 1.1443825904693838 2.8289166741290956
Ni 4.481132689778778 2.5829879380211143 3.6337801203897255 3.1295264562022167 0.31319636048887994 0.20593405036509052
Ni 8.959654630343191 2.9960066055491006 11.456636499049813 0.019278645723953894 3.440660020624797 4.60185634021741
Ni 3.9828698085789225 7.4339365058375035 12.826478959074226 -1.3923176678566087 2.1107872494669713 -1.235154102027002
Ni 5.808080818938856 0.6146400469799613 6.360859116829836 0.2022666288158323 0.6735074150773755 -0.661419630674906
Ni 3.0707056222163303 3.4813365226692574 0.7938953887673812 0.15384761408249634 0.046814389250377446 -0.6328122513508586
Ni 5.231504752230534 1.5630955056067157 9.877626572342438 -0.374817989955419 1.2761850518263826 -0.5642794965867831
Ni 6.805944474174399 2.290695517081931 7.994860155458852 -0.6224244803586313 -0.7236750370707021 0.39419613737171466
Ni 3.7093171782638437 -0.09274384629049957 8.524877551480257 -0.5050297097865302 0.699841424986214 -0.6796214983949134
Ni 6.97672092011474 6.579831293996494 10.14897911221637 0.1866878005409688 0.04475107896344551 -0.23877500815451136
Ni 2.8543107469431415 7.0595866576340205 4.08732114627519 0.08729203764944968 -0.7505587488354235 -0.25919496657176005
Ni 0.3685420925668307 7.254742484138394 10.141635567095253 -1.176376112656845 -0.9850081330313875 1.5079666593821963
Ni 8.238428191683116 4.318030545799523 7.746148664554615 -1.2744331021322826 0.02796126109961636 -0.877975679530217
Ni 8.276065718613333 5.9224149108675785 12.288452787882775 1.3427629968569328 1.4043689425941877 0.36364988915374147
Ni 6.508913682774981 4.640620664916796 11.914732864222831 -1.016216697423708 -1.0182848928066464 1.2303872767659778
Ni 9.190115962237547 4.0383180338861395 3.9843284834068773 0.34829243286106465 -0.12402230319094772 -0.015020641778548328
Ni 6.230120972186231 4.727407171718859 3.4125233053874373 -0.1651902927888252 -2.9004913010432887 -1.2491239339435325
Ni 0.21300740494024456 9.556735762945118 11.657427270032874 0.17888655932899514 -0.30633665725456916 0.47011232908405487
Ni 3.472658801081298 1.011558474957868 5.8778101211763225 -0.5053341284008265 -0.5983802949252339 0.3648973884075974
Ni 3.2315129083452363 3.3207429277571854 5.56112159601266 -0.3424161765859458 -1.535680323247381 -3.1018189629846193
Ni 2.5663107321855825 8.166553615447086 6.70909589833619 3.162524251284476 -3.6442515388996406 -0.8806120887117995
Ni 7.19738032880214 6.407986391971982 4.234929747941725 1.0068918204783561 2.3450569135519617 1.0982302602830376
Ni 8.359479620558405 1.8231948801837163 9.973834074530142 -2.214020126716393 -3.3520520923774013 -2.812467527434137
Ni 2.4514006030636555 2.6929552963884436 3.004700121705261 -2.2950384155419896 -0.09309758858763321 0.2905338858943577
Ni 5.166802768142151 7.358131869396219 2.943317784215785 0.85371629276222 0.24111908290665574 0.282718503614997
P 2.3979777988551274 9.2031604173869 12.2360724251755 -0.9028014803246452 -2.128927410711108 3.4608835467605235
P 1.6669866006779792 4.765713645066992 2.7594838758346327 0.07414238764136909 1.303822353927677 0.26103844753840205
P 4.719370523781403 7.980930275398008 5.039005200460633 -0.9649059629648737 1.2677613465390618 -0.6558447076902899
P 2.221886945261346 8.753526224400511 2.5214606621410907 -2.9932006530535675 -0.7406620585470018 -1.3235722828610947
P 4.503802540608136 6.757343658728344 1.0249132469177533 1.6662522546313885 -1.6207272736163958 1.5083623521587184
P 4.8668824998542375 5.920268707776766 10.591913621008885 -0.15894534032037788 0.4735789474764167 0.859450624142836
P 4.765444208315331 1.9214370943925823 0.8026353595358965 0.0977289167120575 -0.46678994957904124 0.8752546810546281
P 8.308537492649647 8.210165205526186 12.96601003274443 -1.0027708563314472 -1.3654871779273259 -2.1247059164305924
Ni 2.9452410051672926 7.185906039550396 10.789358730810125 -0.4313241525722636 -0.8698635919460437 -0.364620737707443
Ni 0.6445066463553937 6.893511418464031 6.534861371052124 -0.3058090668858733 0.14156751116356261 -1.1392203295421541
Ni 6.922220368899571 2.1735741484118942 13.570096520889528 -0.015365683822792894 0.9186872983169662 -0.27064923115528877
Ni 4.714669317011052 0.6449665470177105 12.483069740883828 0.9094626943949048 -2.23366386908925 1.1244776240153407
Ni 0.6295770630366659 3.492318393030037 1.3790348987172698 -0.961799556125408 0.7563491302649554 -0.5146057835107396
Ni 7.011273860784569 0.12269499306041837 11.152172969673554 0.5585839888639025 -0.11173088741810434 0.20020229008763588
Ni 3.745895540032361 0.2454745335153233 3.6099015205468845 1.8104381772544047 0.6086222843682163 1.3626725912966662
Ni 4.6989119125001535 5.732489873714406 4.798724292606626 -0.07034589671341433 -0.26909422796334304 1.4415890032879108
Ni 0.3752947350187887 1.3120826532064003 2.3674199548478487 0.7269989592376125 -1.146258210225542 -0.826117300098029
Ni 8.349761315653689 2.6514155820203857 6.209143927431097 0.3520035631640647 -0.9286811763048843 -1.8391000639654713
Ni 2.3492840741843626 6.668559603595006 1.3636416983672366 -0.6428488096512541 0.25682158124357707 0.6682060574691202
Ni 1.2530295499804167 7.23522225602672 12.831469113533425 -0.1891213496831259 0.8406432616283458 -1.0038769449114324
Ni 6.170380340697389 9.099938268733553 8.647859634045032 0.6606940653627911 -0.48224125113710503 -0.8548727749641665
Ni 5.878468847579519 3.5520311517514647 6.073094162410794 0.5890171085427791 0.9593410672825865 -0.8603415113882215
Ni 4.311759173131565 5.115293893962659 12.999434126334027 -0.6669994387555287 0.970905375081418 -1.2710700991973207
Ni 2.5312839544697296 2.4213165961024004 8.227552237838507 1.7105875862136541 -1.4054896864621924 0.4397496576317975
Ni 1.6306312210487668 -0.3672924634944747 4.600163343016615 -2.090924191994457 1.58133771607518 0.6385183005967003
Ni 3.1962538575676076 4.7882069683694 9.05171280655533 -0.5107421867902752 -0.19660017455867432 3.011068534472924
Ni 1.7623393379983492 2.115115664224058 12.295360588740001 0.9832584973301324 0.6706768876071159 -0.6233719318735651
Ni 9.222987245940118 6.170882050510826 1.8295703111833497 0.18277329597791103 -1.625876421917503 -0.2906274740494285
Ni 4.93372139611096 8.454312066220398 10.46787051509792 -0.05116186758579576 -1.6330256313677747 0.31152154388961834
Ni 6.112479311857816 7.519784629469991 6.4701203650893655 0.15783770907849592 -0.1427443050804832 0.22676409973656428
Ni 7.885112991954087 6.8013733403186425 7.727396795731298 0.08840712509049937 -1.189388465756113 1.171061385312151
Ni 1.3263163464320467 3.652614678423035 6.741731192607995 -1.8766767366676647 0.7419594372021866 -0.41528278283868475
P 1.9817630539970996 5.147709922464148 13.244977412675636 1.30885888791032 -0.4800475859198958 3.4761348164926393
P 5.917527885647806 5.517776655408477 7.46786138014829 -0.43579864340384944 -0.3095983587249765 0.01747861640073764
P 2.194227869065035 5.549756010553826 5.615229141207304 0.10930967957112143 0.0020121453340223414 0.3194102026090757
P 2.9353833364255104 2.880771294140687 10.504802861012584 0.2646477621562152 0.9910635951968481 -0.35019839163452593
P 1.3885097814532448 1.9322888918387668 4.867110127454778 0.05513936417630504 0.33437428011807574 0.35179864624211027
P 6.52884271147538 2.2547303561965024 11.397483982953387 0.7464406129019918 1.2188525366535008 0.2554984915567793
P 9.30002757507005 2.001162500116649 8.143828948175148 0.9772423730430397 0.22528263009503136 -1.7835626930197992
P 8.15410377933588 8.577890626007813 9.359657644581487 -0.2240233037666335 -0.39230817632038245 1.0511428198769317
