# total energy = -340854.5722277704 ev
CRYSTAL
PRIMVEC
9.45862768358180 0.00000000000000 0.00000000000000
0.00000000000000 9.45862768358180 0.00000000000000
0.00000000000000 0.00000000000000 13.84365770765522
PRIMCOORD
 96 1
Ni 2.060268832298514 3.957489839884024 4.33948787088671 -0.46382932428882057 -0.3660279024676148 -0.22904338268904426
Ni 2.9548185493325283 8.743281168220447 4.185644236812309 -1.3942925321947923 0.23380712262627476 0.033053588020859205
Ni 0.5835235532985019 8.558346078953209 3.1629575441332354 -0.09048843309956028 0.2952765427856657 0.7336599161975558
Ni 3.9196174944755735 4.144477451367454 2.5948827674969768 0.2278197946945883 0.15166783282235816 0.3668491128173295
Ni 4.6159238330341354 7.879774667377875 5.29553096434529 2.5435393927350134 -0.5578489104700909 1.0982253751870312
Ni 6.5081979783197905 3.199617293467419 11.129166097519342 -0.9998300285355682 0.6036076047624443 -1.2245321035367813
Ni 3.032350920789338 6.3633201774653365 5.60443839547054 -0.34887298795488303 -1.686088058410393 0.37008947413149806
Ni 7.154411424449993 0.11929977976216352 2.113511447759095 1.4325091524738296 -4.399835765974113 -2.008621894250115
Ni 4.307799576284466 6.081122019308214 0.725601600346537 -0.29321271827810147 0.9468449916981047 1.9255683201620448
Ni 8.760495870678835 3.128053316104698 5.016027569226846 1.0445677377625753 0.21026404519901207 0.4999070438479841
Ni 9.035127126656445 8.344770264936523 0.5840371567839362 -0.1777143933977649 1.2522246843560434 0.6329914572412002
Ni 7.692966769821209 7.971211221589535 3.8970728552944944 0.1884279231605271 -0.2061597932226514 -0.24313662755731671
Ni 3.241273089965625 3.3807121798785555 6.5318114424337255 -1.0490771955971545 0.3878000040373838 -0.5975079196226097
Ni 8.48394451327317 4.300677229608001 7.711401635256041 0.18055391972908905 -0.38893360342119465 -0.18504589406217165
Ni 1.2928052373693795 0.6296362551804392 1.443824525205279 -2.134921937731646 1.597977638624706 -0.9626580474709614
Ni 2.874845851922826 0.7520299520712501 13.647686525809016 0.43167099438872114 1.0365947468594277 0.6286414078026206
Ni 0.901873532481008 4.393664998766462 2.1239490434529573 4.671804487271774 -2.0836721384177337 1.1920297600337018
Ni 0.16800792909167303 2.23062817624247 10.712305456450105 0.239911949972432 1.0313111298629851 -0.730658924587703
Ni 6.1731639256942366 4.759534177773521 1.8691014532236765 0.09767338088377372 -0.029141140340330458 -0.9273017794588547
Ni 3.2855583849712104 7.097158350834271 10.353948319581754 0.6249842706660075 1.6938419913241989 2.2251751148919485
Ni 0.6525034335669202 5.281858517969687 13.597946440194775 -3.5630167631878638 -2.0369369391447245 0.40889076326941187
Ni 4.88170181346172 4.24650766863043 13.072801537211198 0.4072136326773051 0.2557761706981982 0.5595831195523782
Ni 3.6605835156154787 0.7131814762816429 6.457097742038783 0.5791520428232413 -0.40239949911811346 -0.8496806892402656
Ni 4.524430527056128 3.613848436029276 8.876041521097187 -0.8093405948603223 -0.08809550738735152 1.3530674641067342
P 5.58028768130186 2.172315736321617 12.5870414142092 -0.5367653503269142 -1.0046302781376892 1.5416763929298158
P 2.2074261624345457 1.066318396508904 3.293433638414536 -1.5258692506942302 0.7499344849878632 1.1832432720903234
P 3.096300702833927 4.15065393527148 0.5970938464946817 0.36474800731392665 -0.14658938985818623 0.19736764885231817
P 7.964703685715158 1.0258070939653494 4.26927363970026 -0.8605168606238212 -0.7263615827639297 0.02509062442004066
P 9.193114585536902 8.571815164832739 7.911373105016739 -0.40414527816462653 0.13800241952012363 -0.05422148034772597
P 4.1651350943175185 4.231827878402179 4.834025600416941 1.5376636722259969 0.9350171458252412 -0.22330390910210574
P 5.59404052601312 1.3423116948788274 5.946210774486948 1.0598773715364522 0.7471309541007972 0.46418105120128444
P 2.7976161565531963 5.394633736327567 9.421107239931098 -0.1138762158958813 -1.9264970026239014 -1.1950160963555356
Ni 4.3458705528751285 4.760139529947883 10.95808600614279 -0.7059799337837841 0.6419779770105266 -1.1087833532085356
Ni 5.561985236655168 0.19036812503212672 4.063847379330907 0.8767623759484061 0.15381110441760606 0.4605149152036069
Ni 3.949005450815248 6.9053941323500245 8.067474513528952 -0.4984497425761673 -0.7411747365173622 -0.8080193049457375
Ni 7.708951850675424 0.9680243371970618 10.064117994713824 0.49447713108166447 0.29574139823722617 1.3845735051348154
Ni 0.28864515881406505 6.362090555861165 7.080601968865501 -0.25588878501666257 0.42702758207943875 -0.47853989102611777
Ni 1.0533317006433192 6.852851455341049 9.212081971712617 0.79990284648619 0.07946328563365025 -0.07616661716024947
Ni 1.5660744509546791 2.754286182947774 0.14739852514300356 -0.7302236368224972 1.3905315224904633 -0.06596190871310575
Ni 8.059989901410644 6.7974806486424795 12.88841788594029 -0.8903629974509762 1.5871679496037119 -0.2293953667118243
Ni 2.821555943323623 2.9058606922310948 10.47721221022321 -0.2327840806783991 0.28885366997845735 1.4891029897084742
Ni 8.231976129323195 5.588403183889384 5.175312751831088 -1.5693316927532392 1.2820646505356115 4.125653581964901
Ni 2.2308173487969576 8.991125590482591 7.826387334913111 -1.0671517937106783 -0.7935774184887946 -0.032371217241853927
Ni 9.44674768796637 6.349983512373949 2.090960187538609 -1.4636259284832922 2.809955559645561 -0.23229557107775478
Ni 6.614058939811144 1.9533863390129274 2.6078401416166166 -0.9100771880504521 5.531550531167841 1.4590753329981323
Ni 7.286236319044791 1.009982809782448 13.457419608093542 -2.098368049867012 -1.0642485040209544 -1.3908210287064242
Ni 6.150642933082468 5.121998250799802 4.111635204182834 -1.0816358462594662 0.6685014772223519 0.0321686143127446
Ni 5.485805448962946 0.8375624308573478 9.671802492589373 -1.6062663609960595 -0.020821821841357693 0.5005937855023637
Ni 0.5439477090368892 1.1768708373515533 12.73688499461896 -0.7181682483198599 -1.6688662952154678 0.19948212409215965
Ni 7.0719227320656035 8.118699603695921 6.24221569153336 -0.12275629199433054 -0.9337819878665595 -0.17732615682041072
Ni 6.310824793594982 7.158961024385423 9.168197722522546 0.005355607884958519 2.6909489645016493 -1.3878681167256872
Ni 4.149310810134617 1.676957943767682 2.785952722706253 -0.05467090918031874 -0.5004207502596091 0.9761900205191252
Ni 8.321993889376197 3.066383063341687 12.82195400064656 1.2630415724658894 -0.16684839721753844 -0.033358263745471586
Ni 2.6586783739096576 8.451700051360731 1.7700497578311107 2.4088027884503544 -2.023068665803064 -0.37785446278889767
Ni 8.65480516448652 6.3931526893080575 10.601224278317662 1.1866954923049822 -1.039454842016042 -0.765501743298501
Ni 7.199888506548851 4.94323964543659 13.455439917310827 -1.1242074010730898 -0.951420269773613 0.33645970189219476
P 5.439382504091648 6.490113082110761 12.809467666187597 -0.7875121861313211 -0.9576001733320799 -1.615857090008288
P 8.724694964742024 1.347807157586697 0.9448213775263652 2.060068897176497 1.2479237429878443 0.9255657706043544
P 7.360041991178192 7.417909875595998 1.6612112203321205 0.5415555726267061 -1.0327193230644216 0.9733399526648397
P 7.314205481225807 6.2023154163408 7.3619876309010985 -0.08098794980829278 0.0017385799576615222 -0.5068698483190626
P 1.3841188294206233 7.051700185990861 0.6133390396113183 1.6049643543551844 1.157934875232522 0.16645296155133268
P 7.762582269872705 8.257599551828562 11.067700151115178 -2.053708245065792 0.02958799806976195 0.5083634021454535
P 1.0805820071172814 4.482405844076672 6.205474598000746 -0.7498830629246376 -0.8905211202953953 0.49690553801749904
P 1.244254101260095 1.1071607510228123 9.069907446661793 -0.6800318464594546 0.9657246022114271 0.18544595771406772
Ni 6.539326322160752 3.4147348638031803 5.593239380244864 -1.029493359927956 -0.9326370756288389 1.14858942946188
Ni 1.4829236546295825 1.8594621657097525 5.677242398927929 -0.0636995950414903 -0.16589117551059174 -0.5442755426610303
Ni 6.042445690543191 8.115862015378605 0.0710219979941137 0.4650629395856055 1.3865794798212507 1.12999855383357
Ni 7.074665734105676 0.13490651550740407 8.075448136700611 0.2886531239318771 -1.4639542583569882 -1.062924385892892
Ni 0.12851248316571762 8.866735177279162 10.404547248593369 2.224206837441408 0.9238832406956089 -0.8854305931463654
Ni 9.309351661641909 9.401639492348764 5.662512477972737 -0.24994182340460824 -0.3506668466305122 0.35987653815423826
Ni 0.7160256856383664 7.45662403887192 12.416251702703784 0.6697762301697175 -0.3973750493203285 -1.1008995795850844
Ni 6.442678064072954 5.915851417079979 10.994453483880289 -0.41594998410903844 -0.5797763066708015 2.75035096060905
Ni -0.043865331934622734 2.008057207259891 3.010358665467363 0.6783223199675156 0.09651021381360797 -0.7351524415826822
Ni 8.436405450330396 4.049947925889918 1.4175494032497011 -2.6407270922316197 -1.624899145605898 -1.1259637216425642
Ni 2.6218464775508905 5.715914944241862 12.851731652448478 2.2621095260244526 0.3291256301246267 -1.4763269209897285
Ni 4.941735723628411 4.829442895284474 7.119308565239243 0.9040551502260882 1.4143972733644672 -2.02480827420199
Ni 4.851386911605055 2.4454430704910504 0.793649805784103 0.1722510562903485 0.7219621681446534 -0.6261286686830958
Ni 3.7740681310526876 8.367745271679063 12.716756088958686 0.12224001447954431 -2.2318869796944854 0.6271653374777264
Ni 8.771080075102423 1.805169642571764 7.356381502248854 0.5305697630391637 -0.25442119933220053 0.49212997100572664
Ni 3.9917868240126557 1.156837463831299 11.614094807144367 0.8768901597755221 0.43606886634610065 0.9804336262868276
Ni 3.256132594120639 0.0719357014322896 9.874362788758237 -1.5327279254872763 -1.1739492483829073 -0.19889668390233486
Ni 6.2841609220399315 2.277798352703994 8.130864344812256 0.8687605886898522 1.6834670758477783 -1.4059098047187464
Ni 2.435227752548711 6.076600795255957 3.0668966668271214 1.6037978448509087 0.8241645472470321 -1.6642210831339725
Ni 3.051135755449973 2.0756485609783693 8.293624627242439 -0.8564897417422991 -2.049957262663792 0.4946409103530384
Ni 5.58475215358777 8.472007725084994 11.363054314574152 0.8116666718903376 -0.07949748130569534 -0.6103768051654778
Ni 1.2628875978771397 3.727124961656549 9.006461809474915 -0.7255462859514858 1.0394499569200357 -0.9210948793171942
Ni 6.396453750383868 4.925873604934613 8.98519881435049 0.4537603700885927 -1.4421453900120131 -1.0470935895082223
Ni 0.8756211112319686 6.479992350445666 4.530987247794674 -1.421336680796778 0.44171937976365866 0.6157133868870429
P 4.32520345129734 7.220035383601798 3.0666611469967844 -0.07696648735372551 -0.2294830413296241 0.652845772962966
P 1.5641638081543525 8.015004667953454 5.977234127560169 0.5148307550373521 0.014632662311510284 -0.7078684090557487
P 8.609110533950002 4.933279710442809 3.4136386088499235 -0.43210293971981706 -2.4049170802427033 -2.002167653984339
P 4.933781017712201 0.31069416590238635 1.1475339576015908 -0.5473109870532444 -0.2090270874681174 -0.2147375075893334
P 1.9336651002075778 9.092266696739474 11.87446623596469 0.9493690436715392 1.1047901728887426 -0.511215526882268
P 4.768926595103839 8.831889592742515 8.160739420479736 0.21438243824275982 0.9978801038980494 0.08991096332953546
P 8.041110480472764 3.8898511930269235 10.019416520088365 2.7067231966167706 0.7411099447176979 -1.6435381008633243
P 1.2339631142959604 4.027928240547543 11.877830669846254 0.04896203172099955 -1.2490982229119196 0.22591589280365607
