# total energy = -381172.0220244175 ev
CRYSTAL
PRIMVEC
9.24493963326658 0.00000000000000 0.00000000000000
0.00000000000000 9.24493963326658 0.00000000000000
0.00000000000000 0.00000000000000 13.53090364610328
PRIMCOORD
 96 1
Ni 5.062214606611633 1.6373527657812448 3.7886261779371306 -0.5509786657128188 0.11384381999604909 -0.5589112902963342
Ni 5.800210401460084 0.7796202109824113 1.12845119712496 1.176124401657355 -0.4516610643574028 1.3510527476695506
Ni 1.4561149695192153 5.560405912721011 5.353677968945531 -0.6580126618758861 0.07544542272350878 0.596726818482211
Ni 3.12907924270718 0.23617215196334584 4.952351442172771 0.7545341885434037 0.1810473144257398 0.2887883639581607
Ni 4.116152200731085 4.071573101895362 12.404604818466352 0.2946738762046603 0.8766453907545677 -0.572977024360781
Ni 7.855831970357173 7.0215039046940735 1.5729404979840382 0.20209256513181326 1.52100652328529 0.38293727662844373
Ni 3.0745803236618494 5.392841382153306 1.0659054826365324 0.1395003442218888 1.2628664803406058 -0.2749080064316427
Ni 6.87271584648957 7.181062317552999 4.08361278675927 0.2844270016656714 -1.522171747237985 -2.4895752798137316
Ni 8.946355802701222 2.892889525358561 13.565813610138102 -0.16195173124686948 -1.1373259407329188 -1.4529239686847557
Ni 8.027658418088558 4.730737296625147 5.750701900820295 1.6162268146428809 0.18242593994082132 -0.18325383515875535
Ni 2.958528596643014 3.2583789681979343 9.357783350500094 1.0253171170630795 0.32771923669540337 -0.4002464573308526
Ni 5.449956619110398 7.554169590637216 1.237847492113137 0.12174070624562258 -0.3448391842051416 -0.578083749459727
Ni 2.5491626703788497 2.3484550312823047 3.765514753387271 -0.1968601130882803 -0.8670916856278614 -2.64563429972525
Ni 2.622373347210058 3.2779320154890073 5.579129688928392 -1.5801002441236531 1.2981852102465579 1.7692838145032819
Ni 8.849487325388758 8.756575682232596 6.294982004404938 -0.3312359915994102 -0.25593712175609473 -0.08214880288561335
Ni 7.824879912517687 4.8262097880553645 1.1137434226874339 0.8880379488622254 -1.1165177457383157 0.4162330625670961
Ni 4.518371788670899 5.93436372025004 3.0837069280522735 0.7034435405151757 1.106047185224295 -2.3270337375016634
Ni 1.0885823950243683 1.1062679645127003 5.559591433540707 0.15912660309324853 0.8363235512070694 -0.34526495888865055
Ni 7.610110720262882 3.2857254995865834 3.193658843911464 -0.655363140068181 -0.058483598058189604 -0.5834655825969307
Ni 8.766902279785375 0.1656508280668764 10.536772010044274 -0.9420118319755195 -0.11854405368519584 -0.4205003224838822
Ni -0.004341423644391403 7.951655769492856 4.02769014701284 -0.9980521106995393 0.11439377896224816 -0.4298498820195823
Ni 4.149748311301184 3.6623088699669912 2.137598297473638 0.45672870868829724 -1.1003635045759566 1.0455545271558768
Ni 5.777717463370636 8.723090510937906 7.393462031783832 -0.14839250450519606 1.422088214250822 1.4943259286703106
Ni 3.5453881186241074 0.42470420558360533 9.01145959198182 1.9256611369861676 -1.0550946054358281 0.8433981986656636
P 6.790260230040833 8.849579774784932 2.6606760565394407 0.924193572847176 0.1935701294830989 0.04841901473333597
Ni 0.7539765974713107 8.52067255801212 1.2994021490745655 -1.827971815262794 0.6737526983189621 -1.763667496757769
P 6.319424700259722 6.636812722269094 12.827202102311123 1.1041864778664725 -0.3982553950427528 -0.006234925166118294
Ni 1.2382857022510079 9.051267377480935 8.109571356581746 -0.45272421551459446 0.13177417922222467 -0.5558766172350684
P 4.796006570324899 1.1284465746551513 5.972297556488684 0.3198730011781072 0.5708851748287587 0.6099988530007687
P 6.19153945053045 4.9249180083517174 4.159508194055409 0.5006166683204991 0.5847133389611028 -0.1964273964262359
P 1.3561309475556442 1.363896696834368 1.1507185586877393 -0.02343329132227577 1.086005950302704 -0.7400768754674931
Ni 3.533452901577878 8.48019821236658 7.044215947852456 -1.310902143592594 -0.3175127284760467 -0.1557970244993833
Ni 6.920918961655364 3.680974403054781 12.593198813182049 -0.701978783044191 0.4040869141228654 -0.8199643931227557
Ni 2.5675231204592617 3.160715426078363 0.27251955656362103 -0.7873070120990505 -1.3683580717172177 0.45116921232264884
Ni 1.762298124712143 7.058095375700252 13.211060315676564 -0.48656790353691687 -1.4446478447188926 -0.8598769130469771
Ni 9.15490315059343 2.078123751926153 8.93367082105201 -1.0517496002229951 0.4332591648114474 -0.8522196536120356
Ni 6.618433782309448 1.3635916138269895 11.96326711752289 1.6155896952795141 0.32092586792265376 0.5536806380250141
Ni 2.131624217492791 8.324069672105757 10.877222458423534 0.4401733754327774 -0.5500960059975494 -0.08992998949292899
Ni 7.648190626547482 3.876384691750482 10.134416521492081 0.41076586880493776 -0.7674300706694654 1.2156931650889127
Ni 4.615878166816972 1.7268900059770087 13.148019996918597 -1.7242149471891013 1.8167160398433162 -1.8066123757504113
Ni 8.191053480888757 8.282587628041908 8.636776056692813 -1.8410222206888487 -0.03490272541445602 -1.8119800678202276
Ni 5.03293588284292 7.468727858692017 5.4007790873089165 -3.17724895908916 -0.6510259461454078 -0.17390890360874564
Ni 3.0594925822060426 8.993440280173294 13.383903706765878 0.0016321362867842857 0.7306848927296319 0.26406669284176454
Ni 4.017240591763147 5.065940317277497 4.9414590543153984 -0.38764445229612593 -0.36531544978162245 2.2764354557288216
Ni 1.916938229694543 0.18848305544028665 2.967353816001906 -0.41576615023300656 0.36835063706352045 1.1023291129427595
Ni 8.485467827948572 5.528233522852012 3.63333153122981 0.7060313558470098 -0.13335875010052514 -1.2121499278223447
Ni 6.988897002663051 7.3337332503968655 6.2710329883257305 3.301533000581927 -1.9712529666833531 1.9214247303073169
Ni 6.084344375665206 5.15368403918746 6.570349926864719 -0.5278865597800457 0.6643146928345139 -0.04380568433104069
Ni 2.1561417973584764 6.998946252027304 8.606588555359698 0.5056958826156194 -0.24082777691848203 0.4562774800834916
Ni 9.245032066924717 6.73101865697171 9.880739076362946 1.146409905312058 -0.03718663635262628 0.702846530361125
Ni 6.176950935813989 3.1133351105385287 5.276199827986872 -0.3676947486470764 -0.8826394035544735 0.42677947062437466
Ni 8.121032308225596 1.9889932890735604 6.2186548584286605 -0.019409771985179472 -0.5507176987419482 0.5518916644453915
Ni 8.265031487708221 1.166803829128277 1.513864409334069 -0.16088086678019387 0.6199323100643969 1.578882826776784
Ni 5.232266025936453 2.0273135637882165 8.154223490440447 0.3810171767875954 -0.6908307368471716 0.22202632794126276
Ni 6.5106470313086815 0.07061932025641526 4.868987048159631 -0.3782686675081808 0.7629954319368795 1.188217071155831
Ni 2.1249586160285525 4.914609900678172 7.5530454059797245 0.28967642299006885 -1.704443420989129 0.36027377359265694
P 1.5860248610247263 7.711028481127823 6.262440741445199 -0.46195293320171416 -0.31892015034653465 0.09179686749833868
Ni 1.753607881471666 1.1950286297805917 9.883026274424322 -0.4183341680704989 0.15300300669401393 0.8364860449268626
P 0.43679936008521797 3.495511669387541 6.748443519162827 0.4856947569033442 0.4657836198017139 0.856577416360099
Ni 2.1504469145540788 4.725513905741243 3.20908402566331 0.5562419709942872 0.08688734601186326 0.8726619806267875
P 1.970725288389324 4.884147824638416 11.96020889149741 0.06877958066755897 0.5395747947512514 0.734522007087535
P 6.228260350691273 6.548486569163226 8.6867052020852 -0.24913886788733866 0.419068218023046 0.018659781193032382
P 8.706320190471711 2.1159447999014622 11.463692768446728 -1.2167357474208143 2.042950492328656 -0.8929628969676686
Ni 7.824417665536811 9.064728009564057 13.305817248780386 0.2915291599280915 -1.8504005765799554 -1.2926185147920577
Ni 5.255951561236561 4.496553731173531 8.855556628247665 0.5550204398823603 -0.3648724487069329 0.5077828470516352
Ni 4.594208028353486 8.404574606295197 3.2177705709279403 -0.9290943525829031 0.8336557745669192 0.01944756720165038
Ni 4.481059212374554 7.596696312877848 10.011989484112998 0.8766819004194579 0.5509035895005092 -0.6314410820349446
Ni 5.3240867662177465 2.7791305433648725 10.587525804050543 -0.5857042421194623 0.268154489757893 0.2637584175727264
Ni 8.45308280446837 5.687338933669677 11.843518339151004 -0.4327922524773579 0.29353950548990093 0.8519486593388361
Ni 4.17710408762945 6.729169669048204 12.774444929889734 -1.0738160931047311 -1.6243594710523444 -0.7810229788625517
Ni 5.8328450383099595 5.2317760441367245 10.962643851501573 0.008537348047049814 0.8915562464281291 1.0597048505143298
Ni 0.9820252209927341 6.425750750800917 2.0569676321054007 -0.14252087621576745 -0.5490464816871126 0.9565105398123268
Ni 7.540015588082779 3.738912439637833 7.872618007220719 -0.02942139058491062 -0.46450809552340006 -0.511517374393403
Ni 5.530849840763772 5.061354827227203 0.8664394389306218 -0.2950981082262724 0.37024374032117524 -1.0408154698089946
Ni 5.294900491845209 8.668517632375636 12.552943572605445 1.055130600880086 0.8309710286459044 -1.1952505809638447
Ni 0.7097894840753712 3.3471211435865906 2.040081749893985 -0.3181922710415746 -1.1928689681055455 1.9370215563043094
Ni 0.8389292721107422 4.842887659125386 0.39040455510861277 0.3540347346614806 1.3538794184850682 -1.8959160445132506
Ni 0.3894763631710129 3.4950679122859 4.572606302443169 0.2757202179202929 -1.247029256198033 -0.8561791524804158
Ni 4.300977033564715 6.060399982055808 7.460642234502527 -1.74093971614295 2.018973669798084 0.5115561980511383
Ni 6.903547720114028 7.437932964826029 10.675314826164634 0.23564597560722644 0.049735162441598216 0.2495319895606993
Ni 1.6568595883742299 2.85627031953353 11.336150505977267 0.15886589323269415 0.9827499331248302 1.1518200205840357
Ni 3.351863797610383 5.739277004440953 10.517489839483995 -1.1661171539329982 -1.2354140405566079 -0.23472654911675056
Ni 0.9121704572426885 0.8546355000269614 12.295815916011048 0.9120340546665068 -1.0586964638544734 2.4946948604284844
Ni 3.5772369356064937 1.3480878500883944 1.8505133385426005 0.1074723692520665 -0.08786925030915835 -0.8851979083102691
Ni 0.8212242882492132 4.357722472937105 9.728760589496433 -0.1436174517140559 1.138722049749497 -0.2866584620993515
Ni 2.6421575179915697 1.7898203099535255 7.4051661253396235 -0.07233721611183026 0.1588322117812813 -0.25080160030174226
Ni 2.1836454927206237 7.403523299569588 4.143392415314133 1.716469756026044 -0.7711023773147301 -0.5424438887689302
Ni 8.383551613604936 1.009658345509527 4.0100998004025685 0.8399356940383598 0.39097428800030726 -0.6191085286115209
P 7.160436857266293 1.0282129393219068 8.200377002493035 1.3698349133730603 0.42505297485157123 0.25069078575549086
Ni 9.24965453673348 6.058606463770007 7.486689851874914 -0.17163116331816247 0.3767283196042544 -0.038080351811489256
P 6.407926507218322 2.9282144396371375 1.008846639811108 0.1895422392706284 -0.01183530207203123 0.8767690608166255
Ni 4.351694772306477 3.6290363322835058 6.877217207589345 -0.4220697238535312 0.03084732439815978 0.21705201465512294
P 2.8456478839129904 7.708421408155679 1.7438221128865123 0.751399499569164 -0.6042406103607528 0.3542288529501577
P 3.7681911634065455 0.702724501219656 11.293217006393464 0.345047957781838 -0.20969943094479368 -0.25459783411938086
P 0.20692116301348554 7.9361150259957896 11.93630055315252 -0.6362505876084462 -1.0179971863628983 0.4651891807508247
Ni 5.9333652667713475 0.4380502004154696 10.059969796234009 -0.17725236615968182 -0.6071014768483157 -1.0544793404493324
