# total energy = -340854.47483550647 ev
CRYSTAL
PRIMVEC
9.41435210231317 0.00000000000000 0.00000000000000

0.00000000000000 9.41435210231317 0.00000000000000

0.00000000000000 0.00000000000000 13.77885591902974

PRIMCOORD
 96 1
Ni 2.9946677126921735 -0.03616711606511721 7.422077412682157 1.1968981438695967 0.4029607709382222 0.1511942356200493
Ni 5.02434551703475 8.188961111968508 3.0553234411706973 -1.0554586736434661 1.179119479729937 0.5450913536941064
Ni 7.6067399270943366 4.5943355752406765 7.045308455734129 0.9097766260908977 0.893951486133183 0.4368517672587121
Ni 4.499231791371605 8.092266302612021 8.75923265985347 -1.295244382450679 4.905734765739474 0.7119508066552384
Ni 3.4098029783317103 2.0047580146077295 8.282442802988577 1.1779570839907196 0.5431596838890322 1.3358672981783637
Ni 3.7246189090960904 6.072464153513817 8.668140331370125 0.4097816505147974 -3.004951880052225 -0.6671084535295672
Ni 8.614358021284277 5.992423332839213 10.738840233102437 1.6566640967223212 1.411665476255601 0.04032029688560152
Ni 0.3997898718851725 7.601496133032262 4.29595804449746 -1.2835430348533508 -0.3977985100109923 -0.0005946961612054274
Ni 5.97293562420637 6.678936709131083 8.571399391688853 4.4686271737162135 -2.2255052445378576 -0.6497115982093584
Ni -0.16686562339791666 6.358236808368864 0.32400810405380426 -0.13557067015017943 0.3211827211284662 -0.5814351824304631
Ni 7.37528808325934 8.206415320570098 4.099871213937474 -2.42333286374573 -0.5802658447127103 2.538312340008119
Ni 2.7068992152138596 1.238232060697245 0.19567354050733662 1.2986266686593504 0.7548997994129386 1.5483679460173785
Ni 6.759081087677649 7.636348064123463 1.8452647702583052 0.6703058774209424 -0.8091647314040903 -2.8082869136938857
Ni 5.107276543772293 3.8430797002685844 9.415078784516602 -1.1869986253676976 1.4275088710457609 0.1622983159530108
Ni 6.322998888845805 9.351708898357476 7.392921164548864 -1.0868443870435993 0.8590976116787914 -0.5357942446628966
Ni 6.913674161812873 0.8730775898073522 12.158159237323575 0.41855836826616305 0.5124167462792207 -0.921940258036625
Ni 0.2052112205150338 1.3745236345511902 5.316268568049138 0.15817915157831466 -1.0330659077705628 1.0934454372998845
Ni 1.563912153665635 4.206200671127224 13.287363687548861 0.5702897073366049 -0.7760836325794053 0.3780727494472908
Ni 8.85210806660496 1.7256789640222243 1.12287800568361 -0.5681279237985958 2.108768933485362 -0.1979888273760848
Ni 0.1252259445172093 6.431970013205784 6.4683602494132195 -0.5973672802796873 1.0420161749853152 1.6774339822798208
Ni 7.306666871556542 4.722163646649731 9.502560709009275 -1.1765746018208962 0.399421390326396 -0.09274174791011125
Ni 4.9582661803710195 0.6825085109525407 10.370696705453641 0.22990393091712663 0.8303218250976796 -0.8379132642916924
Ni 6.743961638371202 2.621416899085254 13.593406383687665 -0.17831577442718965 0.19330170631306062 1.5740226704710054
Ni 6.238599223196801 3.8756910155846076 5.205624513339374 0.8760689494258074 0.2703242437157022 -0.025491973623517388
P 8.497412940783226 8.573932793811124 5.873443810871709 0.6703534428294262 0.3754412253617147 -0.4771594657388234
P 6.863024948071474 0.3823516676819769 1.3214295135962897 -2.205369135909615 1.5272933847352665 0.5624285594209734
P 7.107976972669513 6.541835501005435 13.632855342858775 -1.1208022320462827 0.6064625577127362 -0.9382870748257647
P 3.9134613957947355 3.311837231455689 -0.08650189044983117 0.09266152949147911 0.16295343303850643 -0.42872502438651966
P 3.016979726923979 9.207537511882425 12.542947339302255 0.11986560071009679 -0.6456137739909011 -0.7481887059413502
P 8.51921658000722 6.327433048636176 8.526631323639695 -0.7427608500575594 0.1878630517959926 -0.9250950016155229
P 1.191310930346477 2.4004808864303957 9.519880292377312 1.5007246331078026 1.3095330311592093 0.5309816537656017
P 0.8273906810033311 1.2916302652216336 13.306061532049194 -2.916656083728609 0.2276400745836144 -0.953791598219267
Ni 0.1509450127365637 4.884834234797988 4.863660415722564 0.539543941513316 -1.3885908538243248 -0.7345587738627414
Ni 1.0265880134629737 8.656675533508736 1.267224499105797 2.4693651234144443 0.0561094413990582 0.10970125858258527
Ni 4.051965342367868 5.840560420782986 2.6642522006695226 0.9634139518003794 -0.8011002092284009 0.0687484703193074
Ni 0.5368967286220184 8.780916736807105 12.309520364418384 3.4214808765931846 -0.29610778043770936 0.44908481898979424
Ni 8.39309250630954 8.683242834842979 7.96933181137077 1.292747327060438 -2.273311822498175 0.38518827744614953
Ni 2.507484411223097 4.656470298417857 4.157108591206054 -3.2226369003056567 -1.7247139983127069 -2.0838204910701403
Ni 5.341025489494447 4.375771979288947 1.2636065636335256 -1.4193127083882138 -0.10478248112472921 -1.653373341786191
Ni 0.618896675947103 1.4367054294883532 3.027076619440271 1.7716291748070068 -0.24298056159542666 -0.15397976878498643
Ni 1.237488326889518 7.900138207066583 8.027864603474073 0.8559865768536356 -0.4074306337841177 0.5511928386061539
Ni 1.4788252403208841 8.877385601715677 5.8397131291032975 -0.08119878026751821 -0.9159673282826418 -1.2355595649955367
Ni 3.2175995679702996 3.1195396775743127 10.552399347598108 -1.0344766720751601 -0.7064563591995705 1.1115223494062534
Ni 5.242786726410525 3.908594175812523 11.833129676078146 -0.5786007983054616 -0.3689702729253903 0.8636484642742674
Ni 3.7636978842337383 5.74829977121687 5.389172368475164 2.5152019792429003 1.1238366479972322 2.788491990455146
Ni 8.382105957529573 2.7514385145095024 4.140229599511453 -1.2820245413262954 1.2901070612241137 -1.4161870182750385
Ni 4.210606587861606 3.2824644532264764 4.554352822311361 -0.45537039488818987 -2.1337775397145573 -0.48640900936154935
Ni 5.77509301699903 8.259267492678688 12.65762920958334 0.13860380054954838 -0.1805243520427343 0.9690557234671892
Ni 4.478623774851173 6.141706712448387 13.291634979049693 1.096625377689763 -0.6117418038338045 -0.1914721093034896
Ni 1.9412487960390539 6.469533277671989 10.026652977480794 -1.1536581022340389 0.26740475607606207 1.3883604829810734
Ni 5.794552482575884 7.364348606239358 6.008642378458856 -0.36094200330427517 -0.14040562964497755 0.06787378102383794
Ni 3.8623791218614962 8.484214019284074 5.035166373219576 0.612616493129274 1.4600752350175563 2.52940501021616
Ni 4.66509384484669 1.0172866336903896 2.300600260358278 1.1135656050885274 1.3599863027137544 -0.5364881854061276
Ni 1.6684961899952253 5.307642197314706 1.5442794640120454 -0.06730428167361312 -0.665304567551609 1.6157192788788433
Ni 2.1973662421049918 4.294657922486737 8.727885692010583 -0.9670309797276765 -0.6204881825678668 -0.8794874881890531
Ni 8.768310919483737 3.0317696739105475 9.082126104630884 -1.7745301505038857 -0.6896269463470575 1.208507703084067
P 6.099125598368025 8.222297332388266 10.330393864556443 0.837744599924312 0.09318037810942661 0.5064291612372182
P 5.479943667555427 4.752656732766532 7.250861417226638 -0.8660946118219148 0.4614186579647989 0.10801281513656881
P 4.601443410998066 1.1203926167565228 6.517811957580658 -0.16991032397231381 0.7667857522172472 0.4371014213756731
P 0.4488075784255702 8.211950959544065 10.02566070478036 -0.9188698466414176 0.9450827575913594 0.638651740850771
P 8.493628371280616 4.206097113255262 0.640780337163066 -0.5449139475759776 -0.7755555279900773 -0.2449124885108169
P 3.7256168304077235 5.318082713678873 10.661403422190077 0.6443966137543483 -1.1214030988550752 1.2373374828315657
P 0.6243513514938998 3.7270572262631947 3.011038329378961 0.6978025401793143 0.3939958484354505 -0.37243586287648767
P 1.7885291779511419 5.022923949883273 6.578398019854406 0.4185030895481954 -0.7564368048827552 -0.46929806071287566
Ni 3.9349543614028426 8.022929600157486 11.128478609229738 -0.5754319136591767 -1.5374428144644423 -0.5758420046134018
Ni 7.588720857372954 6.029930111193438 5.086602626787886 -0.7635510473300334 -0.07713103795604781 -0.6139079582471878
Ni 8.006548627683502 8.183105385026659 11.716298509236253 -1.8824655754353001 -0.9253500550491224 -1.324716423767867
Ni 8.490229790209863 9.036742337961151 0.41583663486327915 -1.1906668182479043 -1.9482472498167995 -3.5259846501352303
Ni 2.5503573702153517 7.139138477778069 3.9905912988320087 -1.4463167477808834 -2.22168767056398 0.6099176061408722
Ni 6.132414747027799 2.675304649913463 7.865549877831286 1.176642221834038 -1.957740791129532 -1.700533801522078
Ni 0.646917553229612 4.043897242706832 11.156367685584295 -0.08446793793709323 -1.0682280574939926 -1.519320393832119
Ni 7.123275294663894 4.193397152411926 2.490679792909269 1.3739201391860272 -0.2500079007558533 1.18483941293285
Ni 7.673939571645656 4.1710568951241305 12.15212369625859 0.9899047990020566 -0.3351224711380099 -0.25773072332140773
Ni 8.682847432059123 8.863377045944821 2.6899637374072793 1.515239538894526 2.2123347685941708 -1.604782063141049
Ni 2.930847820507612 9.018968041391679 2.9321959557135173 -1.883887395483491 3.0294686342466663 -0.5414090197465127
Ni 6.33169775009061 6.016335786910431 11.581211031002665 -0.31447934096636165 1.4083832059599035 -0.11235052327997426
Ni 2.3924410298253482 7.0829065533027205 13.41107015565383 -1.6792198705356498 0.12064747318144382 -0.6421350714136812
Ni 7.644416163784499 0.7257844042102473 9.459487224319492 -1.4510118392637075 0.3412635510387413 1.1665686396481199
Ni 2.8224886290274083 2.8048837907938737 1.8482265253964174 -0.2945828591527507 1.9716915968826685 0.1750083073205115
Ni 0.8912049245766946 0.93524620465172 7.441711985206144 -0.8400963879859402 1.0337575345209489 2.40982917283234
Ni 3.999649788323082 8.561628235751643 0.6050764072161786 0.7385390986667281 -0.22652704402509377 0.8776563485175853
Ni 2.421889122870533 2.879002984062653 6.47516682590672 0.06785655463265733 0.13785226709550452 -1.5715754944820934
Ni 0.19548431203220612 3.28678564079289 7.134553688355752 0.8453092996454474 0.1534884309708647 -2.386501553849993
Ni 5.7723157831600505 0.6389294755605457 4.724866507107938 -0.07006796046167933 -0.2668720235010436 0.5426647465304848
Ni 4.692536680916612 1.507887344934211 12.555803578388735 -0.8620068149057863 0.12929743554695797 0.6515651064783294
Ni 9.10231329961707 1.3107696428306046 11.268982164166935 1.0747116083358073 0.9788644820274949 -0.008794458363178402
Ni 8.572492397955653 6.4366771892040555 2.741578863663523 0.11367515562866873 -1.4424932602697351 -0.37310023593336383
Ni 1.9961062251229067 0.6180889245457997 9.866418823629242 0.9249006262165297 -2.649374997714605 0.5245801211146321
P 2.7084619976452857 1.7304237974284817 3.660118359262179 0.7607747701364769 -0.3791590405329341 0.9713815433868883
P 3.4784336043865047 7.34242258043941 7.033885081021524 -0.30018709271340566 0.5180281789287272 -2.412948178077296
P 6.40423533222397 2.124273213203836 3.3659264494166243 -0.5350676509095172 1.6833521475364686 -0.5486849845826357
P 6.859993526728588 2.6941239395545513 10.187659108196064 -0.4933936682094987 -0.8176539998220241 1.2075044586305332
P 7.663244867777585 2.340219619300527 6.124219553614809 0.4395894779048494 0.3249344748614146 1.271704647457526
P 0.9178353020693143 5.97617416129318 12.07866915624077 0.7614481420544177 -0.0018679064466742027 0.6772565977071626
P 2.607511901186361 7.208710539032517 1.8671587872614643 -0.35620705972245104 0.05634058357325781 -1.6868393347541206
P 5.939448774154669 6.4619453099627755 3.6145246525429235 1.2959663482183683 -2.267694476311398 1.0642449044765283
