# total energy = -340885.64340765926 ev
CRYSTAL
PRIMVEC
9.16648184912786 0.00000000000000 0.00000000000000
0.00000000000000 9.16648184912786 0.00000000000000
0.00000000000000 0.00000000000000 13.41607274838873
PRIMCOORD
 96 1
Ni 6.640290999538313 2.2120645274079394 11.546730988030573 0.05859749792823457 -0.2895892625929013 -0.07746836669080852
Ni 4.657461846181608 0.91180459986703 6.020503006803007 -0.45545524129251236 -0.6522356501827928 -1.0643235802332638
Ni 2.17383113228767 1.8001961722068025 4.606260629417453 0.19414734214280754 -0.10074430649961359 0.901845287058963
Ni 3.4845371823601203 4.180300641917493 4.507760367143687 0.6188272499256763 -0.21670054485297519 0.5466106185521102
Ni 3.7652240181255885 3.0709455286016567 2.1834522714672997 0.5877976343133813 -0.45484666117423606 1.2436107174347872
Ni 5.453497448923019 4.851928755190602 2.293236472698882 0.10662930452548088 -0.46626210210002916 1.0987753341532303
Ni 5.7937022502880815 2.952936243351514 0.2751530307704772 -0.5972261267161327 0.9856321397686316 -0.2609566864578732
Ni 6.039208129335354 8.19832705851393 12.065570351233273 0.003527553537284247 -1.296661831623496 1.2415636050977714
Ni 2.369370519654149 6.954325495684396 0.2962038559667607 -0.014385579297710711 -0.14331946085766284 -0.47273793963236005
Ni 0.8501911765535796 0.19728651877619482 -0.018757371477968625 -0.006511318755956528 0.3472423943299955 -0.0513816969060857
Ni 8.775210417060809 0.4273762089207416 6.31278544190368 -0.5855648883281206 -0.93343463182947 -0.8933891858718097
Ni 8.9088760530339 2.375420397568169 1.034383376238596 -0.7776216664904866 1.1776048428576236 -0.6218197568950968
Ni 6.870287191569643 1.1640056771391514 4.5150587198636005 0.8406170363761007 -1.0419045891081151 0.9958368482157751
Ni 0.9112133617981599 7.4994653281460435 2.169177309534718 -0.9587648830641422 -0.6190157117873984 -0.48774238346099225
Ni 8.112116298239144 3.9044720414466174 3.9408776401183174 -0.17930384937207183 0.7676714972563101 -0.6701235862068071
Ni 7.885988361480112 4.162563499851389 12.624416823762852 0.3134591272319634 -0.3431142310942349 0.33519626179873885
Ni 8.608572946456306 6.994658015111195 9.454628206472302 0.14124380927555677 1.160926353760678 -0.9183111459244699
Ni 6.909501400230519 0.6457016364670256 0.19121922454696771 0.3578291687069063 1.1143217665282614 0.12468101982086914
Ni 2.1958581877837156 6.6859400783441005 9.331281278935288 -0.15212548918506705 0.4236440103191865 -0.5275222344620915
Ni 0.5591471331289429 5.191198575423498 1.4493784183434788 -0.7659164622384164 -1.177857582298378 -2.098337967960025
Ni 6.508623656573185 2.138008521851321 6.931628370376963 0.8311975428344136 0.20897489407394335 0.9052936506188797
Ni 4.038550169095665 4.656123539855173 0.3906745328905219 0.025473975901388383 -0.11213069395968431 -1.3792515787012698
Ni 6.4779434423637525 5.683392809655782 4.367656194433008 -0.34384159617856264 -1.4154977055174978 1.574467728428224
Ni 5.52842427023999 2.8885325430122633 9.57772030581839 -1.2415939441150745 0.6387080480100032 -0.7361366598728226
P 0.3164223646257821 5.93953180746103 12.447110485121792 0.4716925290869812 0.000810411716437314 2.380222148599185
P 4.486176969361336 6.694987395770068 13.088384710933559 -0.059502269130691086 -0.18365544147254823 -1.7484532509111759
P 2.363751466379461 8.887362320512377 1.4918137286694855 2.117795305353688 -0.2875562913232725 -0.36657606166160095
P 6.780840663259026 8.559953927583637 6.03984886640534 -0.49770386554907836 0.3578931891756223 -0.7781145469665051
P 4.87556911146372 1.231608479587482 12.596229892572532 0.693093050518787 -0.025846785859774842 -0.03496314633874623
P 4.240478594198617 6.521328400192627 8.128731462946648 -0.35663386284722454 0.10641076075677158 0.10963620967260475
P 5.016742095939209 1.652029162203438 3.5148369875795047 -0.9028279626872064 -0.06551505098367426 0.6097404571330596
P 0.47135973800383635 5.806306162608957 3.545452119768952 -1.317506022062357 -0.3616426289157256 0.219417429563506
Ni 0.9300037326102051 8.844316522505956 3.9576339686438153 1.5616438371906782 0.5370139760026106 2.3903471528483284
Ni 2.217051093446162 6.388946071655843 4.506955550051488 0.6809001079970208 0.8485283208033774 1.193885582295518
Ni 6.201427355766285 5.972026985044668 9.05724380898623 0.2503706834119107 -0.623919576846919 0.16605315500975273
Ni 9.005884928737045 2.5561100846002356 10.37380357426458 -1.5389710781835109 0.5702488267963405 -2.048841146781478
Ni 2.6725335685183707 5.38715962094762 6.9772297834779735 -0.4532641471784645 0.7411855351506397 0.003937644491509348
Ni 0.6839121153830752 -0.06068210877395899 8.807382934489032 0.13254011085397174 0.3285509885680793 0.35581548071098723
Ni 1.3693898658384451 1.1262122731399018 11.10332901917486 0.4563245312713431 -1.2553943403332766 1.408509961345755
Ni 4.500678343391608 7.3590073292422105 1.7699962816378167 0.2421830053947958 0.2207729151501359 -0.053192010641947104
Ni 5.633527149273556 8.5465616978376 8.026380361715791 0.8307599410763628 -1.559779787398746 -0.873932876919411
Ni 5.808790279146381 3.2589317350572986 4.895162466071626 -0.7666237727180861 0.4605388264630068 -0.472191837320903
Ni 1.1164224706972148 7.489079704393643 6.851065079470097 -0.19574913941228866 1.740905006250273 0.11178359503291072
Ni 5.206735761884504 5.032205950546712 6.773641308541341 -0.18573032172370596 -0.2828041213502678 -0.2788430798199908
Ni 1.232607626091464 7.635972573442388 11.59771129258605 -0.3654997978782866 0.3100056214657242 -0.7353357612380819
Ni 5.056359629794353 0.4474343041502245 10.507883535209965 -1.4374379572340148 1.023240694150025 -1.0365464101199955
Ni 8.178939949744002 7.434823299282908 4.830765182269556 1.0160207793628178 0.3222127050548773 -0.8706994575837779
Ni 7.223765058418798 6.442038333592213 6.792664507988259 0.06846976273662402 0.44292574136693397 0.8435591497235602
Ni 2.8261271356809776 5.491336685330709 2.171163686116488 -0.10689078571698367 0.23986515589489657 1.4544134087460887
Ni 2.8810068615464903 5.158474235797661 11.715705911465493 -1.3950322385742941 2.39894415048872 0.8381384929286211
Ni 1.4598355406530457 3.6964112400944535 3.309476631732599 -0.8493145641500985 0.8704143222431913 -0.20726999556769468
Ni 1.465848752640314 1.459890539543173 2.276412312208893 1.2118390814501452 0.3413751369159411 -0.35414786320057723
Ni 1.1613565639313457 3.6252885086779667 8.148788641527961 1.1792246378492337 -0.19366963117544064 0.9199615370436997
Ni 3.8754692933860726 3.2034286884370085 7.551692274211074 -0.1975982768058855 -0.7072801406524464 -0.2533408217838282
Ni 4.783345139201665 7.3603273026052705 5.939939715896142 -0.7136598189265451 -0.07387782112607277 -0.32336018839575925
Ni 8.376670126233892 7.768290736607357 0.2723801700598847 -0.5189239512701193 -1.0449940266667166 -0.6209676933074467
P 0.47168148151108197 5.832953124875709 8.072518013995545 1.42034500630747 -0.09603430261845397 0.24651480000093026
P 8.709376745578245 1.8257156572259416 7.944568596003033 0.43627352615773896 -0.0913078436770621 1.3657648570687448
P 2.2247967704724454 3.5446143033426774 10.478341798026172 -1.278794978645404 -0.6504060531732218 -1.3314411440862102
P 4.244172686318844 6.1287096565361 3.815812913912991 1.6619659685512087 0.46065478321558084 -0.23340963007753995
P 7.161863807580347 4.1385564843107545 10.359568944851425 0.14851128947124745 0.7066183386987314 0.3160400005852622
P 6.424108695410662 7.941317244948332 9.893803510621721 2.392675286760873 0.1345658830347489 1.6659162114482082
P 2.6439066462070304 8.345265759971115 5.573546276348722 0.32333627713635926 1.612685377148526 -0.35874988074896275
P 7.528495575651652 4.334920855029146 1.5064370169062073 -0.3144459166252649 -1.6665412466267169 0.09205834868984146
Ni 2.8664229891810264 1.6507183553220668 13.337802844365232 -1.2868163062879838 1.4643862036880846 1.1091170823988705
Ni 1.6707471178101487 1.397677628327333 7.0569350916988505 0.5082932110291504 0.2874979272815113 -0.2982867903668992
Ni 7.10849655119334 1.1143141799089957 9.30112172088573 0.4617109923942371 -0.4556017941727057 -0.9065354934457807
Ni 2.7294115873918474 1.763676909162172 9.292951635757298 1.0664018029185311 -0.26910554081725263 -0.375525814655721
Ni 6.700716446825011 2.264524302107844 2.273286541953316 0.5090537433442588 0.6795461650722877 0.6226047146902374
Ni 4.389938078119977 7.17851013832559 10.511801289483378 -0.5877598390969103 -0.09351513574102605 0.06891379225257808
Ni 7.681438322614417 6.229962613260745 11.311962725632519 -2.1380831090684467 0.6853401460462455 1.279124594070681
Ni 8.149561375934253 4.3273035087464935 8.318756294929681 -1.9750399445296116 -0.3111101673838126 0.16330156040654456
Ni 3.3004008982134003 8.824058597975677 12.35561249820942 0.6914537151431511 -1.2456796841486741 -0.48975247191248555
Ni 0.3187084851587466 4.891408791820426 10.628065276620143 1.1628050588406298 -0.28805894199130394 -1.6442711223746067
Ni 8.893109704530696 2.9373073920736283 6.043954533553354 0.7333344145373369 -0.10554378477078598 -0.31232912739257823
Ni 3.914912664089146 3.1362108782195706 11.7084744740619 1.4155257305419555 -1.4521390108896153 -0.20923483260354933
Ni 1.08478894239224 3.203492853808824 12.374555949265654 0.6760206684175325 0.6512177504412399 1.230303973023552
Ni 3.1981029625763333 8.765603944251879 7.8193700391650625 -0.4142432858305769 -0.4293909401052928 0.19756099581004685
Ni 5.934627739757998 7.736043054029292 3.717378650307378 -0.11405285068306165 2.0151321845648065 -0.19417253895378817
Ni 3.602986458731283 9.110135324973635 3.4315897508344193 -0.7671721890223885 -0.2673456207033525 1.2154651082385066
Ni 3.937856367753983 4.852130417787735 9.646237006491006 -0.09003771871538686 -0.4472932743070103 -1.342378102713688
Ni 5.422771402305147 5.003551528790308 11.568410633870648 0.5883136547178514 0.08640192173501249 0.4691044566448308
Ni 8.337300087384321 0.3569684630759109 2.707698942217697 -0.9846142400270784 -0.685851024244393 -1.3614585163839068
Ni 4.553834770699794 0.9296920722328161 1.4309042911496666 0.9181676783680703 -1.3714590792400447 -0.26141331437931753
Ni 6.48391998842427 5.842623763056453 0.39649433211417545 -0.9361155210957426 1.2627129854818768 -1.978959334188676
Ni 8.279688749975811 -0.20251232998647187 10.983242609174237 -0.25188249207074687 -0.12386366612589637 0.7040678043627357
Ni 0.27659675163632297 5.575842480011544 5.910973633762349 -0.6206442485297569 -2.138036057880595 -0.9703065651551549
Ni 7.785826216076328 6.363591583307085 2.2385519928933215 0.027497691199636513 0.7579033621259529 2.1452122639140607
P 9.162485101893285 2.0407154852158524 3.794038853311531 -0.10591865161170147 -1.0166720397935716 0.8699893188906307
P 2.0804796827780025 3.5580798649422163 1.0332659821208399 -0.8437257572084114 -0.055948490341161713 -0.6104829917260389
P 4.787323392254217 1.2398399801432243 8.241466354633568 -0.7651261051266371 2.349121570539638 0.14804797668158373
P 8.559275607938732 1.6420376971636168 12.318235252478804 0.6945135850153975 -0.36722166566539977 0.879251718029163
P 6.628594568904542 8.307224860966292 1.6658201339028973 -0.04487680590803239 -0.6516885194300712 0.2354863101009106
P 2.095466880337734 3.4911920480655425 6.147270865305947 0.4856093962783895 -1.0197347378792954 -0.7731695442564038
P 7.210107000703814 4.3265151913213336 6.260275251554492 -0.14885838839802107 0.15679306986406547 -1.1355403095874057
P 2.620852944761938 8.800995730048896 10.221718809987802 0.291376179289995 -0.7683469260567799 -0.893451663678629
