# total energy = -340866.3479568594 ev
CRYSTAL
PRIMVEC
9.25784589975794 0.00000000000000 0.00000000000000

0.00000000000000 9.25784589975794 0.00000000000000

0.00000000000000 0.00000000000000 13.54979327169994

PRIMCOORD
 96 1
Ni 4.888568401307646 0.1592266143308165 6.691890282428068 -0.39488390746735863 -0.866294900758179 0.20403246246700343
Ni 5.922864183043501 6.65814080585412 2.2379786634807357 -2.4094867018912565 -1.9155965536613138 1.6014239453020935
Ni 3.293524904283342 2.2440925447945297 10.5119699746159 -4.878517839005049 0.10158557145398635 -0.32345274810956554
Ni 2.255674109790829 7.1593420574685505 11.826422054621549 0.5739707557326179 -0.6579321863469378 0.9642264203993458
Ni 3.9708937021124644 5.171062305621856 1.8009166928022458 0.3917613026779769 -0.21048773117404396 1.314358991792943
Ni 2.8834023388668277 1.224007556239585 7.338107355192404 -2.145267028411396 0.2881317042107683 -0.7574950709439406
Ni 7.519777764903339 3.6980279573475356 3.533339214041646 0.5514625473277728 0.21181416329495137 1.731080049740051
Ni 3.4845327771879364 7.272148907572393 6.310517956896452 0.47728802089688765 -0.8019728416413414 0.15352905440081302
Ni 6.954891792577843 0.7088945398610148 5.71992294700523 1.547659349986128 0.47763383427208056 -0.4821039542282923
Ni 4.3514374504520985 5.0049210063224265 12.07718839586716 -0.2963751751664831 -0.29300497314266954 -0.0828010917576316
Ni 4.598797830257152 8.317979965075946 4.446337775363421 -1.555131232883141 1.1149457732655055 -2.2537855795397896
Ni 5.925271222930822 7.126319321783658 5.695642395034172 1.000361475559006 -0.33439742004652734 1.866054223956812
Ni 8.64337472645878 3.6714209087469243 6.951097927401598 2.7206572901993593 -1.5182991516564561 -0.3302625719425474
Ni 5.267473510954758 3.045257255597684 13.304121431354412 -1.5074344410278104 0.04898465742881886 1.0335837279472457
Ni 6.622609193978983 4.358732632879824 1.531830926444982 -1.4698958206524042 0.4686825386160638 -0.1353402993069282
Ni 3.605921650274648 8.771577373995754 8.66104147344714 0.7564758856508069 0.41693831616423677 -0.017438764301737707
Ni 1.1886425855874159 7.370078399603451 6.880124504754812 -0.15520464233102305 -1.1385202181513359 1.9925373299834264
Ni 8.405762858197376 7.826443904393679 8.486791227081158 0.7199613356645407 -0.0564961353145156 -0.7178903120681249
Ni 1.0762801120781555 2.0738592776866542 9.055787682906539 0.45294738726899414 1.210835322775979 0.857081609690027
Ni 7.615263185664196 7.124791777239782 10.479761929354408 -0.3030914108443941 -0.1458522545818456 0.6986093523513259
Ni 5.1457698711135516 2.8548789162020807 11.065438245814349 2.480943315170346 1.5109069729574431 -0.6860451425330701
Ni -0.1850717422286333 7.557207235151171 3.486415823007478 1.8866832130610731 0.7313634068538952 1.3047088702976886
Ni 0.9567057767526544 4.6933111772173595 3.6950423021026864 -1.4694430493857016 2.1335140016405254 1.0912931668435721
Ni 8.397412281357518 8.045290119379706 5.902330281235515 -0.007039680455600779 -0.8264708267827058 -0.022307662358264806
P 7.2597526521526925 2.9190820762734924 13.61523874306715 2.1463432921947097 0.30392033450359274 -0.39779542468719875
P 6.586985003646641 2.932709625174014 5.407925214164476 0.5186313597303649 0.38561816589471654 -0.020261835572829623
P 1.6767532433531112 3.1036742620938056 6.95085444605915 -1.36856247441854 -0.675291760671308 -0.33806407026483715
P 5.487171447747069 8.901788974054067 2.235228157517186 -0.6074035814697669 0.09015907478459956 0.4826310303763559
P 4.699162135712692 5.765814088241566 4.048772551882144 -0.21802877674609547 1.7827535668549426 -1.5092460403152523
P 4.793879155278749 0.8199609149694105 11.450767374606892 -0.29855289954409225 -1.26338687162045 0.38782880039279016
P 9.098916282979888 0.49189433931164855 4.643961304819858 -1.4208065193249206 -0.10241063845844296 -0.10925902883884409
P 1.0313425289510278 2.8916418215580397 2.9448309225758162 0.4981774627513872 -4.817644657668761 0.3602580898633731
Ni 4.8295774083768555 5.200196746104154 9.72453742636991 0.38171060331019424 -0.7669184211403696 -0.7764595278615853
Ni 7.157184979415682 4.300500783298111 8.405803592718547 -1.5075234011971907 2.370923496906078 0.009359329727712914
Ni 1.7586018573677251 4.025385382023109 1.3950999514303188 1.7494361836497356 1.6500285936836743 -1.5331362166692886
Ni 7.0332039095272405 4.0683325283203375 11.605465050811256 0.48822703640689463 1.2651079680766146 0.45311193787131643
Ni 6.082284286349876 -0.12588448296856874 9.81098533813845 0.8367572963103782 2.2004380171565847 -0.08447899368068676
Ni 6.878116478018043 8.18456515039835 3.8940748756777777 0.36955031379857645 0.6761762201587904 -0.6831431383949267
Ni 1.9267983984170984 6.545963489259269 2.456238856832657 -0.9144632329332897 -2.5642781679442614 0.11790024945360984
Ni 7.091657947406245 6.1325173572291085 0.06443460621442301 -0.6238180182720482 -0.4371039924788343 -1.4384640845056837
Ni 3.1806254757222945 3.524609991311821 8.42921761033017 0.7883207980755456 0.04268879711777809 0.5500836647023752
Ni 7.756380527981214 5.280027149751707 5.705817693265534 -1.2927061894098575 0.4037035626415177 -2.363877388692574
Ni 0.6171437340637935 8.394005394132389 1.5648110760395597 1.3951106572207135 -0.8405460739288491 -1.9141937597765164
Ni 7.398675885033962 7.9210683455025315 1.4218884538070509 2.469525303141392 2.5346402904731704 -0.869518035681167
Ni 9.213148841324681 4.889429380959649 12.681278567465101 0.4478280637645578 0.19552391077536005 -0.08970373241473584
Ni 4.489055327086782 2.4171494548471455 6.050727993427105 0.8904738119972276 0.8368832803652814 -0.11138533115322752
Ni 6.593659910411095 0.9662413578447314 0.9053506549721017 1.5710335059356944 0.5471268960668965 -0.17639490325539298
Ni 8.924359601920557 4.121685493207367 9.820008960362184 0.09458677153865 -0.040167830468137274 1.434461391104194
Ni 2.4428122031842694 1.461054695912042 1.284627004232605 -0.9504000560392147 0.37189284588882404 0.5144211783037592
Ni 4.758865982763959 7.478321131767106 10.65250870157539 -2.292758618368877 -0.13074239552360062 0.7519620569408533
Ni 4.686191893858323 1.71331247610322 8.871563959345899 1.5788252340659712 0.17682479170395998 -1.240330761131935
Ni 2.798359768078654 9.244449617705568 10.87915557736548 0.43363454587299516 0.2958504130112647 0.0393317077200871
Ni 4.469697171685294 0.6101262870076825 13.777293629265568 -1.4625437511627069 -0.5663322653507536 -0.6529781847757722
Ni 6.526086894497435 1.4143396064065852 3.6775496026138708 -0.008987548210590973 0.4203653395679148 -2.025307325325596
Ni 5.586591452939121 7.473071933243603 8.473660824495825 0.10578392580605007 -2.6236428830558234 -1.3154339700246764
Ni 8.80025818003775 0.7323566982703844 2.373991229667491 -2.355780213506736 2.6639444108883477 0.9859442716924116
P 6.122722556456859 6.311360420857014 11.726289195309022 -0.9513518784295228 -1.4403386758205774 0.8452234247998605
P 5.173830401492275 4.001157599772657 7.747663340450827 -0.7352915382637077 -0.9948451737264673 1.5486435682762683
P 3.947721314274145 3.0684203855902825 1.5413702106753475 0.020547228023732357 -0.3462787448651456 -0.21226076391406667
P 3.6365373460722195 6.437554115872647 8.357729451461326 -0.4349396378376639 -0.47599012802107055 -0.2641628520999967
P 2.418612194470979 7.875343845489164 0.4496618987040401 0.6251501068199106 -0.3227942885899602 -1.1866026754808594
P 2.354399776553847 5.259743209778172 12.990213804941526 -0.013418073178118826 -1.0936992051819037 0.7514030991135897
P 8.348688239330722 9.167035511791056 12.429523488296544 0.48460923714864923 0.894809206147788 0.006522631609866185
P 7.961136301780695 5.882379623707917 3.2581830782454744 -2.4437818756287006 -1.5717091918464803 1.1332042052550613
Ni 8.2974645789594 0.721191736331506 9.180418653564557 -0.168686993088174 1.425269954412913 1.2570539874238866
Ni 5.15413896364485 4.963705077174924 5.937871150956372 -0.12210426023262842 -0.6701906919993167 -0.20174623753598803
Ni 2.785306205612801 3.007059384155053 12.980878193317011 0.3267414461631663 -0.3855225208571167 -0.61364416306284
Ni 6.265460021774958 8.640569599205481 12.176141805634902 -0.09143768438670705 -1.3603796814974314 1.748593890254098
Ni 2.931931966133495 8.367953816275005 2.3852376606487096 3.489906416355435 2.760353066127085 0.674630215827909
Ni 1.6259554438849304 0.7475071627919223 3.395862982446485 0.28429921783855555 2.5033497078900044 -0.6340978029315015
Ni 1.6683563772846512 8.599705468195356 5.09679494146773 -0.14446874397075765 -0.935644494996595 0.5046568998281438
Ni 2.6525301822899197 3.1253653946168507 4.642267119053014 -0.3839343504343904 -0.9109333654031603 -0.08189426367264606
Ni 1.547245239569553 0.3141011153884434 13.002015706665972 -0.6809798121950208 -0.21160384705635818 -0.9074330655593855
Ni 5.02157587077354 3.669467503299907 3.8308243479310016 -0.03717532349871662 -0.4787640912217819 -0.6766927547838927
Ni 1.4267914089006082 5.0109478638864475 8.6069636192402 -0.4570195004558387 0.944212182060948 -0.7669546736949436
Ni 7.092019003389343 1.9149113245120237 7.757053573365091 -1.729668514104505 0.49635635038224835 -1.11309920697507
Ni 9.383382108432556 0.9944500137549823 6.915895894834109 0.205443226771601 0.021206201763969933 -0.45968033511745354
Ni -0.05310763197543644 7.4285787267110575 13.046851453490174 0.5246791085863416 -1.0316433163914234 -0.3602202946469022
Ni 8.828309452570752 3.4848290282509913 1.5636871735690956 -1.4336782330812663 0.06540706465090025 0.707888977881039
Ni 0.33342501676076597 8.655419183741104 10.533338008323302 0.2805994003894651 0.10639970501317805 1.9572687365891195
Ni 4.180519102760909 1.5278222792480218 3.041047713148589 0.042896799363526125 -1.5262340902328166 0.2349497208711502
Ni 4.485157774038467 6.706633401737906 0.18834624225996108 -0.2855662574764372 1.5069852693055337 -0.687778580284409
Ni 2.008619238894551 7.401934646727565 9.336769781014597 -1.5616422945287816 -2.010621441178647 1.1191464416104147
Ni 8.974574157108348 5.782394889926915 1.4640412769414632 0.9382140554959841 0.7616769702357721 -0.28210786661419157
Ni 0.11689881791228728 2.268848024251048 -0.17563151694747708 -0.06495763581830749 -1.2101519235557094 -1.1891712075389842
Ni 2.224049308809727 5.017289488204965 6.121321844399352 0.4372451460423889 0.25886689380837996 0.5455783206328539
Ni 7.203205730492105 1.4926146919731007 11.650301723420032 0.009081907696610166 1.0400819340770797 0.0682591893877147
Ni 1.7721275699653218 4.165114047482059 11.111927443884227 -0.09182206430931929 0.5295364366786428 -0.9077889062369074
P 1.0884726948920054 2.0261443408433877 11.50231043065557 1.615346726030773 0.525325741031405 -1.379354422827721
P 8.622239064678963 6.126120185836268 7.346779179278762 1.0836886150234366 -1.745616295683013 0.4942408467011424
P 1.2183139811215 9.246791852672844 8.614483767318932 0.27320259370476174 0.0750949813626255 -1.0935192279606134
P 6.810200921812726 8.625470052835405 7.302213761549596 0.42341158259340633 0.906380198814839 0.31915386362389553
P 3.241245849499887 0.7104174554820311 4.956676520703948 1.3745055793758523 1.4928192622177967 0.9061007199012072
P 7.0297044438449054 2.714742905531432 9.765593194786447 0.3180621732216135 -0.8525888640259961 1.042672063401759
P 1.5826009523760016 6.452903624077174 4.711330648127668 0.633218999870974 1.1861725299219765 0.04327500863855128
P 0.4285308658470831 6.482621308839861 10.817951033522927 0.03105275554074652 -2.260868711638816 -0.33171421678740937
