# total energy = -340893.11676185235 ev
CRYSTAL
PRIMVEC
9.04874429452443 0.00000000000000 0.00000000000000
0.00000000000000 9.04874429452443 0.00000000000000
0.00000000000000 0.00000000000000 13.24375193613062
PRIMCOORD
 96 1
Ni 6.237986938551769 1.9215188842886106 11.510607719392667 1.1303934752791434 0.033977642497025354 -0.27464446835761086
Ni 4.56998671470014 0.576576013581683 6.032528872081984 0.38650571070599243 -1.2644752195886224 0.20617419140035462
Ni 2.704407165772968 1.4170333092205225 4.84578247797218 -0.19594248637001738 0.6974754958571988 -0.3444128953010004
Ni 3.640608316721715 4.354780436327269 5.226064088125249 0.4096224992291139 -0.32692348026698537 -0.7998884483084869
Ni 4.898428975394759 4.663921726085953 2.4348903259573023 0.33185999833665425 0.08871642880080205 -0.1297455788279701
Ni 7.076497849357828 6.029956314164925 2.6640597211849517 0.485634335979054 0.5331946022565204 -0.943508214015388
Ni 5.027997940622911 4.604905817767075 11.363999969226697 -0.6288936330227427 -0.004864270070836784 0.6271272851509393
Ni 5.4960623211213155 7.884849296436992 12.397952891777278 1.6596486332719418 0.25836809979509046 0.2647860875062924
Ni 1.9240072888865394 6.491568940196698 0.41483695371150764 -0.27009747241687676 0.1331000971224998 -0.5143288757002691
Ni 2.769512878798777 1.5398066677103315 0.5018876806678504 0.3270808317804561 0.02050017683588082 -0.039842585918234606
Ni 0.5308608540573343 9.001563841291487 4.760015767788368 -0.048307428856136155 0.02346825832526926 -0.39444373460614646
Ni 8.533237047217302 2.483129180181151 1.317459120578604 0.2843033316036136 -0.06291669412887874 0.8727159737931744
Ni 6.821323268770225 0.8211074614853455 4.821493839347597 -0.4927539777429707 -0.4627224643778869 -0.29627361659161233
Ni 0.5123570774671361 7.595823364573564 2.423249116810992 0.797803283644684 -0.19426458444696224 0.19407355148207867
Ni 7.473086201059726 3.907663898171429 3.594764665032673 1.3181323427924458 -0.9832554120063389 0.460245206481988
Ni 7.808278824772726 3.9736020956445453 12.711961500929512 -0.1798576649930128 -0.8254724674251783 -1.658095944072841
Ni 8.019956092988535 8.906615370578518 6.850185142608602 0.3786764444695607 0.4077985586464977 0.11889449504607912
Ni 7.036728619510931 0.4302306769914946 0.38370836950301773 -0.4410971727986274 0.6645571478626232 -0.3974835498737348
Ni 1.913212137303525 6.374849191437851 9.184514966828806 0.1373277620506022 -0.02439616945617734 -1.221167815050239
Ni -0.0487826837377954 5.001457974493002 1.322426881030469 0.4401278669068227 -0.16772720027806598 0.802429983783418
Ni 6.552647962145858 1.8903912049545197 7.087605182608583 0.076445581853249 0.4181166527430541 -0.16299585624066767
Ni 3.2947924675615567 4.324756703760259 0.5736252181657391 0.6405777542288904 0.09200409841313832 -0.5888420164174956
Ni 5.934329187652521 5.365335116662127 4.749685721646567 -0.37105749447172226 0.6182148131526579 0.6344695844486234
Ni 5.420831063567934 2.757659024168644 9.334791982683722 -0.4227734347887751 0.3165498503421451 -0.21244999710673734
P 9.329074081354882 5.587337001773342 12.386364165346125 0.7167266307773269 0.018736142956922573 1.0317381900980747
P 4.1600967093293155 6.107811707476121 12.64677615895657 -1.7072873181958272 0.4203967070264824 0.12311830331943958
P 2.297168442391936 8.535879280463103 1.4683614046433995 0.5889595158319663 -0.06775268206494138 0.16935290880694706
P 6.254392311410114 7.917768627081592 5.809927960118467 -1.6479989648481552 0.9298985936517533 -0.1859617210082217
P 4.726701911905698 0.9849648323241578 12.702505563457384 0.1623160565648237 0.6754010325556626 0.7484437593749498
P 4.4120499370556 6.077055026645722 8.106010553231307 -2.009048183154256 0.308283753678611 -0.025795106686232992
P 4.749233284446944 1.0935678577217613 3.6495276636750904 -0.4949712971092637 -0.46528559711937284 1.4650212661689221
P 0.16014829067629946 5.784246719793443 3.6096371806586935 -0.8729196051635483 -1.367718895471322 -0.4072038624852923
Ni 1.4498259574492276 1.2676475946488648 2.595324556943764 -0.2773657239435159 -1.2167300909938594 0.004228436259050782
Ni 1.7014172354158137 6.652862801862445 4.796635129851488 1.2579111932178595 -0.8566350090709118 -0.7209668941109196
Ni 6.111340717633183 5.593535391408183 9.360882226237207 0.04609962257153996 0.7710398995079107 -0.9532879191099712
Ni 8.477442491759742 2.3644368052319447 10.38226644338225 0.41012592122809366 -0.2872325894352666 0.35789190362404166
Ni 2.422203986879862 5.299134505613229 6.949817243212072 -0.7859376425553496 -0.12674947231412365 1.2822669963544044
Ni 0.6697681230857139 8.589628819778364 8.94444545458783 0.37749039458125955 0.7814394975746799 -0.3359837906970407
Ni 1.7066564581874528 1.1930135541989868 11.331419966481816 -1.028232233827345 -0.6003852411704047 -0.12110667220604948
Ni 3.9378414593863105 6.920045065728053 1.7642137089747447 0.2139641197584186 -0.09604201592793782 -0.8544747681947994
Ni 5.703559069612603 7.972640210651918 8.107467401014095 -0.690277949667495 -0.4177710964781773 -0.4440824806791965
Ni 5.329058701996321 2.7929129307632996 4.932794295329354 -0.08504360793490515 0.0029336287070272056 -0.11409167434079706
Ni 0.6653107117950241 7.180974647494867 6.705893870904704 -0.3600806837452444 0.02544363688408521 1.7896060710004018
Ni 5.4032041102706065 4.361757017945462 7.234054579754686 0.7107094780489694 -0.028245367998938453 -0.6294968138243804
Ni 8.097024245572387 6.9926521875236185 9.038556011607096 0.0656402637076289 0.8734083718745087 1.775912375563393
Ni 4.409842043521438 0.5266694758400231 10.505155625795163 0.04667837789314542 -0.68701676241772 -0.3693279133751252
Ni 7.828756132427681 7.238922804022633 4.643034510328138 1.2992617311401882 -0.00341956720451024 -0.24576738031194448
Ni 7.297504372629873 6.608053421611741 7.026035718735032 -0.06717469807428432 -2.9638623091007665 -1.102001554400012
Ni 2.128698926740163 5.232038068909078 2.6574776648048304 -0.10441147093855566 0.06454523087123722 -0.21532911842674532
Ni 2.472198297438249 5.390635404865067 11.211577496171167 -0.41439138137266696 -0.2939524246576034 2.145308423172292
Ni 0.8878582361689851 3.290059974453496 3.7884675081818435 0.5448820658967777 0.7902825497876067 -0.06998080006451174
Ni 3.6008119406428394 2.8095807171974263 2.908102536913021 -0.7216348667122217 -0.22020572979275624 -0.26983933365948365
Ni 1.151117869513859 3.113129883168765 8.360687452899324 -0.8555410046757846 1.3692451023078613 -0.34450776900765184
Ni 3.519753291958309 2.956396588475223 7.32392670508788 0.5838646178075622 -0.7450756142336652 -0.2244706757166973
Ni 4.206100523787024 6.752815228003248 5.870610647080757 0.044737452116690696 1.2632346623133017 0.8495827302098206
Ni 0.6750263482197372 7.247184307287756 11.1038920134144 0.17298330647068272 0.5645787729947568 0.53438939389557
P 0.0921288820849159 5.392472299895539 8.12032657110179 1.2742009315168186 -0.15542884252668715 -1.193187784897545
P 8.73769341772712 1.3364813901995705 8.311871288808756 -0.9195871844234162 1.609054208153842 -0.1920020136650306
P 1.8325516333546632 3.3191788326212586 10.470337868660941 0.20181797131418794 -0.3191736611182374 -0.5279824619279617
P 3.7785835651188697 5.931524077014855 3.849071471071399 0.5056789133347549 1.6433606947451955 -0.41431887626351876
P 6.821133245146383 3.9794656817516643 10.508850227967287 2.083261790353193 -0.8985110804794074 0.5393955888609098
P 6.387662212931186 7.87629823336411 10.282289585632666 -0.06452466204594694 -0.9420010333422422 0.7319966695625201
P 2.3908229427139824 8.441518978109643 6.019881442603711 0.31330691792481524 -0.038790747614952555 -0.7490934771438067
P 6.758986471406111 4.033016148699091 1.515363295563477 1.7346214872344063 0.9579580708921309 0.5080181029908928
Ni 5.553223236921737 3.214837765644108 0.10205625911905278 -1.873910229666121 -1.0644876166149537 -0.06241070102673768
Ni 1.4316741770003363 1.0865550811275986 6.948122413462283 -0.0453714861562638 0.10791871276086575 0.13016826818768548
Ni 6.819984054659339 0.6196281277490483 9.30104650171261 0.6128113827488995 1.5459721920916925 -0.43738655671625964
Ni 2.713256837397602 1.4893146762323588 8.969581960524508 0.056648087511347596 -0.3317101030223513 1.6644370557995205
Ni 6.3260583638304615 2.0506625585491167 2.389000525673899 0.014504107153445987 0.023433034211959643 0.40426200624814895
Ni 4.314821182856529 7.101255212921221 10.328484328588615 -0.7753115303000712 -0.7843373879477654 -0.22496972684030286
Ni 8.18667015230577 7.1783052680170885 0.39578572810976503 0.1081493407144331 0.32874562107738864 -0.25724221372076345
Ni 7.680492462111089 3.695516095268012 8.384725441315316 0.07412387569860783 0.21015091665991548 -0.6064551015135684
Ni 3.2620722092847916 8.381010027032008 12.480037668030555 -1.8975134709073578 -0.34928513579163717 0.07580460583514041
Ni 9.099959883465585 4.764353735658358 10.290156563659718 0.22996538028268135 -0.320834336650112 0.020517660337377567
Ni 8.78014107579579 2.203957330525521 5.580943159268264 -0.5436574494610572 0.6510038346582208 0.9010783269859514
Ni 3.5544461764254325 2.585515718455928 11.597407796140418 1.1104435145197777 1.257392344599912 0.12510036674647487
Ni 1.2122511839269745 3.3733446141601733 12.730052654793655 -0.5888173338271473 0.04400571615698873 -0.6190671338506241
Ni 3.2907476789969237 8.316248166277914 8.135623472821058 -0.3604061854054632 -0.7238105342073019 -0.6663530634207815
Ni 5.407221752603262 7.706263285001639 3.6458457297445555 0.19851307531067103 0.21345221311900658 0.46086407101290955
Ni 3.0012512124458883 8.31190476916153 3.706144749961565 0.32623108218565106 0.4518125023336025 -0.5866897459611832
Ni 3.643105770063636 4.359929171658983 9.445549514025933 -0.49124911106267005 0.2470616736433358 -1.3385718415937204
Ni 7.453323744180175 6.26772111131102 11.373402519109272 -0.5755800092012668 -0.07467434888543913 0.03371333309204517
Ni 0.720408513965163 -0.09243472963186132 13.198470841182163 0.49559530384650774 -0.7843659271928556 0.6566152673077272
Ni 4.791083725412109 0.3214285792260567 1.678632498042779 -0.6515465945355683 -0.922701818792998 -1.1561021928991575
Ni 6.212270408125174 5.731990223236939 0.10435464009313969 -0.7570806091143413 -0.2213822665993607 1.3675674574951222
Ni 8.094372963582593 9.04208411688976 11.258195720345963 -0.1077636752402402 -0.6534839207675972 -0.033272131789568504
Ni 0.045133325285632964 4.866251641757542 5.787545891853096 -0.1488740721273049 -0.44038420589200283 0.08762628106041684
Ni 7.5763957112217355 8.79311697468099 2.6734369345843465 -0.048042862340839834 0.03674312105730446 0.14958498215140045
P 8.414716598403952 1.585502824872296 3.454553471994979 0.36105256074021047 0.26100708007983436 0.2566220636382613
P 1.7014534303917836 3.268008185343851 1.6717056845165443 0.16843116832362606 -0.08884575528981473 -0.14575943775772315
P 4.750681083485738 1.0385695917355395 8.234488239933967 0.09876301440352668 0.12382587090942546 -0.5137820020578635
P 8.623851169557879 1.5796573362531614 12.591801419704726 -0.06960747588549303 1.3364226564612016 -0.923747486448693
P 6.210650682950523 7.606844734756391 1.4143793126075317 -0.12998623408386645 -0.02865288785000227 -0.3039956678262184
P 1.9693053013128352 3.219660746192093 5.897521611714358 -2.1004784113417956 -0.1857658029473317 0.10543656976896035
P 7.080578832898432 3.82122124681138 5.800776060444484 0.040601318461130076 -0.5399198367954959 1.2770682257622845
P 2.3442128624087784 8.36462275166165 10.23461265841075 1.2671926185197853 0.41541622309275555 0.6105364706717937
