# total energy = -340871.67125362525 ev
CRYSTAL
PRIMVEC
9.25045764990211 0.00000000000000 0.00000000000000
0.00000000000000 9.25045764990211 0.00000000000000
0.00000000000000 0.00000000000000 13.53897982122170
PRIMCOORD
 96 1
Ni 9.104124363487601 6.0891783027067765 3.7482122389100225 -0.9437354995348456 0.8657241158563737 0.8763864806662262
Ni 2.1949392691425405 1.096632468181251 13.540197835678525 -1.251867558126941 -1.13971603823165 0.08627465212852883
Ni 7.1739424341101845 0.8787684718517639 8.188821210338805 0.12761284875568346 -0.06033196412083802 0.25548100805528257
Ni 0.419836631980364 2.7075441126401305 1.1723391361653095 -0.7461937869985084 1.2448093657285786 0.16366794260702783
Ni 2.587833944096039 1.196454153426541 4.3887546077172646 0.6125151916647192 1.0865618228061737 -0.7466522146921658
Ni 0.7990628311560436 2.644021222029492 6.095234577132696 -0.33318180247187135 -0.9124104641693189 1.0711933107699034
Ni 0.832713219851882 4.812143415319368 10.70904818690494 0.8357604796147478 0.1186695235194666 -0.4463332243865861
Ni 5.430268225788789 3.469236021154858 0.40931978702110433 -0.15881395694883615 -1.3185329206649743 1.6320100456190667
Ni 7.364825621491944 6.5402306030089115 5.909250431962587 0.31035914815040094 -0.11515431127735651 -0.06648692797864034
Ni 0.7006851423028202 9.397817133838146 4.049482058874542 -1.3610743935716108 -1.31775619039995 0.1163159356856255
Ni 1.4841711283300951 1.7155343170679274 11.418612843216373 0.12534539287774543 4.659583519725549 1.6635533676429868
Ni 5.134910373115556 2.2743266941054796 10.290951565951788 0.39783321990366965 0.5493465294260345 -0.4130626352589144
Ni 0.16298935829375505 5.4543286653516665 7.38441624006413 -0.8643220933025243 -0.980210197422112 0.42946884453107964
Ni 2.6993759588015998 2.858326567417096 1.4628599246911276 1.0978260828660835 0.31770967497820124 -0.027310514889494902
Ni 6.773314376813524 2.453461800654923 6.200162514834236 0.5716865876841315 -0.6102711328255489 0.8381467204587371
Ni 2.4904728805053913 8.309454574526256 8.365383764699692 2.1015323065276066 2.365091206495017 2.4345400453154586
Ni 0.24092538649874926 0.2646398589568 8.199232600084295 0.8128267536367098 0.9154461656718493 0.12014122296898663
Ni -0.27929258339647556 6.1093350492686795 1.118166607842312 -0.016804730262164606 -0.18837161600129493 -0.8193270166490728
Ni 7.059162759332725 3.239667421142592 9.065362172061104 0.06349544945048419 0.18716782550118088 0.39752905839968955
Ni 4.736585679698617 3.4610031141148885 7.698818934326003 0.1459432716337551 -0.1821541743366734 0.5188442470721193
Ni 2.8861426926633738 1.7143687594420438 7.183552734249313 -0.2634110615356367 -0.17667206817617961 -0.163458397699383
Ni 6.308636152837372 0.3669378916342245 4.3322296880906 1.788937069957835 -0.22892871148805088 -1.2507254741026974
Ni 6.472924275342826 5.275970597219478 7.785129401568395 0.8038520609419253 -0.2644976097315961 -0.13436790809132987
Ni 8.378721999150176 1.5146513852926777 13.134759540560758 -0.11950281805403934 1.7048136598443542 -1.855394687360437
P 5.635415618401596 4.2077555340121435 5.6967146990657085 0.5182626635370364 -0.3290019600625688 0.3735679195984018
P 0.40112758199346754 0.12133639894591967 12.301246156148249 0.47092222657985994 -2.4424927245036323 0.7510279751623583
P 4.040405510124409 8.576506027713753 6.853011692097631 -0.9840347133745246 0.45285148512107815 -1.1792680894926595
P 0.7490446832281586 3.5767910887433096 12.651255710835121 -0.5442822275292497 0.47192264281991625 -0.13930288349910203
P 8.454168729282749 4.239734365065147 2.443975456644262 0.3301353023360637 0.19769752138791113 0.2414142455495713
P 6.8417677611907965 7.416202661604291 4.063819342718641 -0.19145925378768316 0.5342107022258606 -0.746426986055237
P 2.8868272265071466 3.396536676854725 3.559587088166979 -1.0191852931337286 0.011148817527967895 1.3021683632640217
P 0.2828086822345568 7.047294422554882 5.901600303735559 0.4121928310594514 0.01658232983871338 -0.7931596142250856
Ni 4.020193260818417 8.776482414668871 10.720407748528629 -0.23980756318408378 -0.02911825752219501 -0.6317406155532346
Ni 6.708117153422846 3.0620123877688736 3.7429996061942665 0.0809745800718541 -0.1984606248061808 -0.5617826983068582
Ni 1.559849119896374 5.032720570789106 2.5855657319542407 -1.419861381802832 -2.1136889964947985 -0.8789251879276798
Ni 6.842646554638883 5.6864688925067535 2.1465917538117547 -0.5023344223425543 -0.020891755847344665 -1.2059823655590522
Ni 8.214554132590251 8.15443541028378 11.04285186536336 -0.33908685510239667 -0.09209614390631235 -0.8297356135769065
Ni 3.1176631391761265 3.7949631253024947 10.885637567592136 -0.4900484058863495 -0.07434987566648485 0.2787646611735715
Ni 2.421732731950322 6.778420629269775 6.802483843969855 -0.19428129661751056 -2.62552724456273 0.2580433694658201
Ni 4.692155733054828 3.8865519035078155 2.637664307739754 0.44682019132533374 1.868121390898486 -0.2815327108370119
Ni 5.875798003054001 4.501772070369876 11.933350842178479 -0.9032763630785348 0.04529486728205748 -1.7974389367812595
Ni 1.3645442139021375 4.9605115007284315 5.542601154597628 -0.4067546907630156 0.5813225681119989 -1.9160323556471517
Ni 1.8521635721020235 5.5291926166712955 13.487843022224464 0.7036127191031882 -1.1615231068044125 0.6781009479853289
Ni 5.632353717019315 5.624934850225995 4.069654531213936 0.660549826475443 -0.4814233832214999 1.4795081469311875
Ni 4.6388083455272975 6.011021188571159 6.480094304833478 -0.014969219715322606 0.5434985552856898 -0.6007770772921847
Ni 4.939540713919881 7.572341131185909 8.497483070770336 0.05322183543861801 -0.4128062962737343 -0.23213050625480022
Ni 1.1271497269732267 9.237432704333665 10.274136084584086 1.5617852478645489 -3.72416579602778 -1.1193487874292078
Ni 0.9974675654076888 8.20643223103846 0.7658675649617407 0.04387073324102122 0.4399396621554165 1.3176775146432145
Ni 4.063485401208368 6.024508355384951 11.619409745738286 -0.8767698321475739 -1.7495225727159545 -0.778588144168814
Ni 7.858605784285784 8.503954690731193 13.501814913003304 0.26666427836561174 -1.511282868239623 -0.11963780097000684
Ni 5.892125060273716 8.974756717471905 1.3017456341018687 -0.18394957567419934 0.24724190797494194 -0.7952229245120176
Ni 0.829867779171551 7.119864260452139 12.25130016178768 -0.8248996256408438 0.5144396902465204 -1.5705478245485274
Ni 8.616060983334998 1.4567157709204 10.183180962707121 -1.199750011496095 0.8870285337611047 0.20151972334747875
Ni 3.8546378256562495 2.0137875628911726 12.275778722022698 1.114582733499132 0.2614616511187497 0.4736092864937198
Ni 4.622018765440169 1.6402078428808828 5.288270930355487 0.24815336404561775 0.7404581700663119 1.1733604657589727
Ni 4.868201186849945 1.680142067253408 2.3128640994184146 0.5150865798019001 -1.0068221435826854 0.3400646456346337
P 6.947343230906717 6.279201197555146 13.359343994153772 -0.7511763278147643 -0.12786018887979916 1.7039988772525425
P 2.21097031172711 4.163334837825703 7.583886627002298 0.09011742291338673 -0.012752928790294164 0.1221122306524284
P 3.1468945843966916 1.4657627182070179 10.025952789249875 0.14742525549592028 -0.5052114867800331 -0.7329940004787827
P 8.5017530818823 5.766670357716341 9.331741116999382 -1.756122851641292 -0.9478598061158642 1.3423009696188497
P 3.607511857596948 4.251269685378452 13.454983547631901 -0.7821578637979433 -0.029454557815691212 -1.3817758877850201
P 4.337779962499568 -0.15343826108165592 3.745341821994851 0.3637421917572316 1.4568726689198586 -0.9003360495032882
P 2.273780917121931 6.744591706747115 10.59215293253193 -0.5490822200210543 0.8013516631175748 -0.19074140178505214
P 8.288604043663232 1.5045221344963113 4.780640982819801 -0.1722698253434259 0.9869778551632485 -0.18008597895373502
Ni 3.3588873154472254 3.88346225075349 5.734475065961388 0.8972764367413579 -0.8238984380698391 -0.7854398769833247
Ni 1.5945753367818174 -0.4132290302964875 6.2440957119184235 0.4479992992350994 1.4606514192360005 -0.07731178650828621
Ni 8.20854133531387 5.70407251284053 11.808021020795307 -0.14617852757301278 0.06913773533792608 -1.1801193817493612
Ni 8.223175558838848 4.286698937022365 5.129918826330424 -0.39479494729797815 0.27927605359235125 0.7982413996233672
Ni 6.11459855949985 0.439816694806914 11.872804748742515 0.7824548262130718 1.7068623148432667 -0.2349389222378728
Ni 7.521981641381872 3.944709528856452 -0.24871519663173589 3.25695135731681 -1.1418788502109238 1.1628338551960362
Ni 8.404984047561944 1.1646325801484576 2.6037623066040423 -1.2768725648117107 -0.3518369556792134 -0.989554100530857
Ni 0.6158371723671912 7.258519365645508 8.810951468840033 -0.052154570516368244 -0.3914270592670097 1.3161299676504365
Ni 8.016030067438813 7.951360120116988 2.380477542268463 0.0919724738442545 0.6146026703213673 0.1308472965325811
Ni 3.2243486637738403 9.133133797731809 1.692914173714178 1.4530262985905749 -1.568225347062938 0.3945383512024818
Ni 8.624830416901167 9.182216724421782 6.175304685847938 -2.098114024874677 -0.5170059083117999 -0.7364657610774672
Ni 7.516625626577218 7.808875325581431 8.090771912721447 0.8433804580538509 -1.3696294822304735 1.246221158474441
Ni 3.06875597117577 7.819883369825883 4.770716167130831 0.3315342395661193 -0.1711025445082021 -0.06992937800128601
Ni 6.170378817309979 8.661952502239815 6.482300538911043 -1.0062073928168218 0.29513976009748527 -0.6621238558307823
Ni 0.39978811576943657 2.9385002812546386 3.785850499768704 1.2362630188204644 0.2714642708574163 -0.8936213564872737
Ni 4.618226077927374 6.11901102765498 0.6020419653237011 0.4092131796058372 -0.7805750926918557 -0.9720279187216355
Ni 4.69827953581939 7.198789162547665 2.557106699922257 -0.26245718226279957 1.157441480535871 0.9496490368058033
Ni 3.034954800025155 7.672181317345896 12.811516184211133 -0.7962151132219577 0.08696473621701797 0.4717925449999552
Ni 4.9068495976510595 0.9728058461171744 8.31760422745009 -1.2302890606252166 -0.7050635926171018 -0.43151981352283747
Ni 3.620555002458023 5.602881759907695 9.178967963801066 -3.3585788377523254 2.1916049922459866 -2.6402339546452853
Ni 5.570403404157884 7.551888369988862 12.178759000308204 1.3552493022494012 -0.7909194120406572 1.0389557908924365
Ni 1.5100169061611894 2.59282919106411 9.155274767394916 -0.7016219139254045 0.6469301788094795 -1.042433979249024
Ni 3.3640120688181727 5.66336125005075 3.760790085766479 -0.2082030489049253 -0.20772970881293257 1.1811095135767724
Ni 6.3317437952933755 6.091435414299757 9.994122890560178 0.8084869886107754 -0.8736467131375599 0.7724354943038568
P 4.966163530168231 4.378972249071459 9.764095467863438 3.1471156300388894 -2.241766443591726 1.0975723149840646
P 4.264081568805821 0.03466331377547498 13.109956289272814 1.104381367486098 0.949524595412797 0.7503404621770303
P 1.4328125891324444 0.8803965523450611 2.1338510989059687 -1.4150781014815759 0.7904123904972516 0.12291672883159475
P 6.960099611589995 2.4474582538358893 11.427169516263533 0.8969542775152488 0.6722365187847519 0.17306249644805033
P 2.3522062945206494 6.860444434576974 1.9912858253914811 0.9343558580921585 0.41404505377684175 -0.8030943568402943
P 6.943652298424753 1.8615805376825727 1.0288636176477512 -1.778201942928518 -0.3122211410598042 1.7838025769447472
P 8.740479634669365 2.334473167783997 7.9188003603425114 0.17580637774177463 0.16024708985093694 0.3520403299392711
P 6.339967451875997 8.177700310514703 9.979297182568088 -0.8666322294929398 2.4983604822055296 0.6221668558218705
