# total energy = -381169.04896331124 ev
CRYSTAL
PRIMVEC
9.26289496640410 0.00000000000000 0.00000000000000
0.00000000000000 9.26289496640410 0.00000000000000
0.00000000000000 0.00000000000000 13.55718309110622
PRIMCOORD
 96 1
Ni 9.180686935111892 6.666468573038 13.55745490338009 -0.8896860259886097 -0.3410336944161223 -1.9877831031278925
Ni 5.1815523806365205 2.6360995361863417 0.26625451017807367 0.13699608974279634 0.2995222054358971 0.15449193253471458
Ni 4.324929101966108 0.991852284664307 10.029482141108462 0.8992546435136511 -2.911135668131012 -2.188422994973579
Ni 6.000197789276453 5.740225374575128 5.281010864509267 -1.3076900644131995 1.2015631534454339 0.9120697930004484
Ni 7.945859648308683 5.507532186029843 7.065746593879662 -1.7916434131454047 -0.49663840039904145 -2.0102450316758347
Ni 8.62161563668272 2.9838193564483326 10.226197318681702 0.5038416030157 0.12300826010413655 1.1451230681798343
Ni 8.943158515309067 3.666531779064538 12.980867470261252 1.2574599646130538 0.44703642110119785 -0.1019252141815922
Ni 7.7939666939770245 5.298051812678797 11.026450322752728 1.2154417111997389 -0.8609572905953495 -0.8642261911546083
Ni 0.12018328543523397 1.3036969120901887 4.055563185314074 0.3371770396741935 0.8725447383226329 0.8516146730381849
Ni 0.9899811798481711 7.427878552673463 11.170929255822825 -1.5800346809930401 -0.523866125766743 -2.3653282622064875
Ni 2.0360028752291224 0.500574263108079 10.815446203152899 -1.7250168742651064 0.37395949860986566 -0.15694707894342647
Ni 6.827328009854903 6.247285516852803 3.067610579499238 1.041140714358897 0.036857535147981686 0.5554086764597144
Ni 2.5272790442063244 4.739165772152213 13.154616225650694 -1.0711148921234843 0.5741551038292821 -1.0638839215926839
Ni 8.516129786949282 2.3768496273051096 7.918750859423024 1.6243047065550094 0.38325275098633355 1.7407949630349697
Ni 4.816696204385167 5.002611772527057 0.052622507230037245 -0.7728250164327917 -0.7643588879433095 -1.4080276223926975
Ni 4.483778490539934 7.9283990909897915 5.923513059368813 0.8782047648218876 -0.7090680857908046 -0.1973537648952472
Ni 2.644639925495635 6.766906144925924 7.385655497805186 -0.27638844763191106 0.3988665462641905 -0.5313266958098463
Ni 8.925429334031424 6.094095757203031 4.776249772802707 0.38399425713804836 1.9067833262450582 -0.21632490668111132
Ni 6.183204808347717 9.005099495039266 12.913555863935036 -0.6745173443991287 0.13867167767300634 -1.2139746397359092
Ni 1.0129624226641758 4.9732761836522945 11.041688711530078 -0.7962624215201254 -0.5838283652529881 0.037410065217342026
Ni 8.707528989007768 8.83149431452433 12.984066874238941 0.4066878420808222 0.812688942507265 -1.614567424662587
Ni 7.549685623624878 2.465699317386172 2.390023316758121 0.5998525085953863 0.19808241553115563 0.43856257930223175
Ni 5.563424495240554 8.120103968587548 10.593366439846863 -0.8395086338032702 -0.2464212118458595 1.6355108596834735
Ni 8.686668949176392 7.444088619149887 8.097827632090889 0.8380531323036663 0.19638780143755208 1.2890076575123477
P 1.8268744918929933 6.495067961563858 0.9037000905864869 2.0531788549248833 0.4168745528058369 -1.6890461125974525
Ni 6.627406944277383 1.0078585674478846 4.166665128364458 -1.0924020836370347 0.2322976279602838 0.4765760824315277
P 8.76114262601665 1.1756003353459208 11.476304677290344 0.5081366308466281 -0.02782113597732628 0.5666901629108047
Ni 0.38452686034811545 3.85076150029288 4.118672216120087 0.07831734495466512 0.2570979748334153 -0.7398711872145903
P 5.868201533682715 0.27127129418014867 6.397445383505754 0.7534319566181604 1.3801620063306812 0.14237612310778705
P 1.5127882438458002 6.245951659954171 9.16350333835737 -0.21483212418566872 0.003394627503845766 0.2009458531218797
P 8.122855048440975 4.628677959048907 2.523235790482348 -0.6026172158247171 -1.0624057943852607 0.3449697962457349
Ni 5.509783069546284 3.850465087648739 7.255804528723414 -1.0985161669545727 1.2308770719182027 -0.307254026862516
Ni 2.1148486385704492 8.13481344605301 4.029520555657807 0.338197767629224 0.4858958171705567 -0.0910713021862238
Ni 7.441708055101635 7.989274837780111 1.0290798601893059 -0.6211834088626785 -1.1068897357302483 1.8839940962646844
Ni 7.836131392605985 8.237029493805776 10.544966886506312 0.13247377639241056 -1.2691605408794335 1.4650577758338124
Ni 6.534972513781248 6.441056020064412 9.121869403619321 -0.0301901504301351 -0.10823958643539425 -0.9337539628421017
Ni 4.376625319683207 2.473804350624384 2.5989794102448434 -0.5855813433883528 -1.5078170211782096 0.8398960990496762
Ni 5.807038637143384 4.083501003313812 2.047202641730062 0.24143584281612618 1.3860086949194454 1.1431877988303343
Ni 3.035441471004396 4.216460600001008 1.8454169553629967 0.05405512997319077 1.2578867677378271 0.9986300946901963
Ni 4.1130125871960335 1.4891308096853504 12.034182914826852 -0.6323682218349045 -0.12189291555277072 1.5212808599925993
Ni 2.138283763247794 8.153431865263075 12.832335094282532 0.09663054144155615 0.6191938892364756 2.971105106706109
Ni 3.039674614078525 3.4625072509447 6.628730611991372 0.3126132342919003 -0.2816576664506504 0.4595242691555635
Ni 6.769388600820599 3.494973698373195 12.318409294134959 -1.1693433741797796 0.40830583730021935 -1.3859796414537227
Ni 7.501361099734876 7.807861036671102 6.021246792168469 -1.9438990001504328 -1.9820379731139994 -1.0605188617751928
Ni 7.54709201298865 1.794954555277132 13.57453660828819 1.2175482160197806 -0.8246270887057475 -0.07995899432314617
Ni 4.111956617151283 1.1214679762097939 4.909937433047071 -0.21076952408052085 0.4097240578039847 1.5433892618558644
Ni 1.9073505247770919 3.84261941547415 8.9630061207028 0.8607688287336273 -0.15329662667503277 0.04418852159175615
Ni 3.0702606937957544 6.100616835374118 11.034069053996646 0.5482900631370622 -0.358484285792402 -0.485582399695196
Ni 5.251098197267944 6.755077427845699 1.4417251649921832 -0.6896444298485542 0.6548640889445754 -0.22583901681913363
Ni 4.115244944922215 3.023677594190077 9.334378743677679 0.21397774660517344 1.382592984369677 -0.5154519335611187
Ni 8.212325352495705 8.644615405288983 3.6240382476584836 -1.0981017051249733 -1.2830789507327387 0.19625513251442975
Ni 4.3602948355701 6.9044323489119055 3.7108991941552674 -0.02075420182821587 0.3880535148090865 -0.8386892232257686
Ni 6.755420154965487 4.072487421004973 9.113626353243681 1.4482520171303834 -1.3462735811133524 -0.597280634103152
Ni 9.086650023758374 0.5554254229062462 1.8034578930059075 -0.5298907346942681 -0.1329003224068679 -0.3068570485344135
Ni 6.076403627505905 0.7419727204959603 1.49912639981947 0.3064829530244464 -0.4709289114480793 1.8378448514021317
Ni 0.6293405471702013 5.051103028529389 1.441847435207891 -1.2574620214955827 -2.1570272542711173 0.45720204878028997
P 7.158921129696634 6.765989118308115 12.245119415292237 -1.0770353713729772 2.232478333421581 1.6020314969791054
Ni 5.426630059969793 4.800226776845121 10.62933333534475 -1.2734105744050392 0.8003872423217764 1.8928122087769468
P 1.724278665439923 1.7166089882727922 8.94565301296741 0.14578386323775536 -0.016777476568654977 -0.6248749987816529
Ni 8.499864143102082 0.2660803677496412 6.749836481781493 0.753198757561432 2.1268684712995496 1.2158525734849126
P 0.38825054419012833 8.528894056437574 5.256296534014555 0.22637612026952628 -0.08699687500653404 0.13160165820010236
P 6.060934592639832 8.26180773827688 3.052914996376468 0.09740444349310322 0.835307194127413 -0.4088784219742378
P 5.2122403522001735 6.321314574726849 7.184819258188882 0.17640570188867039 -0.7472821349666807 1.0857778934522977
Ni -0.13957515638860185 4.763703181349954 8.713323856200711 -0.1402451928077133 0.7444037849776213 1.1779439713645972
Ni 2.4093531263141217 3.0678338152718556 4.176493986386249 1.8737233104662954 -0.49314967051949266 -0.05046818395288082
Ni 1.314339978593852 1.650740541007734 6.575382820072704 0.10845735887315515 0.5609566028611371 0.24638187396749178
Ni 3.9922522233942384 0.9383127508164605 7.709509468766316 -0.23583546591021318 0.19922038579034076 -1.068912999376159
Ni 6.712560739201821 1.509888957670303 10.757123310260237 -0.46413579978564584 -0.66325102745669 0.14966005836371
Ni 1.5972751103209226 2.58007754644382 11.658703124151607 -0.0856177352708203 1.2211426182392582 0.050833794822415686
Ni 3.3579199020388115 5.603588408521568 5.4062924474237155 0.048152134225194494 -0.526671713536338 0.37730913180838893
Ni 4.031980780604171 5.426639322864923 8.821781242691655 -0.109682746639824 -0.8247497303265409 -0.551946686053043
Ni 0.673124399867779 2.9065112336984837 1.7485780182328392 -0.18012531683210267 -1.8509772750190314 0.644884094913728
Ni 6.113381104862411 1.8053197349269139 8.413533960496212 0.16052271210982677 -0.040836831510703865 0.07066162818162024
Ni 2.591470907452964 2.5239351390646165 0.3956108406599378 1.891672695855865 -0.37192781289181753 0.15299812159800746
Ni 4.126721671987523 9.380904413333553 2.939074941525837 2.460417170192537 -1.1281046792449667 -0.29014770619953256
Ni 8.993020679790549 0.3796916290905764 9.333090274965178 0.6304928591890625 1.5209802980330451 -0.6131628525510472
Ni 1.7650076153238294 5.94614879619649 3.4365424296075204 1.5474842578608445 -1.5807155091101488 0.5844230614141935
Ni 4.0794901697227886 7.770114739018857 8.821306982461032 0.806696986589888 1.3353327658311325 0.3104869319775169
Ni 7.0525275162405165 5.1315327469378405 0.46373850804705286 2.1075232340037187 1.456567478974614 -0.46931554421437244
Ni 1.2237396013333357 5.242279921104769 6.487397358107214 -0.691475569520022 -0.6565522752802757 -0.22126142475078026
Ni 4.476599746814661 7.206421255920122 12.697630368152964 0.7145566197092017 -0.1289768189827456 0.5476521724427472
Ni 1.1250897682053833 1.0334889982708935 0.00856632541565542 -0.7564275489113746 -0.583530374396595 -1.1696035698197018
Ni 5.170696267544881 3.3050750853256696 5.0164560955874355 -0.1545361555090887 -0.524467763906484 -0.42724741139972877
Ni 7.5049087885694306 4.310071418178574 4.683749575751154 -0.6709021162440446 -2.3384756607900177 -0.24888535711563586
Ni 6.444677812060002 8.732455439800942 8.571651580354816 0.6750889006318825 0.6729219748875508 -1.4002528635432854
Ni 2.5525389592241576 8.926235205907682 6.151788773226893 -1.8626279718840826 0.22189288768719206 0.40461553293282576
Ni 0.33709805841712454 7.3409833334647 2.404163126173127 -0.3303757004816439 0.4092226926875339 -0.9437563254704521
Ni 1.9224490438379895 8.873436703670185 8.457852282242754 -0.3350602504415068 -0.2511810951283481 0.03444815437554068
P 4.291434473178251 4.648092987240099 3.6535794728051187 -0.5590699273613856 0.1284021774261982 -0.564763378201737
Ni 2.8816403602760845 7.948073480244606 1.6973190091658472 1.0691006899069329 1.26325471691796 0.06501599986006867
P 4.055267698959446 3.5840549608324923 11.780731578296614 -0.30538766307773857 0.9672631503431407 0.4345015218589807
Ni 2.144258330606247 0.9144922897017337 2.7176732221432722 -1.7580524645638367 1.6098257962125437 -0.574886582678668
P 9.223296252707064 3.501948658405622 6.220171170230067 -0.41843238421126 -0.0963495198660276 -0.19401981542600777
P 4.250307218803781 0.6376512166802857 0.3954153935727077 -0.8812438087585275 -1.0178652887707245 1.4833732863135487
P 3.367349529280526 8.261909630123304 11.148898386047096 2.011182970109072 -0.6576498792198286 -1.6198844660001264
Ni 7.111819307963711 2.4393278549528126 6.27395246564079 -0.9785176402110374 -0.56470141461555 -1.8966128134699596
