# total energy = -340858.54886199284 ev
CRYSTAL
PRIMVEC
9.39583421192170 0.00000000000000 0.00000000000000
0.00000000000000 9.39583421192170 0.00000000000000
0.00000000000000 0.00000000000000 13.75175311462429
PRIMCOORD
 96 1
Ni 8.504742471497638 2.005371635738486 13.274251013083493 -1.6717706133464563 1.8485576098339453 1.561481343470885
Ni 1.2907620873683903 6.648933720882681 13.549752837981508 0.3014497614759131 0.49260048288424196 1.3889986307857047
Ni 1.054945446406564 6.444179707023404 9.65621977652153 1.0020712591612613 2.982389421370676 2.086193105067375
Ni 1.011142068441625 5.3494522995907685 11.661046453889796 -0.7252590937283704 -1.3708540986661941 0.1331155237414675
Ni 0.0028394210255264928 0.6276041258142542 3.60631463160223 0.9284127531348462 0.9249155386148651 -0.9864433228160172
Ni 2.062141264581077 2.4415544360959194 10.23459067191998 -0.2826634820073454 -0.09302019838247849 0.54038777757085
Ni 1.646685673959949 0.8900899019145795 8.312562902239492 -0.15411655147316686 0.2840606194651882 -2.6726077429903006
Ni 4.719489819450216 7.699077896130926 3.239610265114281 0.1581351857142567 0.322586029233896 0.1545019598370436
Ni 2.367083056055142 1.5870221282548094 5.961082568073793 1.287088329002448 0.6986399484789452 -0.5482774647315718
Ni 2.0367819086979004 8.68669279631339 2.1540466145519157 0.9722521189172998 -0.4877292708348697 -0.36267132729055607
Ni 2.96480842984698 1.4340767429023265 2.24102666835604 2.1591494428204427 -0.13426429263393005 -1.0676202487066646
Ni 8.717558110902585 4.270340768215131 6.355454846851179 -0.5250328923813344 -0.7290039054827832 0.2019295571913877
Ni 5.930387318079442 2.144833999345004 12.915962495081859 3.8277941089434075 2.118463535065306 0.5526496256573386
Ni 8.915293436786785 -0.045500265579796806 7.12152349870441 -0.06839597207589511 2.615718228892108 -2.0677768073437166
Ni 4.363989045387276 3.3036034111124803 6.51320150336198 0.15753868978083835 0.49861069363406385 -0.5386353136561174
Ni 0.6174312563756787 5.0207672356762485 2.2401603724640697 0.909539570379427 -0.9302986573036494 0.04888052775078679
Ni 8.388497213629293 7.04742043535523 12.8837695491528 0.042185375118798316 -0.03629754887945361 -0.34585528417448175
Ni 4.167353032077487 0.8830157785190835 7.276534088363348 -0.3614374548834549 0.31072064525487775 2.214225300748664
Ni 0.5321800360219079 1.3724870512334777 11.748810120246961 1.6324247645589822 0.30465798400056565 -1.214766025288953
Ni 3.3648172694225567 5.765509223585932 6.986853010422243 0.41044242402724795 0.8732263377706898 -0.6620760333119824
Ni 4.788643157464363 0.3955336038559931 12.889393895366831 -1.7970514715348533 -0.9869392886158294 -0.930713633353881
Ni 7.03988497651184 0.49498756683777795 4.361066001439423 -0.5196482310306534 1.2027144934410576 -0.4680577605478713
Ni 6.567894652897354 8.05932356634837 9.596496097478987 0.9909540662021774 -0.03388893943796099 -0.5970744316296169
Ni 5.481397996021835 2.579870507958181 1.685098661976693 0.18771444203327026 -0.49160006664418565 0.3326264441890336
P 5.136119889317508 4.693096921830415 9.292912004013488 0.8726347269332777 0.8526477422883896 0.3213184753753821
P 4.8550717036274085 3.7571215251432966 13.578714556608519 -4.418131221849191 -0.5581582141803936 0.8688888867376005
P 0.15364725414999036 8.025855605749674 1.3896974003150688 0.8301061095424479 -1.7814585021926028 0.38464911711322786
P 3.8808834501870924 3.98792079076551 4.409898029744738 -1.3688021012331717 0.5356394642525871 -0.3622283262158665
P -0.017925372046656 3.305689286253668 10.594501850448115 0.8275105809011296 1.315896768593708 2.4421993616329294
P 2.4423342903153724 6.2808895084707075 1.8656180012789194 0.29474278176938273 0.025334364999730564 -2.9016765796006414
P 8.849823265688608 3.5027669037600155 3.7267523105876825 1.8005754255277118 -0.8351966366914778 0.08624482733185793
P 8.803097783359213 4.748428988075702 13.662407947690179 1.130692237466485 -0.6619904155767116 -0.40787877706512976
Ni 5.216660978102462 4.911080269918485 11.840795334806538 -0.5428403528764006 0.4471462072061847 -1.4847264579073334
Ni 0.25799644662978743 2.69441511987808 8.652547396085508 -1.2968996586659147 0.05373168519550101 -1.3889788332913626
Ni 8.815293575851381 6.635290969959239 6.816510298892179 0.28294681757571916 0.7617929269883461 -1.117470082349256
Ni 4.298453103451315 8.952754626822436 9.29002372465132 0.32269247290477326 0.4793325621307422 0.11202939249512964
Ni 6.756544207333227 0.9735869200662796 8.648381283303515 0.6166495255480671 -0.2800329863630338 1.541792606792706
Ni 6.690623036204525 3.5360281560113846 8.055652614016557 0.003727328252916161 -2.652388330619632 1.4320298988445659
Ni 1.26682150241458 4.9395966260153505 8.320648956953484 0.7507783210453973 -2.9631156607427296 -3.015307512254936
Ni 1.9909114472597127 9.068304592977052 9.92509378013759 0.4292366739156156 -1.6157280206295916 2.218750185202211
Ni 3.6298455581949782 6.298027509630736 9.161568580539853 0.5754589102423702 3.414690336033913 -0.4751635183547172
Ni 3.993295207795957 2.9685197842648585 8.941857338584827 0.9236613544927899 -2.3265477990041803 -0.33860811569376525
Ni 0.2951353595602923 2.2026559615921584 5.25215186175475 -1.396111330571086 1.0229866691576897 0.5072858528105586
Ni 6.851423338755353 8.564255683859269 6.345058356564134 -1.9192212948980947 -1.1619974753376698 1.7676815030131687
Ni 0.34643943178293396 8.269602330581602 11.481132206295193 -0.11067339268786747 -0.7166330426222561 -0.7833359432664445
Ni 1.9589092367602317 4.3655017746563365 5.83409881156192 -0.3812724873315111 -0.66460651304332 -0.7459004241278058
Ni 5.010018401615355 8.167244115319903 11.415481635184806 -0.7096514690981004 -1.3203812867276228 -0.0695002608836674
Ni 5.298630233650753 6.354552846790125 5.546315692082615 -0.2631794051408048 0.35894965546459473 -0.4539375190964053
Ni 2.2926116760143644 3.370915165668641 12.759508705325233 -0.20081215575749287 0.02137563746229867 0.3559715466728772
Ni 7.215577675904031 0.31732644022901657 12.060576105932936 0.005939505412886545 -1.3545731021179832 -0.540851604581146
Ni 3.1579116095843074 4.579895914168128 10.303597434924205 -1.1031382391076163 -0.9618671761385499 2.6086037293345137
Ni 1.0741223435379323 9.268163377338315 5.316840299466678 0.0841385796221325 -2.3296598622706006 2.4297644783036865
Ni 5.475647745632616 5.303403317307163 3.251024324220203 -3.2750321260779205 -0.6994560166223374 1.1580950549594702
Ni 2.406667704567859 9.085226489955785 12.401894808202595 0.7732459060202942 -0.08010374743112655 0.7141645264771055
Ni 6.550728464235418 5.513982748227414 7.3804971120670055 0.37578343919248186 2.743682290339623 0.020617419140035457
Ni 8.295412686495304 6.272668153747559 1.3388462072897482 0.6814567518314392 0.654625233460892 0.5789036742578612
P 6.347374429637569 6.730207684717241 1.838458403607222 -2.478266539669132 0.3445188247512454 0.05969150232336171
P 4.627260313207437 8.09860754817407 7.3537913331760265 -0.007440258328129121 -0.9569260300831908 -1.1503097545870962
P 5.105855908102351 0.5644979465427581 3.1475151192972626 -0.038731355131926846 0.42544635363524796 -1.0053172769023848
P 2.5193895246977114 7.135233899632432 11.067534172049797 0.9603885347104943 0.06417730600885721 1.750876772751004
P 6.602170655217408 0.5413099678898897 0.5121058367464699 0.5978478194605317 0.2358766035607938 0.7831191992699481
P 1.9596890909796845 1.0746109269043367 0.3593756159918846 1.0980813934099993 -1.3380295959370054 -1.5490143213521257
P 1.305926963394862 6.726242642782192 5.5456692587055265 0.3084763293053913 -0.49001626709683344 1.6150579911457605
P 8.273097580818186 2.196839940365153 7.039288341054789 0.6046234476214684 -0.4888564424607774 0.15535788007943566
Ni 6.359382305450352 1.5922368161077782 6.529400860708473 -0.8219302585998748 0.672482573357287 -1.2125780164986988
Ni 1.0588071341679517 2.6835159524736767 1.147852392278531 -1.3082819323609276 1.4954345883534568 0.31152514343404414
Ni 3.172118110545909 3.979379977687404 1.6434309570729788 0.6246330579741759 0.8981655242145306 -0.959615918210528
Ni 7.99747079132838 8.666256857430135 2.595010954816333 -1.9093197195136664 0.01645274623938457 -2.4303643166712146
Ni 9.112981783501137 8.125554799998058 8.800530841518796 -0.7332863349082209 0.0038132030985031096 2.805752063087174
Ni 3.233792364720482 7.918245119299129 5.423099664992437 -0.04303692448581621 0.3324611222557629 0.7487389220178654
Ni 4.422224424329081 8.908763332178111 1.0741373768722833 -0.13152966731158636 -0.12019418769410911 1.794313760888716
Ni 7.305740098673561 2.849108130348855 10.878654419681675 -0.5907760002154148 -1.28149823650918 -0.5354276053520973
Ni 7.363712394264224 4.520824306003055 2.6999229577508914 1.428904465841707 -1.1362977565787205 -0.825739862153952
Ni 7.2217131554859915 6.927398052231221 3.826480631921371 -1.9726773578347059 -0.8089258759204068 0.7955648812324686
Ni 5.703177261033508 2.643160845575476 4.355964063594086 -0.3114220421972766 -0.5155786889469701 -1.1846872036257017
Ni 8.961755835765038 5.648324382320657 4.35827449916714 1.0277388391306943 -1.363485831226581 1.2874359421498536
Ni 1.8608355217885388 7.886646929660328 7.682498947092073 0.46175598669955953 -0.4313295518889023 -0.9319361929070725
Ni 8.178415761909417 1.9459711733844869 2.276533524926075 -1.2079772845018937 0.6224648466782635 -1.0637358260505938
Ni 4.827034535062977 0.2756803457434321 5.274773271619269 -0.08840146866354454 -0.5480224112979724 -1.4690054476276508
Ni 6.426149101636292 4.859581703932679 0.3484736298372903 1.911647853426211 1.6101374139156912 0.8356494079581801
Ni 2.5969145507785156 6.241614922478978 3.890343175827397 1.242732428594892 -1.7327970324311577 0.7893217285362342
Ni 0.12228114161023161 9.346393090966819 13.665212604130017 -0.09561598413411274 0.7384426822981798 -1.0071838977974783
Ni 6.234774755349319 7.697292687676756 13.658790551611991 -0.374568078728142 0.16458788331813592 -0.18787385042927
Ni 4.130436800412055 2.418121226176452 11.679363632212972 -1.87274809103722 0.9435449807905942 -1.2988683523565114
Ni 0.5602557275056131 7.604104806369106 3.6121456861635854 0.0038908504139739445 -0.6969108816029804 -0.3930106017040457
Ni 2.05019915960608 3.009992995405408 3.4455021144672413 -1.2106463466936246 1.1397654034123466 2.1242084079688834
Ni 7.5249543010116104 4.935969834103196 11.820841402205907 1.5931784174638497 -0.014857119617490542 0.17358160217631396
Ni 3.834017030348157 6.8186506698703875 13.314048007443915 -0.5162440904451109 0.15388978017434143 -0.13174975374219247
P 2.2525008607993655 2.8372411920456124 7.615225715455186 0.3966505124494782 2.264947766804196 0.6804691911071893
P 6.7964295225329625 6.918002218261908 11.423113871118078 -0.6253848485385359 0.11993116384070956 0.23909202517429795
P 5.501364143206627 1.4340297637324801 10.44899420726574 0.039189525715267993 -1.0670600053278205 -0.6683186717875844
P 8.609891249448223 0.39206842028811034 10.390095482445702 -0.35799526197112536 -0.7917277668745655 -1.617982620991723
P 2.686466244340041 0.4935077229876111 4.136637111248405 0.6865256817139144 -0.4318993083494433 -0.6327387178004458
P 8.576958851385779 5.988049551149119 8.826314889097388 -1.8146378171580493 -0.5205452889236261 -0.27405748550588926
P 8.343641502259791 8.281131018861949 4.94148612822658 1.4947697010759482 0.9616422046119375 0.42116675242328755
P 6.382900077875543 4.260456350879412 5.494004386458463 0.5718938185989312 1.6188735082371088 0.9427517954653376
