# total energy = -381166.14327310154 ev
CRYSTAL
PRIMVEC
9.25902388994770 0.00000000000000 0.00000000000000

0.00000000000000 9.25902388994770 0.00000000000000

0.00000000000000 0.00000000000000 13.55151737942449

PRIMCOORD
 96 1
Ni 2.862964190622159 5.811213248258822 3.656389372762378 -2.8970354812842043 -0.44149826489178806 -0.2859454951927269
Ni 8.374509137836098 3.3351466206665243 0.8882125851461453 -1.6405818464484778 0.9462461817718415 0.7507294700853329
Ni 6.496288409522869 8.021786631168252 0.4111043545099095 -0.1570995453608907 -3.2160505053373902 0.6019217324195891
Ni 4.365870394515356 1.755399779344887 12.21655674959837 0.903462768057728 -1.6662167734077629 -0.45524698193644825
Ni 4.3196030532417184 2.398809334098754 9.446030947677329 -1.5685626757976985 0.6216369514603294 -0.8542132870032967
Ni 7.062033273741761 3.297943863564768 9.033468296939564 -0.8277959733520324 0.3282594254695895 0.11895388752910481
Ni 8.38087934612032 3.205788800987919 7.240792614205936 -0.45055189045362404 -1.5404947139168887 -1.4158838852123228
Ni 3.7858203387279685 4.562772791858797 -0.057763345060979666 0.45339501632937396 -0.7670063528684854 1.0597886684773876
Ni 4.637965323074169 4.372527632533315 2.5649495512045464 -0.44953424782238705 1.1248632894895338 1.0336068678756973
Ni 7.95610311726087 5.541516406830262 9.754490691695862 -1.157731243862148 0.7655364531911784 1.32537436906684
Ni 8.819627441696182 6.809706360716111 6.508481617792481 -2.1560548630555187 1.5981936112902542 -2.056553684934387
Ni 7.8993360431466675 7.046126271078541 12.01668590926667 -1.3158216923813983 0.5551729062998245 -1.0324491001221703
Ni 2.1325753675223735 0.2623923976561422 12.535329194179354 0.59844431539395 0.5581016499108452 0.3259024952016387
Ni 0.17245116763853405 7.24270460259357 4.317012378419151 0.20257207587139306 -0.5376138143701387 -1.8160390683809498
Ni 5.7452334455940335 3.236778753207824 5.845365157061666 0.6068888466168774 -1.17280742146898 1.3584760367168152
Ni 6.8521682432618185 1.31970716157977 7.689252499708139 -1.6385000242187848 0.6720244027739458 -0.24675442681556212
Ni 2.550472141795809 5.9381822398308435 1.3383150214472164 0.9731880004680079 -0.31345449924627306 0.2711084301798944
Ni 2.1741206067248573 2.7025886416526417 12.029871684873592 0.7350459979118051 1.003977732155355 -0.9361679716002329
Ni 5.839258830952007 1.0580471526958402 4.8594383915278465 -0.8003196223086345 -1.5907363836812605 0.4709679922161308
Ni 8.65257613666137 9.080583764781275 12.959735987994414 1.408922109182509 -0.10371727308500846 1.335241748779223
Ni 1.8043800145535207 7.674073256305297 2.572416953793538 0.824436055740864 1.0825205628572647 0.7184649536246723
Ni 6.5426668590805335 9.366798704435205 12.322028140015872 -2.1763436952115423 -1.2638049329944752 -3.001611759935398
Ni 7.318637855702455 1.9257010016874958 12.921019380522786 0.6794276372165524 2.6616378742423583 0.20490303799741483
Ni 4.76864718313743 1.9335248766877409 3.094366636058396 -1.4757126844444972 0.4577116414268569 -1.0329226973244792
P 5.980597827258205 7.668536360151278 6.256138964426594 2.9323986912748463 0.18079894586035958 0.58458401247209
Ni 2.304376551699349 0.02010967350654662 6.933674502717033 0.20981435925610314 1.6884380466998086 1.056402268503658
P 3.913798563879903 9.00724303829969 3.809426219571902 0.40188090761048206 -0.30858662963101047 0.2178086903154894
Ni 1.0821576503297308 4.355898426023919 0.3394543257502703 2.387065396773263 0.44322424644395925 -0.6413120612917536
P 5.963700109062411 4.656113009465269 4.499496624105337 -0.6461161675486163 3.037601804876762 -2.7507836772710945
P 6.778040499768374 1.7320485216518484 2.5277782747832647 -0.6052369128357512 1.774994491734814 2.350643149390487
P 7.9172429949223755 9.228737402507805 10.425304178802657 -0.3761634482397199 -0.19254734464553935 0.08764736410633939
Ni 1.409010444866589 7.194789155106863 13.327022938893483 -0.37939686757535307 0.4439438982188032 -0.47261864044567636
Ni 6.16001918791471 1.4537500472348535 10.334291679746554 1.0584115856242031 -1.1709595696269641 0.24060846181882434
Ni 3.232639969627813 1.497267458478819 5.2723806622360385 1.3098364213322409 -0.06990469541093768 -0.16472260912378728
Ni 4.969206894830099 6.17150963628785 11.71742778297032 -0.23337594862612712 0.7403879789500089 1.3691165471497968
Ni 5.159257614658532 4.252817715517734 7.882050371859144 -1.3099300094873119 0.3994316747390411 0.9347104132181
Ni 6.0559755389469565 8.618743664175103 2.5517239617958483 -0.8107981532424552 0.9961366388443812 1.5038652356193134
Ni 0.40552764455411366 8.538791994793902 7.939359098857979 0.23834486259562823 -0.04940940367106329 0.36779013657436016
Ni 0.2102992786900146 3.844041079558193 9.178456274473687 1.8246818316576123 -0.035723678653854604 0.6090717132008092
Ni 3.0551537449181154 7.609269349646464 11.323674838815982 0.7835380319749216 1.369362601722332 0.3362498998742338
Ni 2.8589642923971814 5.01898340607426 7.686366462030533 -0.6085634061058228 -0.16120354022693528 0.10927111302370213
Ni 3.5768812106149195 8.640169044945004 0.8871894630307287 -0.10442612622657499 -0.47227411262206404 0.13940264230175992
Ni 5.827879490862893 3.2111034805738843 1.0849520236730137 0.29639085889576694 -0.47588162746766427 -0.9215036847198387
Ni 0.8444840681625281 2.181861150512082 4.7832792182414385 2.062435340526145 0.6670829996082706 1.105574873573567
Ni 7.650934956156644 9.290041398219783 5.925170533868897 0.30033133160075376 -2.380737397672706 0.5279788623835359
Ni 7.758015564887806 2.339801576256671 4.938552119267009 0.35558485275741986 -1.1866823796788595 -0.2556555859599339
Ni 3.830254393315158 5.893183384799849 9.699768935910123 -1.2985883592222474 -0.22077831446677462 -0.3632446832955228
Ni 0.1461064675933307 5.3426418374453375 2.301346073252508 0.43243255514509393 -0.22382121505815644 1.8156842561446922
Ni 2.4383916602834255 1.1841457960429824 2.935651230032718 -0.10018997665804034 -0.8580997665418962 0.24763785786177997
Ni 3.426338744781805 2.2967563752198203 0.6357291946204908 -0.39716370464047085 -0.3283617553754087 1.3625502067861888
Ni 2.5437778676831737 5.2538570594839795 11.747728863829257 1.1180552654287648 0.11813704805476428 -0.7213109077138997
Ni 0.9441056074260014 1.9961621718080444 0.22471650444490374 -0.927102518963855 -1.605250003916403 1.3919073197920673
Ni 7.4513196648782065 3.831291403966078 3.0255794974171892 -1.1549644797502883 0.4306806054509938 -0.5942657585362282
Ni 7.178909929514649 5.303670606822816 7.353581411028993 0.11218417290543904 0.26971797759027094 -0.0038587116244578703
Ni 1.437120840725457 6.885074813381192 9.9337907591423 -1.057887851910249 -1.8363273863163405 -0.7219135742949051
Ni 9.221070930909933 2.2632757456329733 2.8094729590820227 0.01319875807846114 -0.7346294791996767 -1.6282194682283828
P 9.261153244372725 1.321929327260313 6.5068418447007135 0.3488056250520573 -0.636456018751033 1.5101780652112184
Ni 8.368537067569639 9.22490416670887 3.6957291125269234 0.18457641062492083 1.2645924618927769 -0.5844117485602839
P 0.042608175119676885 6.27299779472298 8.346095046000888 1.3349345019514494 -0.2815802762454957 1.2500055652175375
Ni 2.6659414259710212 7.404756034847162 8.183706585285746 1.0504892454533328 0.08986751168610975 -0.9091446489338536
P 5.7737975336126794 5.197738117026601 9.90011476415604 1.3053555027427521 -0.802681694782908 -0.40526730758421176
P 4.3800459597524855 2.189638730393982 7.051084478253252 -1.0348947334491854 -0.7816762961758345 1.5510277522377287
P 3.853985270978623 0.44314057640440335 10.548474192963315 0.2631943175391403 -0.8291882257138687 0.037384097075413035
Ni 4.213920557084563 5.542571935528518 5.857629659813529 0.9699265561079168 -0.6220681254604771 -0.2833250268507443
Ni 2.0383462836436848 2.849844154083286 6.980996446786562 0.3088131438195198 -1.1020372927339537 0.4834558402704965
Ni 0.6154491550784359 4.732231443047533 6.741134031424023 1.171167828983028 0.6405222184006066 0.12551585701733867
Ni 2.238656001697292 3.3854138601651393 2.4860395219861 -0.9162786888754736 1.4638560422162274 -1.6800071423236358
Ni 0.404919326699065 5.497499008308173 11.743324346269947 -1.574625337052011 0.24261469361557575 -0.8353239062979614
Ni 7.843152287523607 0.6302163719280106 1.3440991335331962 2.347243636790635 -0.9849515687618391 -0.7576192552266307
Ni 4.023684656782751 7.8702719678499 6.040019463458291 -2.199771844327495 0.8320750603433605 -0.9761928487326026
Ni 5.508582059639881 0.8961059028239072 0.75652149150297 -0.8667805821453459 0.44380403020682924 -0.20638990695558646
Ni 2.9863869761289807 3.7751354254140246 4.495485615051956 0.8572675004485881 -1.3078718414067025 2.317818646661298
Ni 0.5208145259630477 8.359370634137399 11.26941418240896 0.37618170307216503 0.3450770112475605 -1.5615021694064914
Ni 7.293907003482746 8.360796523782414 8.425127294331764 1.621945462294213 1.3220087950287167 -0.07111774188243236
Ni 1.9523855079013488 1.1210825858339077 9.569932424707835 0.7591961127954474 0.1781900474826028 0.31730986843662123
Ni 5.629143806833004 7.021515786166527 8.404475042038218 -1.8439818175378049 -2.9430397159284607 -1.6137045624416597
Ni 8.108441833685758 4.602244009759441 5.139047017793994 0.10016915072243394 1.4802483675313216 0.1581809513505276
Ni 8.53283844257478 5.871656154769589 0.23177928769956269 -0.689604320639238 -0.10182725515114721 0.7873784887669343
Ni 4.649585397778673 6.807817519887649 3.6694797804255104 2.9481060747077743 1.9735726159554654 0.34847703806804503
Ni 6.644043909231635 6.19890708732421 2.1363697154219006 -0.40554472961531446 -1.2458704600032413 -1.8261599588650357
Ni 7.272398291499824 7.204585202148589 3.963032496337066 -1.213072182526298 -0.5362395597304314 2.1585259503038308
Ni 8.940170670841969 7.726034897135325 1.7528211412530903 -1.120428907867264 0.22353427994535693 -0.2992473545079556
Ni 4.673603305175876 9.134887938599544 8.191106397001954 -0.6598594852766377 1.3735984941805506 0.18139749867630695
Ni 5.9832829441221955 7.840309767257247 10.46660868338975 0.21784725686290868 1.1226611396318924 0.5174820766172701
Ni 5.020751879595026 3.8372079200905236 11.712075141387313 -2.8251070705750188 -0.2555352583319857 -0.750501670345243
Ni 1.7091602151422562 6.638636639408982 5.702397498492102 2.3944341784335084 -0.6850457547342782 1.2809585619556263
Ni 7.002266275958825 3.6081118974502164 11.247867508428996 3.5754488183036295 0.45422573976078545 -0.13822019195788454
Ni 6.3359406376243586 5.08632428521838 13.274781675548653 0.40899257895459884 0.4635110217174533 0.9161246797961127
P 1.0014745180786846 4.722324287721779 4.402454648836027 -0.3595584926931872 0.29717041737426886 0.07950262351201792
Ni 1.6945402167690176 8.943929834451554 4.834354770506351 -0.06423309894745712 -0.10150226771156068 -1.1587321743228367
P 2.329440728771139 3.737580825412849 10.130260760080404 0.2502251589729819 -0.05855764582923463 -1.151156675968424
Ni 8.947651961966463 1.3805759831793083 8.915339821166635 -0.7041847895565743 -0.02892799588825986 -0.44814148123991854
P 4.581994524995493 6.508176995913773 0.5020835210808046 0.8343947096154727 0.5556063942928174 0.24014643458074122
P 8.945161284599521 3.618611630290782 12.405871377045123 -0.3665560070569429 -1.0587527710137057 -0.7069507823374857
P 1.2081544444165149 0.2432169596377905 1.5362812806102177 -1.1431415189734313 -0.6569675084408234 -1.432367741799959
Ni 0.026645618314443505 1.6575689352589844 11.306247504466326 -0.14191178187685882 0.2428000701535044 -0.02613346386225822
