# total energy = -381166.71117794816 ev
CRYSTAL
PRIMVEC
9.25638893187475 0.00000000000000 0.00000000000000
0.00000000000000 9.25638893187475 0.00000000000000
0.00000000000000 0.00000000000000 13.54766085192920
PRIMCOORD
 96 1
Ni 7.590979405510602 2.3711721178324416 1.0715834476390174 0.2508355388634712 0.04016603069592438 0.27203839819333153
Ni -0.011775977952993108 4.160922679965028 0.4614818965850085 -0.18800651935239235 1.6820874218914321 0.25169737264313424
Ni 1.2504363195188537 5.358495762501062 11.887476711074049 1.1776086995123654 -1.1495070561801428 0.25593223666008824
Ni 1.6856717253903646 0.37976001594235 9.547171873291793 -0.8368832803652814 1.872286578019769 1.3995877191554604
Ni 2.953361953810633 2.978474536884418 1.3473433061447582 2.317567706992757 0.33012681769563146 0.6517345421766582
Ni 7.438535936788825 7.404916732319975 3.108023253311796 -0.25365218237665993 0.6239810262124738 0.12708371572509083
Ni 3.2149289912227372 1.5541014136281854 3.1724282816085507 0.18298104111334296 -0.7890368503059637 0.6184379849070575
Ni 3.5698559670359487 3.700732049630957 11.22177110628523 -0.8251251113880885 -0.36077925247416576 1.8795016077109694
Ni 6.775075006307192 2.3902495353462907 3.471263391992154 1.0477762173975438 -0.2532546898279251 1.9587329798394717
Ni -0.022207002599454302 5.67062119606098 2.8410801052291226 0.08076734915705444 -0.7781518279623437 0.9429541412841308
Ni 5.32979170053578 0.198414398532926 9.38436957975694 -2.3541586187429133 0.5118382480679313 -0.863455631537171
Ni 2.2193951091111495 -0.2138929320441625 1.2790700329285292 -0.7658192745389197 0.3425118216235456 0.33496409118327475
Ni 8.807685443893858 5.935020688475141 6.983670506986399 0.37020954464913014 -1.3557573522340713 -2.8187513035603198
Ni 8.039451447502833 5.24832622186553 12.32058129622179 -0.30666164469415574 1.73490945078847 1.1526792832605373
Ni 5.285860878837221 7.957208432165351 5.319028371527966 -2.1467924639169866 -0.007953707629437916 -0.15972746990204104
Ni 0.7267339024164546 1.4634998791179699 2.933921685852076 1.6831112351702562 1.5150904149111715 -0.9268844894157778
Ni 5.280945736333654 6.416908294380518 12.58580368160877 -0.09355473072970984 -0.6641434573639723 -0.9917135700760211
Ni 7.9439717960446306 1.8653845157986033 5.644565386958732 0.6257301476930965 -0.9073711019731987 -0.7484054499378465
Ni 8.818071112234732 4.250422704196666 10.486837894585046 0.2858652767740948 0.12401741809494123 -1.5696376540294323
Ni 2.7200824408635076 8.771928013590122 4.968888800051563 0.11048415949519681 0.6338833729278502 0.370871089492529
Ni 3.324135867413126 8.21533209290829 8.638652674993372 0.09169428048220336 -1.9585041516581176 1.9691418338776214
Ni 5.39498444752755 7.599134284127633 1.0209732157133884 1.1789562146791954 -0.031528152515268276 -1.3364486246031304
Ni 8.784655548321584 2.038895525646784 9.898083427602089 1.5515471150763087 1.210035195472187 -0.03601781285550571
Ni 1.7249373270855357 3.403935196082166 4.495019078207562 0.159169540516042 -0.28440977527449085 -0.206504835266896
P 9.0105762320967 3.495823368648872 2.6623864432382907 0.5087930334837045 -0.7591066384054346 0.174803390398557
Ni 2.0629991623309483 2.9112824098911965 9.421653388589563 -1.4630834257162608 -0.08072749705805451 -0.4649937769105669
P 3.343926026871937 6.830983595236668 4.255753458561648 -0.03994568715500217 -0.5357261104291225 0.6381280071368172
Ni 0.1879241329975329 7.270301068611142 12.47856101114203 -0.5409724464297263 0.32513476379767875 2.943596873983511
P 7.316786653644887 6.327102809315324 10.48181167541473 0.39454477896038503 0.46742732605272397 2.2316751207939953
P 0.5556156690977885 4.081882375185427 8.220462909273124 0.054477305112273916 0.05206509612635549 0.17448225961371241
P 5.076722028129844 4.06299008544949 7.493536473967642 0.7005700756221225 -0.5566479481834543 -0.80671678408423
Ni 5.5050058859407525 3.4118771777545986 13.377000927572022 0.3285792707028535 0.8580550293468899 0.15251783952747924
Ni 6.37860535713049 2.9973668266203553 9.200717270234732 1.0635054552073426 -0.05537050635050464 -0.8625542027688241
Ni 6.720480824600894 5.488483231762092 8.725912653112275 -0.45164229530432537 -1.6074146156678897 -1.7446991831853824
Ni 7.720087517826548 6.0826508349712 1.1132575617248257 0.012119666081669448 2.2758307322652866 -2.291571797149628
Ni 1.4768568482943327 6.196920955887487 0.9810726257399784 -0.36510179110891955 -0.37361188546245977 -0.22418425482453005
Ni 1.9305032116792087 5.3481471197157715 9.438872123213173 0.7087204726433988 0.6051898616478996 0.4842595671187143
Ni 9.040835367396445 0.6542008390304667 13.069184343043009 -1.4647441012481357 -1.2366805659738571 1.065265632431559
Ni 0.7878649459608322 7.851824444588849 3.4426639272213926 0.6756023499331913 1.008072985270651 0.4946789626798254
Ni 0.35126885092166704 8.162663240092277 6.539361063080523 1.3679114710981024 0.4383612619247031 0.19677295269111275
Ni 8.082530681422995 2.8256330434401313 12.343205761960437 -1.1749900309425958 -0.15488633975965582 -0.39775274437472147
Ni 3.6401119587536166 2.175094031856767 6.154200869856474 -1.1198460387806004 1.6507734422694988 0.22864666147125784
Ni 7.469044994588751 8.606460805692226 5.791407814759776 -0.7176337159726286 1.3713780894904641 -0.32178230238567807
Ni 1.002689070727893 2.2521442130238123 0.7800368178718161 -0.8737264173355598 -2.1318780086989992 -0.7726769208907015
Ni 7.871660885992138 4.3056370639589705 4.851416894216285 4.00028736315155 1.9239876059384864 -2.070733833089511
Ni 7.882648219611225 3.703962529355524 7.352329335726245 0.41002873352859703 -0.7134423035991003 0.20174957997009768
Ni 2.1999844615970585 0.45000767691001226 7.375536028326425 -1.7185415509534079 0.5607601705796149 -1.2015091602790469
Ni 1.9783679986584002 9.635993404217382 12.212647173504546 -1.1491661279009564 -5.644723550349111 0.3815211130072075
Ni 6.705365141534365 6.253375671761803 5.771682450023232 0.03915250182974547 -0.9470095423004272 0.6322934027329111
Ni 2.8721834231961463 4.195874804434846 7.444412818098647 -0.5596520251171007 0.008386424291482331 -0.2900762295316488
Ni 3.7291676763182657 6.663193033725973 2.124680035375725 -2.6042598505435213 0.25038996668562036 0.011956143920611667
Ni 4.213767404170057 8.879700149501693 11.691834601015357 0.15831670559744349 -0.46889105508244405 -0.7893296989560341
Ni 3.5311550050634097 5.111377948155003 0.3304345707954315 0.31729135649386003 -0.28270641943013897 -0.791056966059786
Ni 6.286569082341455 3.3636976735529562 5.614706127659277 -5.381960406810118 -0.924801124524188 2.077787654612499
Ni 8.902748557851757 1.1867431075281718 7.65522800083502 -0.9134389054338334 -1.309440471445403 1.3352970274971907
Ni 4.656509741435906 4.677882743395866 9.522799801329654 -1.016456581348656 0.2842107718898073 -1.8367691018394496
P 2.1407343162762684 3.6591245815451967 13.012000223723721 -0.7549969871124352 0.025260831449317785 -0.06609226364338294
Ni 2.328139165856758 4.66463685088625 2.7243801822277387 0.16661622660207437 1.106518982654391 0.1246563372305208
P 8.540768213700092 6.914559530575117 4.881506637599241 1.051923406796698 -1.0883268851263965 0.20638810718337358
Ni 8.12246274311865 0.582472155839507 3.5410195387094596 -1.363570163410271 -1.6005212309821661 1.9930330386729225
P 3.1302700583835015 1.4905563038598335 10.699129471350268 1.5777996210149343 -0.019172202053076657 -0.19733628139375048
P 6.275109672888692 9.463361751314284 11.32461143819322 1.0177914981099956 -1.4269175173186652 0.9660830139921105
P 0.661379168619011 7.9587542491109176 9.038443516505819 1.3727672565285067 1.675956883513662 -1.2141852130848187
Ni 5.57798325599373 2.2073803163246497 11.190788121373851 -0.7527056199750972 -0.3828454882455858 0.30804258420208236
Ni 5.251464137701141 2.405050501190369 1.991709231973641 -1.3002420927755864 -1.202717064544219 -2.017915146626583
Ni 0.9923959662759763 2.1002653840246683 11.76905602537697 -0.769594682420952 4.068918591166702 -1.2396514756767232
Ni 4.801085279596415 6.565871360877545 7.497004842886826 0.26141871369595626 0.6285578469498788 0.678164968454045
Ni 7.288184411957457 7.560775808544231 7.998132778750615 -0.5791345593217445 1.8421478496528594 -0.22129767730535435
Ni 4.417870779318224 3.5959682401104605 3.82440943858185 -0.20585640304961964 -0.0628038227000983 0.30412370876365047
Ni 5.353543594441912 7.2458271763711535 9.954266005642875 -0.23961473044698733 -1.2033063613887858 0.5032685041210494
Ni 6.366877512399754 1.2364499158975895 7.3940969393398985 0.6158288294189845 0.27947068610166065 -0.08020170646157154
Ni 4.173613189140907 2.1892192813114657 8.69548505153463 -0.20806138112073844 0.18249715949838893 -0.3368242843204651
Ni 6.984945111737323 8.225051301248678 13.059497532063755 1.8877875018688455 -1.0107816424510656 -1.8556263437552685
Ni 5.122254205107342 1.0177862410166303 5.078679754381265 1.676089295326468 -0.17923905757240743 -1.6424242989738553
Ni 4.324427533417056 0.1860821116073068 7.173391305068568 2.116292752666233 -0.7048856722783409 -1.5205977178826457
Ni 3.509152568658548 1.647664992584996 12.897481105946142 1.4929053941737 2.5683299694161317 1.0633745860564332
Ni -0.34546972327856834 8.735235688007931 10.921189315317026 0.5801123498539815 -0.09013233531172218 -0.3342719502122566
Ni 1.0380484763091173 2.081826657344616 6.231950834024027 1.0427589666886108 1.6189467846772054 -0.10171104128825707
Ni 4.433939870441 5.178616357092702 5.6683820755871315 -0.7585618216455581 -0.1250152632318363 -0.6698543917058206
Ni 5.745273972504061 0.8522209153964396 13.300619057683239 1.8381772950408857 2.052228575196472 0.25778754470127213
Ni 7.306799010026526 0.09746422123741992 1.5939362832404367 -0.07665872630531959 -0.6911384978955775 -1.356804048331031
Ni 6.981585042568218 4.408447775422495 2.339897556670849 -0.6883915312780596 -0.6778281539399165 1.2072542902929402
Ni 8.983677165966062 6.269139302051024 9.052018936460119 -0.31490588698081895 -2.1903402666009506 2.751735499661403
Ni 2.3043409900061484 6.6036559403494195 7.297759220631074 -0.451217549062081 -0.07059863615416874 -0.3808665101423441
Ni 6.177676923373516 4.502631532435311 11.245601679496973 0.039222692946048576 -0.19824028126525858 -0.11305012045016014
Ni 1.3730186776633968 5.893237349000364 5.037751705240442 0.5121120705546084 0.021387978757472843 -0.045175310985057684
Ni 1.9380101430735472 7.521760129349242 10.969988071935784 0.959650113882573 -0.6129810755575442 -1.4858119776620284
Ni 5.0611065000629525 8.823097331405046 2.7670687965365057 0.20379334987300388 1.2433096412546008 3.20196908754366
P 5.451485445346345 5.430899236442511 1.3418968469185821 -0.03351227282483261 0.0387066725415785 -0.6981290702807977
Ni 2.92944344490438 7.436434736509522 13.135527659174505 0.4466142459621147 -0.3332738479650454 0.10667866970617756
P 3.716153193531041 5.918757213185557 10.959881020900669 -0.7948205468672763 1.6582473820490407 0.9086157730135771
Ni 7.421402360943055 0.4910134797175578 9.659441688567739 0.2951564722680336 -0.31686429625877044 -2.3038015064466
P 4.265899386430124 0.410086722881032 1.029173450636008 -1.6260975367893735 0.18062565350728893 1.5571940289494408
P 0.6834621356072641 0.5797470749486398 4.8199192540823095 0.14669249109495383 -0.9795339972906938 1.304740237756256
P 9.487520926331822 7.8574893545929605 1.3591961121255847 -1.516461070006453 0.550331261936807 -0.7922129340411002
Ni 5.4139785575413395 6.207149265617134 3.6048830682558206 0.6045044055451009 -0.9514734916090517 0.14389615929673927
