# total energy = -340890.0688705289 ev
CRYSTAL
PRIMVEC
9.10772325474894 0.00000000000000 0.00000000000000
0.00000000000000 9.10772325474894 0.00000000000000
0.00000000000000 0.00000000000000 13.33007360609958
PRIMCOORD
 96 1
Ni 6.497686701639295 2.123602335473793 11.433271325494824 0.15840720842872075 -0.496345551748971 0.13971631688743677
Ni 4.71403014349726 0.17051844129982863 6.0096101779912106 -0.23427840583573845 2.5446745347807207 0.1319544135538308
Ni 2.9881894137410785 1.8046225374968297 4.891217259898557 0.19856809691832253 -1.212102362413861 -0.6399311217838268
Ni 3.7604606072385134 4.404668101471063 5.324178395160222 -0.2655129383699879 -0.2673469062549331 -0.5341860196355124
Ni 5.335322605559234 4.432109672190435 2.5903667862764306 -0.661703480463912 0.28882435940241874 0.3264871640605152
Ni 7.215466385805828 6.222232713973609 2.6493392955389394 -1.17321854086447 -1.085880480468433 -0.485566458855596
Ni 4.835217511566285 4.648591150593611 11.272483575916393 0.5820715304628814 -0.24653691148811732 -0.24544779218899668
Ni 5.974539067347635 8.46106596638783 12.462539705110377 -1.008274559758496 -0.5923646848587732 0.7492431153477935
Ni 1.9253909502876967 6.4701540536855395 0.6262752975550273 -1.206420481537735 0.2286543747807417 -1.363412297676168
Ni 2.8189679122588536 1.4060958830104069 0.3362762755584969 -0.43106369982202536 0.3165110266844097 1.1238371622178644
Ni 0.5952543915244322 -0.013748108530001031 4.639265752565213 0.31367895655225336 -0.7799760256552761 1.1109399945402223
Ni 8.748669657120105 2.360375821697335 1.340459252508149 1.4956755007196691 0.8239452321473745 1.3244276888828546
Ni 6.900539524758875 0.5909637430126843 4.759889352553412 0.203567607015443 0.04323541364986747 -0.08668140064864427
Ni 0.36357394424754563 7.374177574440341 2.4101304040680156 1.571226852893423 1.09699150277993 0.272609183095137
Ni 7.516030366990699 3.86229406300131 3.773397217610168 0.5405554134969658 -0.05190748750256867 -0.16787606715110442
Ni 7.731464457198479 3.988645510259809 12.543919035575609 1.2217614827701797 -0.5500420128311624 0.521740594783308
Ni 8.120655695160721 8.876214216149013 6.745603487489506 0.4118989539681165 0.149330185828117 0.8207596353305413
Ni 6.941788404210596 1.159067100195423 0.38125841084754764 -0.3628587607110138 -0.3533968439671656 -0.6392693198301119
Ni 1.8914828959271839 6.413713491538858 9.394155875723383 0.22553331265325674 1.1100532210598948 -0.6133153189685115
Ni -0.13115577137216286 5.151155329914881 1.5488211954661473 0.1949598107417739 -1.812244634335524 -0.97928254340152
Ni 6.427065414099296 1.791097568191065 7.250533853360026 1.078560292657936 0.6205830562745183 -1.4558920501741441
Ni 3.359866499531613 4.323627578317734 0.7208653808674036 1.555052814236722 -0.2599344158409459 -0.10705507920898981
Ni 6.092848394810182 5.4231665981209165 5.225962527147089 -0.5346940696201824 -0.031009561007636917 -1.6243671843618284
Ni 5.106782501323848 2.976832082613612 9.368668822453852 1.0364589926125118 -0.19551696879682456 0.543610912493838
P 0.23350017041984394 5.678592701945944 12.587402039586728 0.8969784458849649 -0.1418315634582267 0.23900152234302066
P 4.111517807164906 5.867969595396962 12.827263044055828 -0.5606259589945957 2.024171926169572 -1.1991586577689992
P 2.380431028708307 8.468944147161894 1.427864252800109 -0.1382800986615425 0.13842356621794225 0.0442653975762786
P 6.352755498566816 7.786292952296596 5.9080089691760875 0.5495887273438278 0.05578291129757491 0.12446067627994693
P 4.778449071375827 1.2717933931903374 12.737765088917762 0.13758384392546627 -1.1261269866933057 -0.085561171001272
P 4.011050509917843 6.291815721041651 8.392654212553943 0.13319317105693834 0.44347852854661046 0.21731992360452895
P 4.86988150697217 0.8267135211217699 3.768411649800084 -1.4353214251116442 -1.126003316631248 0.8838889596908585
P 0.0680264971324483 5.757010200749064 3.7512563419318425 0.6986597459732871 -1.3898265260036387 0.7063943956133835
Ni 1.530261476643732 1.0493827868288763 2.722920593196361 0.46845782419976745 0.7933593889407174 -0.9245681825777755
Ni 1.9651461630955496 6.506430116139991 4.921263639521262 -0.40115791340152845 -0.9293365505006963 -0.3384811031975977
Ni 6.084305350225127 5.844617392501353 9.403220792861449 -0.7825810673782909 0.5740797705066565 0.03514235222908786
Ni 8.626088807365033 2.372124784932646 10.151877481028253 1.3732948468972026 0.6982072318169008 0.43797225401640055
Ni 2.3606035147832904 5.294875205770076 7.195187128798275 -0.6443994419678257 0.09970789481529924 -1.3004603794339797
Ni 0.7615368306531423 9.085955979207903 9.017422181879946 -0.5426341504028654 -0.6622223290818595 0.15442071297714693
Ni 1.5530216775158567 0.794140659017301 11.697313335692412 -0.8962238271071276 1.107150702701119 -0.14207299004507143
Ni 4.035878164010445 6.533143068984306 1.5921575651299107 1.4220239366717895 1.3385373888113592 1.1228799405109178
Ni 5.794488482697361 8.140874841193583 8.119014483397153 -0.39861843480912634 0.04961740591681132 0.16609377843970108
Ni 5.410069691816749 2.5358725446284973 4.836603707073583 -0.1366685312000485 1.990509758030436 0.9561672975402952
Ni 0.7558117156998738 7.12759507007383 6.899513084327387 -0.1937771032875824 1.0027258620261248 0.4459372744997481
Ni 5.148286397031841 4.712700415875279 7.384927420414479 -0.03573781972124168 0.34498933662976067 -0.4349496651399929
Ni 8.11994529273254 7.240549056154699 9.118810269966612 1.182370125456751 0.27067571351784997 -0.4648173992337027
Ni 4.750561222207981 0.663073232562489 10.539555926127406 -0.2797324244034795 -0.5423654701225111 -0.5364313640262633
Ni 7.920759381138553 7.4174847993891015 4.422184985959801 0.6454103997308434 0.4404826791430801 1.404267641129633
Ni 7.370725747257254 6.24696929083183 6.962297175848792 0.2865191083080098 -0.06136914713610076 0.9520949272431345
Ni 2.1742230623434486 5.2294999669304945 2.717882200590335 0.334024867198457 0.27437913051136614 0.2618594007778006
Ni 2.3294277774542453 5.43885009788154 11.582861129105952 -0.2252183525159992 -0.4091738417274695 -0.17894440915012408
Ni 0.8523909258111584 3.5917218150985137 3.822904980675673 0.3558419630735485 -1.253353141533532 -0.5190445360083835
Ni 3.870090274264431 2.4454328508869208 2.60430980008801 -0.8110542351173193 0.5187848545890936 -0.2733406619445228
Ni 1.1717359434979944 3.1463450312458603 7.946350262455279 -1.6384131209319333 2.2905515834152297 1.2474658295148193
Ni 3.6580260417287938 2.8490233996049965 7.3272746202781684 0.07112108431654203 -0.7640686103964003 -1.781226588687455
Ni 4.295338989318607 7.104789330584514 5.956689750953402 -1.219440805056803 -2.978817130638386 0.38774601087099675
Ni 0.8041983180101332 7.571669449474817 11.399998990230298 0.9328322223587805 -1.1136800191792045 -0.14473665292016363
P 0.018612543618357142 5.366015633546054 7.977608880067612 1.072649840710772 0.7939965083040842 1.2246922832637295
P 8.644477300986809 1.6160926623255665 7.994031926971419 0.06449432302864376 -0.744191411856499 -0.0719860034199986
P 1.6305375116985918 3.3183443883767443 10.39208548976035 0.6867262277604947 0.20025602614370672 0.025506114690904462
P 4.0320711356132675 5.9163224991305 3.8165068049603197 0.13481887958581942 0.6875371536975643 0.17335997308381113
P 6.87444589710836 4.004092209211039 10.46989368186545 0.16941770060661146 0.8189860883698862 0.14970633822061316
P 6.5473511175479375 8.00848497329554 10.395631126494848 -0.841405593715667 -0.6520096502149157 -0.5461953853915625
P 2.453893925961032 8.52730643895404 5.788544782381575 -0.5953713328955812 0.43310001352576377 0.5271291127887309
P 7.096756318511999 3.6874166652639464 1.5488876818472463 -0.7659141482455712 1.430346340494556 -1.0035835820407297
Ni 5.456728558990776 3.1384395273014807 0.10665417377864926 -0.32779019914265484 0.7048072536319215 0.7329610903583182
Ni 1.6598734888931155 1.2279488125587208 6.949673871163412 0.0009556790450499669 -1.9989018387488733 -1.212542535275073
Ni 7.096956688427641 0.8306152698427055 9.386397916898702 -0.7314690791938241 -0.9409101142709086 -0.2538349878114274
Ni 2.594881484784759 1.5953634837801658 9.205855515182762 0.8231649023379242 0.1423735520046258 0.6967342468158
Ni 6.225074323686337 1.8708083637224127 2.5667859795225216 2.17899038880577 0.9471625229385237 -0.37821878810685183
Ni 4.368774563401017 7.2706409743945954 10.63707869638689 -0.41189458309274224 -0.6064479024247169 -0.48932104080202177
Ni 8.03819436715103 7.238208371231076 0.26725976888831354 0.07530015539489612 0.13103987215936144 -0.09764484163868345
Ni 7.23048502175546 4.047918574395779 8.314806857238057 1.4926508549607325 -0.703552298178898 -0.7137580350673063
Ni 3.332652621898196 8.348020903072577 12.637656635974167 0.1331558900610997 -0.6163877872462481 0.012060530708959873
Ni 0.047144308833285416 4.879827140966713 10.191654552372357 0.5510444859537478 -0.7069057880321632 -0.6703380162104585
Ni 8.660452247897457 2.182665921970684 5.731611492396884 1.1868266185662077 -0.850712987159522 -0.3215010236998334
Ni 3.393355598613968 2.645183441334077 11.54938933469813 0.17618510123743206 0.45226090272493075 -0.09172256261697752
Ni 1.4075257955902083 3.533459708264187 12.93802297956043 -1.6124110404412164 -0.4801337178757989 -0.7704935400861376
Ni 3.199188042634443 8.400208158373609 7.902961067995573 -0.28148488831821195 -0.08138492813639532 0.9174619105502974
Ni 5.520455299888039 7.756173710886385 3.8373152206996335 -0.45819140927675284 -0.3150904921877993 -1.0420112898893088
Ni 3.0333546142712375 8.216232144921458 3.6781941845104 0.5614664526180201 0.6293543747092452 -0.9283412764669624
Ni 3.2292162068102717 4.271157983590118 9.037337129949968 -0.4201126001271604 0.49898916001940513 2.6516316549592656
Ni 7.669340675626345 6.170009027778827 11.331602719526257 -1.8226429468507128 1.0109770462913235 0.6881218225564407
Ni 0.30610512012468805 9.168563030792605 0.6613746421412598 1.100598760515214 0.03419978581016045 -0.9940656152479656
Ni 4.611768624732866 0.21635579181972872 1.7336697288236795 -0.30840999484383014 -1.38570221942262 -1.494718793233355
Ni 6.110918118111621 5.561166823656906 0.29013290553107246 0.23793914251677728 0.46657603379602225 0.3219378541269359
Ni 8.133889217316463 8.964531810329483 11.539351712696863 0.16629123916248778 1.0114573283618518 0.22915291168371502
Ni -0.01593942678923803 4.706343224915398 5.8776429084607 0.2470806998067293 0.05315755785958587 -0.34743137041235006
Ni 7.6572820497941345 8.895185604070836 2.2377594518208523 -0.2634185177348044 -0.11740325521253328 0.8862998831251963
P 8.51632252448754 1.3664863937775653 3.434440539043802 0.22261871010962306 1.0661858302529832 0.5404505124879854
P 1.9895548619099934 3.1227924584346094 1.6718975053762604 -1.9276506566123706 -0.9806236308104466 1.8320698965915674
P 4.706261255404454 1.1818819474081774 8.242797552646072 -0.7646190835832315 -1.7119530991026128 0.3465782783834354
P 8.788871148376433 1.7453859042546125 12.57575143976455 -0.2840539345969688 0.14407562229739704 -0.971944357868894
P 6.139234030281063 7.6211699263615715 1.3880735198708467 -0.7243576649600235 -0.18649471069355622 -0.700846983432593
P 1.8715005507037177 3.2994003236252354 5.832986829670739 -0.4914943943042568 0.6550281253262654 0.39409432168652775
P 7.092666950688237 3.5389061268802453 5.927283644288404 -1.8769647002217287 1.2436474842099938 0.8102062852947273
P 2.65532944524426 8.779462870064746 10.245761715774165 -0.4306860047676324 -1.722346269411479 0.3537164320901134
