# total energy = -381165.05693928245 ev
CRYSTAL
PRIMVEC
9.33008075550329 0.00000000000000 0.00000000000000
0.00000000000000 9.33008075550329 0.00000000000000
0.00000000000000 0.00000000000000 13.65551628469305
PRIMCOORD
 96 1
Ni 7.4003959513795445 6.377828455798177 3.1754537207240663 -2.1494676967563047 -0.722693389883723 0.8124727127314008
Ni 4.859815024119202 3.4960744739394904 0.2854930000346114 0.5059491362770061 -0.28015537087351106 -0.739412759520933
Ni 9.195242202348794 5.221336984344996 3.2482236837874785 0.8274198209595365 -2.3346310902329472 1.62369895465021
Ni 4.098993607617385 6.550248343920731 5.89187680964394 -1.6375813690592573 2.829165299804792 1.6353630212516996
Ni 8.541427479400959 5.758702972246426 5.829403523449146 -1.0397839432206866 -0.543880878325773 -0.03633020188960195
Ni 9.048265443820949 1.8690390513128938 13.036401833651228 0.18229635634149247 -0.11913746429482064 -0.218615759597817
Ni 4.394318646510413 -0.12328115301567791 2.585453016542627 1.0696308513787902 1.1349268443731229 0.5036390000865907
Ni 1.3682003286711928 4.005254288571535 13.295857377961617 -0.14994570792492884 0.512797269547091 -1.3749712061583608
Ni 7.70165492148718 8.484728580043774 2.9746088092706606 0.6007323400971782 1.7131057246498174 -0.4730390158125466
Ni 2.2700459123251946 -0.4021637909975389 4.023051417175095 0.5616389736401424 0.28743287837153075 0.3954356662057706
Ni 4.940912084052169 6.975606715106183 1.7875342668609357 0.9289539703502969 -0.6241064960467445 1.4539094725264767
Ni 3.3061793449915293 5.5171378573448555 0.2991279797154718 0.25768238658197556 -0.038176253959405215 0.27448146041718535
Ni 7.798193264690863 3.01608848127365 5.950227133254247 -1.3049706085995072 0.44598046903285776 -0.8366585659489849
Ni 5.837346221001026 2.15402636098299 2.320454471391674 0.47057332788087347 -0.3120056826148884 -1.1016634543343027
Ni 9.1489370126977 0.7448203283995344 4.124430206155724 0.45120649331848744 0.46959013803199773 -0.9410499822828825
Ni 0.757770480169778 3.5270036908835523 5.557794616245443 0.5731539162582774 0.6580406869003441 0.5368537962756624
Ni 1.6153634918884303 7.169756360774052 13.831945144830971 -1.8733281319104058 0.35016908105848726 -2.4181819156724096
Ni 1.2081241370846862 0.3063112087125255 2.117137088598848 -0.5242494772480907 0.5400926149279344 -1.527857998989485
Ni 5.097293563750334 0.8674931601649097 11.27523624037319 1.0927759220366857 -0.786822102042832 2.5902180277384743
Ni 7.268375311935057 7.072966105396165 0.734017028158349 1.7777427439039124 -2.0433996640509324 0.39787307200266964
Ni 6.476568698006022 8.997136602537855 1.050771396003752 -0.8799906530777166 2.635301036120042 0.18722798931515497
Ni 0.619313018170326 8.797622160567473 11.088483482546424 0.21158045001759043 -0.054435910351377216 0.07977207512332067
Ni 6.296815366589946 5.508451552375045 11.031185592019463 0.41869206563054984 -0.008001787258553963 -0.7461639622018376
Ni 0.3486539131641804 6.432054883815941 11.799595163013167 0.6110902862927348 0.10426208984488497 -0.10525196456198002
P 6.784871878910873 4.3479761365372145 8.943147158565454 0.39888840064106146 -0.07960263942499193 0.3733046386346861
Ni 7.456068541878857 3.2204918854397153 0.5442935726920686 -2.168114108212898 -0.15562836013200293 0.7224897585133493
P 2.7924744413043197 4.2290456000708625 3.5055211804721793 -2.952745373251999 -0.6901697062244049 2.258173938415472
Ni 2.9615168402764196 6.855071404789341 11.305265104546482 -0.9127753037079054 1.2349221885218535 0.8862206931478286
P 3.3647535905344617 1.6425046961388905 10.306841991350588 -0.9593125280374963 0.1641744499298011 0.13116894153805797
P 8.109118198223552 5.2033952394932825 12.447521672140974 -1.6356694967485248 0.1197326746766583 -2.3175486808293635
P 3.43931959409915 4.8891487972932985 11.94805727036077 1.076538634242217 -1.8723495700472206 -0.3337227625770059
Ni 3.145729950183979 4.4433575497556586 5.867775345628887 0.34391898638371743 -0.6371641005616511 -0.1099856225922235
Ni 1.0125563191768492 2.5421577108692563 11.084046096248203 -0.20542780015263332 -0.4185007755553502 -0.6433512032089694
Ni 6.931335483009781 0.8729727164578955 6.9045021714166825 -1.574148140305276 0.9778571238089029 0.13195724176730825
Ni 9.222486037485043 3.49422711799532 7.902829184783159 -0.4821088393242987 0.9966449459393674 0.2910632760352665
Ni 5.530890396040346 7.764278421978445 4.322011455441096 0.5023827590819865 0.6310744427241454 -0.2892285368193729
Ni 5.0071836460291435 3.2353453736372857 10.97710937829817 -0.05461948711709303 1.228077911906511 -0.4656231829644497
Ni 4.810067034753971 1.0340994751116421 0.14265786425230764 0.4865936145685298 1.1246059220630888 0.08888200784438886
Ni 5.577391517382488 4.458099076986916 7.029367572105695 0.3521686279870193 -0.19388534673067254 0.3087653213007198
Ni 1.4229399111178929 2.3833224199927225 3.4820886832308484 1.106862996257371 0.0778900276092594 -0.11484320779484092
Ni 6.675420704259051 0.9198479740291355 4.1722384717795755 -0.5993367453012324 0.38139615739356897 0.5028645838144113
Ni 5.389968859773948 3.0332091790390656 5.01986322546413 -1.4621850822717077 -1.7720562350420965 1.6118168585006436
Ni 2.7677030775074916 7.873403043811853 1.8281182511334186 -0.3679444027640373 0.3803623168124159 0.7574719310154889
Ni 3.1102103336210694 2.541411304427167 12.30120268429022 0.04939371994177945 -0.32576854072693573 0.9229172772379137
Ni 8.09249199472602 8.66959479558816 5.578892727339139 -2.0275698961075275 -1.6155858386247726 -0.5774294037051797
Ni 9.481134529829923 7.383293913775181 4.246920168342788 -0.0691989275931647 1.7776242160481774 -0.7745746521340466
Ni 7.9540802501211445 7.281642686443189 10.14513303567201 2.019390445620529 -1.300033062088574 1.7189752960567168
Ni 8.145654793563805 1.3418615113459782 1.8172216500869722 -0.2375820162876747 -0.8161388487290783 0.6546864257161306
Ni 0.2633228626884637 3.101094844947058 1.5167725309690028 0.3354603140934029 0.029237299598562548 0.49484171350993483
Ni 7.407262890646763 3.233591318498377 11.84906884801093 -0.8176331738864177 -0.5489521222010932 0.6586374399440786
Ni 1.0792290746164466 6.931997918727135 9.312174235566454 1.321257518684989 -1.6206275148137381 1.1351577294370063
Ni 8.790298047354474 4.3487598633014075 10.360480624295207 -0.19958831065272079 0.6542899616086603 -0.5039917554403192
Ni 9.010431967287566 8.967840149685863 13.688426114146102 -0.21048078919550847 -0.9553820826348385 0.14533494862579485
Ni 7.414129829913982 2.283602519329636 9.771108767541227 -0.5399537753572249 0.5470726457901933 -1.4531011176925683
Ni 4.1369297150365565 7.908204244174252 13.548237922209056 0.284859975438032 -0.14439880996477067 -0.5213461875583666
Ni 7.758624393179621 0.2747746035262138 11.001183785079698 0.07732721312725392 1.0889485778707957 1.3147058336094002
P 6.800798326368946 1.0872156235467987 12.873996853965403 1.315812693520334 -0.12750640508480623 0.04338350919195754
Ni 3.721787782027196 5.82991947690224 9.467327876667381 1.021615756952092 -2.524668009751807 -0.7409240539591369
P 1.137234185247286 5.220086753554497 7.281380511180406 -0.1526368816038468 1.1137748928858562 0.00872041059213337
Ni 0.17952101241097684 1.3999412626210264 8.817353414864096 0.5254491539831466 -0.23351787352063008 0.8170791011551606
P 8.748732538610644 3.0683835826225088 3.8588709231651515 -0.9787544388121918 -0.5053338712905103 -0.0945363779166888
P 0.20900966492180695 7.230999009347452 2.0951115675008545 -0.08378479582713957 0.5629371236262757 -1.4088935699374185
P 2.8865589733296346 0.4464667453677299 0.43550576676565333 -2.077861188162912 0.0040379175147994975 1.7235372043957866
Ni 1.8557343564826578 4.7788205950720215 10.44114383548371 -0.4385553802133802 -0.45849917032515874 0.4985135059345672
Ni 2.6760070460968612 2.9864374853616655 1.3029709366889846 0.4111579620370338 -0.6285215943953048 0.09041052867377333
Ni 2.7808305008077316 7.016425817407924 7.6710130710233235 -0.08294738752750877 -1.4383856658592646 1.16274592346792
Ni 1.485330159596005 5.390696606054983 1.7372274056721917 1.3328092280783304 -0.41158219405864604 0.3052079429667647
Ni 3.220277293587615 3.301990138835305 8.927116214205489 0.1840652753164572 0.017339519719712072 -0.4101896845864936
Ni 5.5556337695955955 5.795957983787192 13.28303411528653 0.2676091587773843 -0.4023563045850038 0.014264737449130272
Ni 2.860033554393898 0.19027486322537374 8.57294635743427 -0.5800413874067301 0.03635308470773739 0.37690058351606054
Ni -0.15586832526922986 1.1552599008237348 6.398182959473943 1.7856830817969118 0.6634266338026058 0.8086304561671751
Ni 4.982888116339146 8.49462779548198 7.270033267244548 0.3554079608599234 -0.6028285605045747 0.6293109230658194
Ni 3.8616550191941434 2.140973578326959 3.3810924275517893 -0.7139189861252028 -0.19616874344821056 0.4149405690079176
Ni 6.718842899027576 3.97781452174424 3.589734487300867 2.1565513430759635 -0.1078750040071239 -1.4741309417796742
Ni 6.237438734121767 8.44555157191463 9.812703199534687 -2.501968511271762 -0.597194759257565 0.4630037430637316
Ni 4.60800548079996 1.8014426179012113 7.298914531513128 -0.5671889569240941 1.4427323728637347 -2.1928028692088297
Ni 2.821873525042099 2.116687378717489 5.592834666669309 -0.4286862007287843 -0.9075523647460692 0.36970380865730523
Ni 7.6173109935311265 8.212943334318126 7.929170801132531 -1.1520923004088157 0.05758859704774598 -0.9779771943265352
Ni 6.267127050355856 7.955666363810584 12.485292637134833 0.4353384159379793 0.6531363076201913 -1.4221455498513185
Ni 2.4933427295566375 8.604246911583273 6.288815755546857 0.4365943998322675 1.703301594075202 -1.5013272996888078
Ni 5.289567863232454 5.3815437970588675 4.710005653143629 1.5181819093523015 -1.7032146907883507 -2.16663366701263
Ni 5.971046274940213 6.4162777176462855 8.502061070637133 -0.10242323686393329 -0.01621569052791401 -0.3288595209474336
Ni 5.1136212046710305 0.8182657892930367 9.103941766352472 0.2708934859556109 0.8567892752605889 -0.6784513893462122
Ni 3.044881109777232 6.428677394665488 3.511283438205106 0.8094570658335286 -0.41554606380240044 1.0097511443040221
Ni 2.7443778761922113 9.012895108546457 12.1441233145687 -0.5240497025324587 1.8483123265923587 -1.1513163414747396
Ni 8.48322643707907 5.945808407117079 8.330984714110341 -0.1923048896174301 -1.4141638171974225 -0.8706755463243779
Ni 4.466216247044634 0.350735454129556 5.322728835438362 0.11283414778461212 0.7179036818045635 -1.158798765894714
Ni 4.38695721297531 4.443814723701438 2.367771041771799 1.4976539646022786 -0.09460039838540482 -0.8439425012049079
P 6.238707625073318 5.236507695280454 1.7986631869124825 1.5022405555316967 -0.6595069870332255 -1.5649358776783886
Ni 8.681705240111055 5.085621633012168 0.6884246566594494 0.7105606111759311 1.3277629239036746 1.6847099471159437
P 0.07463224713642384 8.653472416439039 8.9451820491282 -0.08755197617905568 1.0854130539137112 0.7414411028048714
Ni 1.4715029802563067 6.07978836347205 5.291417085192729 1.7903419207251616 -0.5768635038993806 1.1224271692442154
P 1.7910115878730177 2.3977000740834615 7.533925264845105 -0.03029273744627041 -0.7854727871037891 -0.4755648675581939
P 4.128877855542522 7.827340436254437 9.525118395446121 0.16102896232228397 1.187188887001633 -0.45698993276948396
P 6.511472529254208 6.654250751545302 6.010598352306508 -0.20512235309707255 0.4759957844480254 0.938677625395964
Ni 0.4309545534850158 7.863167945474708 6.977477396251669 0.4384432801155481 -1.0275038403017531 -0.2807022445159166
