# total energy = -381165.3807795128 ev
CRYSTAL
PRIMVEC
9.35343479335959 0.00000000000000 0.00000000000000

0.00000000000000 9.35343479335959 0.00000000000000

0.00000000000000 0.00000000000000 13.68969727976014

PRIMCOORD
 96 1
Ni 9.026981125814716 3.205749443223493 0.10085621572465689 0.9424360639971318 -0.5362891820214442 1.051593791371421
Ni 0.9071587655917368 1.9451776947511357 5.638047469946763 -0.8063259764037146 -0.04446157274748472 -1.191663892053851
Ni 3.87749441678448 0.20940376080628834 7.955247741265296 -0.09184906089251278 0.5200490660134979 -0.15590038284646698
Ni 8.362896615276181 4.748130825888099 8.480411298208391 1.199591888651676 1.61170552973376 -0.7650610562166567
Ni 3.5802983825043992 0.2635723072066858 3.228933801823922 -1.4615155670085087 -0.18122292077165564 0.7746235030941112
Ni 4.360646086411771 7.82877807994762 5.164671074928464 0.08502123933740197 -0.24675391259492988 -0.09919418840367433
Ni 4.7696250188375435 4.6111030074767205 1.8013995025139886 -0.07970136978638531 -0.34693566172285406 -0.9821403245652891
Ni 5.8181263422695455 1.2376651868826325 3.4499676233409753 0.6404296586868002 2.2352947198244535 0.4178919383267577
Ni 7.675082440893982 2.4224367005150023 4.123432693544 1.653337089231617 0.8580012932908191 -0.7139338985235383
Ni 5.036824588022381 6.208407758722325 10.037847034028843 -1.7108022733276211 -0.3522218498224579 -0.42797400515310813
Ni 7.857539891661953 8.609368973157292 12.22823998503689 -0.8272529563643688 0.6249068804608527 -1.5700220339520445
Ni 1.4135471730537985 1.3767227006247469 2.9563307534106706 0.021485423567285576 0.17252205056354802 -0.4462116112070574
Ni 3.184685508270426 8.91793878403725 0.5814927467600829 -0.515244445536003 0.8076914892926735 -0.5513856713432503
Ni 1.0857841141615416 9.004916373348337 4.57486406006013 0.5518104175854949 -0.35871542796660155 0.5762929761078913
Ni 5.403404400935609 8.529911545348098 10.399309582815594 0.2093135083602847 1.0462237853087593 0.08392672072164256
Ni 1.365012200375529 2.2501838470089295 11.75860122252625 -1.9921956303732915 0.7593881742015953 -0.5306031873802604
Ni 7.830639413453685 8.285871080489988 9.615123229305764 -0.018752340906838673 0.8323779362957601 -0.7351143892558952
Ni 0.7354175449639646 5.523895346790585 12.734676095015942 -1.1934400101176674 -2.076564837948991 -0.7528305755887357
Ni 2.8872088709492307 0.7080334941815076 5.618895377047162 1.2327282661943288 -0.7688485482835469 0.24037114899703765
Ni 5.325986021891856 4.245299529643912 12.007740244641427 -0.31344344350267955 0.07820858729094274 -1.3277410695268035
Ni 7.694219568298057 3.90055998676417 12.09665493027968 -0.4135028081201266 0.345899764259172 -0.6874078272085516
Ni 0.3115890996023621 0.46084466320208267 0.5664561651301762 -0.469658786486404 -0.14438158357359007 -0.3980029127123145
Ni 0.928153485127995 7.5713996172018225 10.615169084254479 -0.44063720244307336 0.304514773554482 1.1397625751988694
Ni 4.3037023759347415 2.519572119914468 4.602379994271911 -1.749183444208981 -2.8719258307007705 -1.854822874017367
P 3.389768917587007 2.920712874058416 2.3622800852172006 0.3066724433274331 -1.1177955840094749 0.5568798616886023
Ni 2.8494397016150907 4.9664680521800335 8.682197621791866 -0.16937167786002444 1.1170054840080117 1.0410059885532459
P 0.7363136040085934 5.322151113663278 4.841717552160926 -0.08635127100273517 -0.36962718978309894 -0.7476855410526865
Ni 3.3506060864819935 1.479283112152445 12.219068006966298 1.8317410524972388 -2.181595944749417 0.9933279657509925
P 7.438085112367871 7.97705808030773 2.3535056281215208 1.70124959664218 -0.49555236642371425 -0.972132819730616
P 0.6017588337329114 5.92789825195391 1.1199325689218218 -1.1615614162415155 1.2231020559584742 1.4482990683182346
P 8.407353490423572 8.985330281078479 7.485362048078473 0.12147536839937786 -0.7580704838314364 0.8854820152095912
Ni 2.605221521497608 2.756307552268872 6.720943243471755 -0.22358801600142783 0.9407406785725799 0.38628228184127666
Ni 6.533982113893881 2.5632713668508478 1.4785554149324858 0.6416740726168626 1.6621577728470407 1.3397357799948346
Ni 8.93901207242502 3.424573048120027 10.253966560952493 1.845583871917602 -1.4253653423401969 0.2415926801089646
Ni 3.1317731281507557 6.838745076849375 1.5026218024254878 -0.584566014749961 -0.7371339907890854 0.22348337210276348
Ni 8.978006541705366 2.0267583522381014 7.939941780715917 0.38948484793897437 -0.8456237455620726 1.1802137412353804
Ni 5.558147624676078 0.3395437099017539 12.900007406841166 -0.3467518278468222 -0.19456231819303912 -1.7451874356757104
Ni 7.021342829137903 6.545187528669092 10.939587354896641 1.7263168240234528 -1.1623324900795853 0.9134738724368268
Ni 3.4551307192975 3.2068531485185474 10.704179174926711 -0.005258420185461911 1.9476926628649103 -0.6161720716910162
Ni 6.32537245969395 4.720575607250563 7.140409246887483 -0.2048045647463376 0.564119573970151 0.0405223855940786
Ni 4.943954334847871 1.7054398098567964 9.881743820882434 0.7086664794770118 -0.8244185722393673 -0.46645364928554506
Ni 9.498506476105122 6.97726944481337 6.098294448671269 1.0979263558893735 0.7223694308854012 -0.4985232761265801
Ni 2.8323042092376403 7.468324766765413 8.808266020760746 -0.18381819230265764 -0.0029665388274916654 -0.1418498182906718
Ni 6.02378031110306 3.875576962670191 3.6272086635746104 -0.49475249623023826 1.4733961204961787 0.5850545243506053
Ni 2.4654437932832973 4.29696790294797 4.008699722092714 2.162017508396857 0.251926715045121 0.5417671744168798
Ni 8.34928736778208 7.385911653589804 0.23184171531735037 0.02050968991757758 -1.3297868963122388 2.5584047398826195
Ni 5.77560562810585 8.248971780583307 7.679002465378366 0.1140191692316488 -1.0135887728825577 0.035246481907119945
Ni 0.4407899638535613 3.498334234194576 3.578158316644159 -1.7048311433458512 -0.020997942407905774 0.1059307357965595
Ni 4.36239517870139 4.252735510233471 5.715024366872495 -0.33883694387511964 2.3302206198700772 1.2878018101297048
Ni 4.682544541744715 2.4726178777011487 7.39331302647096 0.06543611811662278 0.11620486402905794 1.945301022704282
Ni 1.9306143969172438 4.36710930979213 1.5842398736512693 0.09627341521245356 0.03809552132014084 -0.7327716000553315
Ni 5.632591611484008 8.556063748780058 3.0501466388337404 -0.9322066729596398 -2.675728805117785 0.6190614774236693
Ni 4.306957371211681 6.373421053767618 7.1758924367800025 0.04501667392000634 -0.3033204961360647 0.0834163567441273
Ni 5.602323896782354 0.35769592063151257 5.611735322781366 -0.12586269883379614 0.7397675717571904 0.6881305643071891
Ni 1.0634855258275668 3.8531100125115465 8.250383213880117 -0.9771007052588528 -0.17506564292100818 -0.846592023012613
Ni 2.170595471113883 5.204634560044126 6.484043190666563 -0.4831660769442195 0.5005395352256605 -0.8461428512903364
P 5.711207230169854 7.384929542945899 12.427794579100027 -0.5207273230274452 0.21360030866109664 0.11834685007272522
Ni 1.5043316102893514 7.491352923006287 13.524366944848987 -0.05970435783916814 1.634306297852411 -1.2719722992966158
P 6.937124503064453 0.9348692512453584 10.472029731607606 0.4222198762781503 -0.4127764714770633 -0.2236461229328729
Ni 1.2581959760575798 8.087540851029587 2.1867376287257847 0.03158265990228754 0.7061575970122289 -0.1326547820549651
P 5.6873092045015206 5.844914579261367 5.196362382392042 0.512509305993027 0.8685045068149883 -0.16702451778408653
P 9.130271105249314 5.562814988593298 10.625532689906343 -0.039173584875668015 0.47162902283889746 -0.3682303094355723
P 2.454331912855125 4.018338436555029 12.44778193371868 -1.7118669671467097 1.2782596749672244 -0.6122817354976745
Ni 4.813604868815038 0.851125144311392 1.3992925385651336 -0.864047499484899 1.7119919227603484 -0.4185635104724856
Ni 2.258340042070685 6.919371683996548 4.11521850718708 -0.3954935160268995 -0.6646597348787586 -0.562522147576044
Ni 7.96522598540736 5.353391585574132 4.837391588610395 -1.3831951367300501 -0.6043354840674043 -0.08469085258117673
Ni 5.619637104419177 7.166844859390969 0.996137989929447 0.36844062567416547 0.8411896210501191 0.1667784632115515
Ni 1.4050355474732963 9.10874885199576 7.497217526565601 -0.603821006324831 0.029763347305361648 -0.011466605878702832
Ni 2.8844309008421876 0.3238187154776439 10.200330224986747 -0.256959392373022 -1.0561873242793747 -0.0062804336920730544
Ni 8.459863672850977 0.30811429860988243 3.6336559861159734 -0.6563391308282052 -0.6495874139266684 -1.4075213721802404
Ni 7.03071497071116 7.749909918524771 5.456275625942583 0.021772358680085084 -0.15704838040798114 -0.3823245827451093
Ni 9.011360889859288 7.192566804826553 3.6808169392362475 -0.38942288435278744 -0.07526904504664457 -0.5504826999130068
Ni 6.981291421736025 0.36899861112764304 0.9659235898056054 2.475249864329995 -1.3356886065086544 0.7110984859572721
Ni 4.141476404431194 5.899884715015884 13.293859964663877 -0.21023781994676696 -0.14841590154396375 -0.879163529190731
Ni 7.8308077752783545 6.783073433492068 7.59027952515154 -4.81708621406213 0.2907269757417703 -1.4292430801280482
Ni 6.686349565219572 5.217317817502544 13.748699722786089 -0.26215816296514205 0.3317705239466415 0.053996508821113454
Ni 8.016295738890372 4.609812233487589 1.8903141881522425 0.7704074081302346 0.30078204598492714 0.7269825041773803
Ni 6.282318599752135 2.6024903185640844 5.921040313629049 0.8322020728395281 0.308695644405049 -0.5330925294610173
Ni 0.21160555933557426 0.5321234477062301 10.151362188281688 0.3506534768940735 0.5729888514353229 -0.518793596339842
Ni 3.811113090691267 3.2699607724654127 -0.04145535795092664 3.5479662966126444 -0.08443348515473201 1.908760247465771
Ni 0.28175819030137833 6.815006059571007 8.510707073214157 3.87395003867418 -0.1501709365618575 1.5551523159290634
Ni 8.46764573052458 1.5274813611813762 12.044359876850464 -1.1943267835979947 0.4894267131419507 0.08937463121009123
Ni 4.4300953390878455 6.311585496940477 3.2243758730927365 1.1018686283665733 0.10670026697273237 1.7528716916938458
Ni 8.378180127582269 3.5265348398266787 6.34481825044325 0.6025593660035882 0.32705100698378514 -0.35305951523240486
Ni 2.318454566912319 2.1481565812593506 9.07518779293488 -0.57611042778344 -0.23860248713238907 -1.1113187180358794
Ni 6.657737408460499 1.0092917251534692 8.003147615727174 0.2670679415619336 0.6855602324768516 0.6235526804258036
Ni 6.851250619048421 3.538245340075897 9.27040239329543 -3.067600665231698 -2.050857405880558 0.8401326405405143
Ni 2.2385668811067494 5.577902078770606 10.976932813638696 0.32939482462561337 -0.5885360551413026 -1.150866912642147
P 8.77113662636035 2.1982255172290515 2.0841744111676754 -0.027522888010617117 -0.47233041978129614 -0.3934515458962063
Ni 2.0179474167470763 2.1182255902070355 0.5981989164846265 -0.7070212305641049 -0.83437362656955 0.7175023326010869
P 4.763348864151261 4.4955319682759685 8.868281399194519 2.792794731595558 -1.9951218028811513 -0.5633415581535459
Ni 8.197153752323986 1.024294634418442 5.924749885832594 -1.0937755669457936 -0.7102297101990735 -0.18947976146380915
P 6.115266255941402 2.588750122984131 13.152349044998942 -0.18291290687956885 -0.25984314167872025 -1.0574749327425466
P 1.428250772408248 9.348140659806056 11.98125038221666 0.43352064600295015 -0.09316443726982665 0.6939363723556888
P 2.3862856753846278 7.538185570568456 6.147084770116954 0.47189101825103247 0.9371853571211536 1.6662422273290594
Ni 3.317513634499778 7.5923980781119615 11.153790363049472 0.5095687353074644 0.2130729754027169 1.572864388496846
