# total energy = -340872.4666127153 ev
CRYSTAL
PRIMVEC
9.20413419371450 0.00000000000000 0.00000000000000
0.00000000000000 9.20413419371450 0.00000000000000
0.00000000000000 0.00000000000000 13.47118076064153
PRIMCOORD
 96 1
Ni 7.9005527022799455 0.6984409997182917 5.731246872153664 1.1446654118171256 2.3798796776581015 -4.06503622539316
Ni 3.226812992093631 0.7449421266943728 7.6843788831840225 -0.5236650654995304 1.686638017376592 -1.0317083653014039
Ni 8.347496256539777 6.560734494266169 8.30519865766828 -1.4092095585159408 -0.1469449734253921 0.5520474732969654
Ni 8.049613656196582 6.056817349099022 12.526352679309433 -0.0660513831031185 1.4850632724214616 0.867018666298081
Ni 5.305410238518817 4.612605850605314 7.52644330303914 -0.2653638143866333 -2.423623655513271 0.3568858309570305
Ni 1.6929716344310308 6.552441569321503 12.331626333805145 -0.2663837710107155 -0.48540345091517045 0.04245045585472689
Ni 8.959249038390304 3.73029754295179 0.44721783745999955 -0.36760347448485076 -0.9951652760700473 0.578691558247055
Ni 8.893862868793281 8.512618424694422 11.045088097630655 -0.3395537674364862 0.2639461081035002 1.5080448209182997
Ni 0.9422548339183626 0.6372924135225171 6.677462245032837 0.38885904142951744 -0.8101561487830822 -1.4085390148114774
Ni 0.4212226011434353 5.9894062699705595 0.967572645955318 -0.9431534017791305 -0.36764075548068936 -0.74873198003933
Ni 5.904111558025794 7.432697355040886 0.8099481655475393 -0.9424779729786606 -1.3282732878811898 -0.36245046952900156
Ni 1.6976841511587444 7.289609884241994 10.008386881098845 1.6018258087262027 0.8991862521695612 -0.055843846442497375
Ni 2.459657607839369 6.85527599388249 1.4364450500272143 1.4872281412832644 -0.15220287939022173 -0.46127673307029593
Ni 4.152454363719958 6.776111235337446 3.5019954361759678 0.17917529421400755 -0.09117003254761719 0.16258705083802322
Ni 5.5194063594550204 0.6227461997793955 12.608446193367676 0.05248290039006445 -0.6457520993409782 -0.21509026294306183
Ni 6.578636535350941 0.27396197588293253 9.917079108259129 1.5850778998439023 -1.7523117054253177 0.8896816551132355
Ni 4.385208510224675 4.385567471459795 9.94780711039872 -1.2833149780029447 -1.2695580334281684 -0.1251517888097006
Ni 3.8875225639338207 5.694091623078599 13.062128094300085 0.772251917538141 -0.14507938097156303 0.7276445632414114
Ni 9.340171337790979 1.2024373004398505 -0.03817506714817189 -2.992335733950111 -0.26842188448666676 0.08917768470793674
Ni 5.173220462652764 3.7304079925625957 4.951722972316001 -0.999903047865349 -0.2239813947851046 -0.5116564710744286
Ni 6.662513810623698 2.6794891498798106 13.537054977870987 0.47224248805318025 -1.2942843325302549 -0.7667471856698279
Ni 1.314313552051874 4.729571988448638 6.01081416578499 -2.043141011072907 0.1953526753048184 -0.039227835152371146
Ni 1.9369824371037054 -0.13999396128290567 12.795372035108807 -2.114461870105081 -0.5737938638351214 -0.44879197033972384
Ni 6.463216692058898 6.086288986915697 3.1749421732055425 0.25774717838163996 0.0338233763073482 0.0883472183868414
P 1.0385945069437061 5.878063858144097 8.4437761026926 0.836216850425876 -0.988806423731555 0.1245501506699597
P 1.120032686644503 2.0405381513683603 1.7235698582779262 -0.403510215683789 0.981618390623548 1.1050819930975484
P 7.656670757486544 1.3989271580633371 11.820314587194552 -0.28901153571256033 -0.11642417912871561 -0.09755768124151586
P 0.20388906113405073 2.5906876627919617 5.719688320382839 -0.2717761456708803 0.6479611911771551 -0.41615104437625106
P 0.7053174084043751 4.4913689944775 12.220259991229675 2.277772686483006 1.2238875279742472 -0.7736845362196095
P 4.125882028186933 7.945597735220237 7.308533584226718 1.000203352714587 -0.8603014021789055 0.5872877845564982
P 3.6334976632147553 2.974711755429433 7.91274265765921 0.45819886547592054 0.2170108770045424 0.1776179770292167
P 6.884876489578439 7.147755767430435 10.141482343773507 1.9662539708068654 2.093493238273214 -1.5836411673973758
Ni 8.062839997090574 3.9504236172877136 11.48940847363385 -0.6072925098131993 -2.6091287486000483 0.14040023032833884
Ni 9.074181062567954 6.020654305694362 10.458917286469594 -0.9499524269788348 -0.587235334052008 0.22282234147999688
Ni 3.0060610366298075 1.6830771901296797 0.7390091417672555 0.2685257570543827 -0.30308678285870383 -0.33725211588650306
Ni 1.5024644640595242 2.2576728820782943 12.058538750674426 -0.0320508577879577 1.1335284213636994 -0.862086004883154
Ni 3.800110901115278 7.969675750375897 12.430195248141919 0.6121043293795458 1.996683233831 1.6835164410284746
Ni 4.15429519056672 6.017119918148577 5.815414077654786 0.6717503231769528 1.2215349685816705 0.5483152599480428
Ni 3.4055296665116206 3.582055756981962 12.001124281737312 0.4117462304403361 -0.4922682963558038 -0.509619900260374
Ni 1.9908082141030565 4.216377075973804 1.608782339007747 0.5283539863347675 -0.008578742807946516 -1.5742592119618437
Ni 1.0620282327029997 5.782101554622339 3.3726985196996018 0.22731945801940204 0.40169913061697915 0.3506635041964025
Ni 9.124371206544948 1.8647115750997887 10.16497589640532 0.387862481844203 -1.886211415630977 1.408772470978522
Ni 6.548732303225274 4.941432750242595 0.5811278660143534 -0.08744398984628167 1.6240100581327257 -0.34913292648448907
Ni 0.9673360997055089 1.077905364256331 4.137606254373966 -1.2590373364025027 -1.104509151313214 -0.6609799720343262
Ni 6.107421679116538 3.7909988082238013 2.525038254955852 -0.6967555869720388 -1.5728031962416076 0.5230811679716024
Ni 5.8457389387149385 2.4719543311757457 11.016084950246482 0.1964947593290616 0.5163140244510979 0.004710775212108016
Ni 6.441301648448183 1.5740542201301386 3.9121519067300867 -0.8425060258686975 -0.046912348280822434 0.3452276778928119
Ni 3.4792271693217787 3.209141054364706 3.0584297991799456 0.6454762199717722 0.93907768904786 0.8707485656541584
Ni 1.440971643243405 2.625746210088564 7.644073058960721 0.9874828198241252 1.6768809379898282 0.7363644596129124
Ni 8.393839072407037 1.9037647166538665 7.720616480075975 -0.5331588639225786 0.05154933283220155 0.618274976966632
Ni 5.902325955984433 8.453104492738573 2.867206547165048 -0.04370181176332474 1.2936600686826947 -0.11927039032825909
Ni 2.253521817538844 7.938805084155682 3.494760986668189 -2.5712612841303137 -0.05405384442161014 0.15058385572956
Ni 5.339088165680347 0.3408070007560154 6.3662106397150255 -2.1945918427884523 1.0890987302954147 -0.2808778508618324
Ni 1.0273102383730488 3.430150725587076 3.600267056976989 -0.401994807480527 -0.6143373324751226 0.21538234026218392
Ni 6.465609766959689 2.4281518563570197 6.460576025947216 -0.3643877957610305 1.0938215896923809 0.4032857583778086
Ni 1.1832190681596442 9.032688825441916 1.559922192427539 -0.010932587752103751 -0.46946466819772703 0.9210072046993946
P 3.795913815904658 6.61561874670241 10.974984809238803 -1.2472192607216521 -1.4816059100004806 -1.0510425468536415
P 1.6710842032230184 0.2997142230557241 9.990389117018044 -0.9254996932531093 -0.07217549372298537 -0.010043500278931089
P 2.830022765273858 4.870155934735931 4.639770932382996 0.6425258790941967 -0.7361052924142548 -2.210424696055651
P 5.634200321619163 1.5366946392750829 1.807859478764359 0.04248876529183005 0.9346877875102806 -0.7023996726316936
P 6.316070198062894 5.453099776434616 5.512070664470669 1.0794609500953345 0.323197694675966 -0.40506933264079265
P -0.3732451310362503 7.994462483867562 0.01657664575510116 0.5464879769313168 -0.1243143805100698 0.11382813626676525
P 0.9541925960196208 7.416672957339814 5.4743107037764425 4.186311819076907 -0.5780930054311076 -2.5674465383699134
P 6.973355831968105 3.413472834355403 8.519053955350705 -0.9686996256793511 -0.22799257282702673 0.34438538449717465
Ni 9.02111922871001 3.726404194170886 9.133110531999955 -0.18687266285826526 2.9593973313508775 -0.7840792491903722
Ni 1.8540715959254983 4.641111054327439 10.191810549764007 0.5534268701429953 -0.45051769478157894 0.45322172397630334
Ni 8.15865503446459 4.429627662037068 6.794540673313813 -0.7719048186113674 0.046536710108958566 -0.32704869299093997
Ni 1.983822276219591 7.958152174315161 7.592451672110369 -1.189814497549938 -2.1801311872784326 0.28886112617762516
Ni 8.59077993260798 7.485796005435765 2.3717360359842727 -0.718226355251305 0.14733063889958498 0.18370994885956748
Ni 3.790529397377876 8.788678022769242 9.60869735199542 0.0993710803011708 -0.5534168428406663 1.1674973221099763
Ni 2.5629648104797105 2.4739148117675485 5.393227803657071 -0.5068742191944368 1.1809398207681274 1.1352567169087158
Ni 2.858334682177074 2.1312172818399073 9.853616602716972 0.06679211792388497 -0.11244334010409666 0.7705202795590149
Ni 4.452711630695476 3.5743611007624927 0.6452401834334164 0.23427274940878365 -0.1636329756040343 1.070368500875763
Ni 3.105502502891947 8.599385798116598 5.474337395765721 0.22368340392871153 0.6572071352554552 0.2723865255613696
Ni 9.104333806317932 9.011528520838374 8.777107505623912 -0.26460970982942816 -0.4810603434551264 -0.8483802252612872
Ni 5.082467699107346 1.5292208822772249 8.934787210837094 0.32940279504541337 1.861509799119239 -1.5786835662817844
Ni 4.4877057490524415 6.49427144096379 9.01018563765366 0.26583638314767766 1.0241513788897523 -0.9548737755398523
Ni 3.1368057634211524 0.8552840491296194 3.0376431824262977 -0.21806117264592764 -1.0352685718488364 -1.3797205479178882
Ni 6.365993422147107 8.040142602069986 5.108810851697949 1.0175197325058476 -1.9945793001141197 -0.6459001948830683
Ni 8.307798825589332 6.267997004959677 4.761860091340861 -0.07990397271549465 -0.47544608259214244 0.2068776452252824
Ni 6.521405228685078 5.09886026217777 10.254653617072227 0.6306460969374752 -0.21523578738199062 -1.0331620670287949
Ni 7.199648676240685 9.287431648631218 0.8533401359794376 0.852510445379577 0.5760440933218789 -0.005276932128223171
Ni 7.886838542271561 3.7449321163835556 4.240296780020643 -0.21633313421122743 -0.01697365173986109 0.768724878221489
Ni 2.829525742025232 5.040073456826392 7.685322306942987 0.8557860308070552 -0.38548086898590384 0.8595023033163778
Ni 8.596707395054556 7.932813192769467 6.464119617627236 -2.0580336119140235 -0.724030620637908 2.17762230481365
Ni 7.986795440050794 2.078744512572927 2.0612658616629123 1.071714473380696 0.22949126885974022 1.069464758114571
Ni 6.233591951193676 6.627915470038787 7.355587879670252 0.26278011281985714 2.2348136664229767 -0.8231358488722017
Ni 5.880171604883641 7.104910522572025 11.956225594531338 0.26780739083111943 -0.7501345168138114 -0.1504182766859732
P 3.4528205082049634 1.1010445577201422 12.048597365288481 1.062370570271951 1.4653246563419537 -0.7390792874409142
P 7.081283509993821 -0.0022826252899861674 7.391811670360855 -0.42288399222471046 -0.5910379956275498 4.504495091257416
P 3.971768004575931 8.469147298708114 1.5497516240991729 -0.18105168530111398 -0.21302746687676213 0.3587629933750853
P 4.189316921326387 1.5280519572295304 4.64740944338364 2.928855968228911 -0.46442479178097434 0.9364459078519679
P 4.537748626881695 5.450918396621201 1.8802398699656582 0.3602344357142893 -0.9276177680373766 -0.9034072322294441
P 8.200009209577122 4.753189796892607 2.283459184547751 0.2714642708574163 0.5908785872315501 0.5954777765664584
P 5.624351897988981 4.397385579816014 12.131256013188683 -0.47990437547381226 -0.4382787295132258 0.4673753897688661
P 8.097898544387178 9.104692767553052 3.6355621505234 -0.7171914862288873 0.7036805962266461 0.17930076404827833
