# total energy = -340887.7348953038 ev
CRYSTAL
PRIMVEC
9.09664520687041 0.00000000000000 0.00000000000000
0.00000000000000 9.09664520687041 0.00000000000000
0.00000000000000 0.00000000000000 13.31385976324687
PRIMCOORD
 96 1
Ni 6.752758050232315 2.2890615830377916 11.324875611204053 -1.7117155291705102 -0.8823275287410095 0.7499915634780439
Ni 4.42828322776818 0.23164424848290308 5.908398354164349 0.524004194006504 0.8425924149349168 -0.7059051146817907
Ni 2.4817831064096145 1.5589466529486191 4.782498401502143 0.9650113781944863 -0.4663790872938678 0.40638805145221624
Ni 3.7499827882447536 4.733475671321689 5.028964723532768 -0.4458701687072386 -0.270137838736509 -0.46632637967906143
Ni 3.6600897412344473 3.31995708380049 3.2408726705138884 -1.000305168399774 -2.402884108973075 -0.5740779707344436
Ni 4.8293270208812515 4.606340959217253 1.9167832011022137 1.6404031547787683 -0.1442607417250096 -0.07393618516783396
Ni 4.937176845345347 4.543319401871837 11.163817690142844 0.6983005628616554 1.1121108749198718 0.1455419224302784
Ni 5.639929066933508 7.965277167328526 12.401740098382646 1.6481383186394971 -0.22971238373161085 0.6459544451597714
Ni 2.20976612758456 6.860671551212205 0.026695924414202182 -1.363176270405962 -0.6436239972543819 1.1833052356765106
Ni 2.7460588402431925 1.5492496292577684 0.34151352816216635 0.9511940126954197 1.0779447705611243 -0.6575159247451257
Ni 7.851287107412907 9.133850391882055 6.837265883335507 -0.5293022091806497 -0.7173395817709775 -0.07275527748585534
Ni 8.606363231693162 2.3941915106129903 1.3620479501407379 0.6317614414888411 1.2283373362154844 -0.06963010159331234
Ni 6.83813916126639 0.7961292836768871 4.3448315151626495 -0.323165812996766 -0.21406182167854748 0.8511511031382051
Ni 0.8162292307193859 7.690403841937874 2.691343429550793 1.4554053403457128 -0.14792456372984203 -0.5775602728560892
Ni 7.814300148381951 3.8293965000844596 3.7837586315506906 0.7846934857356035 -1.1629454410732358 -0.6316526838251186
Ni 7.764141247226838 3.9637994316344773 12.883782238914174 0.8728159897061485 -0.6727515107479575 -1.2507933512261555
Ni 8.032574147877225 7.3609688391572385 9.142001895568145 0.8717880626622663 -0.3016785896572675 -0.23124424699510499
Ni 6.929997083621185 0.9091314479331944 0.15441646046393956 -2.079367340394793 -1.4239653766688767 1.4896295516359055
Ni 1.9707881638112592 6.567577645659475 9.13075116489193 0.5900442642557128 0.5728212155092071 -0.8408970295103648
Ni 0.43363070490269123 4.771417778089549 1.4207622460249743 -1.6187027869871995 0.33336229391379363 -1.2772680004779164
Ni 6.413835246598436 2.283894688613399 7.282055442798768 0.92587687408687 0.338383658387785 -1.3271263187609403
Ni 3.475828097818057 4.270738431049753 13.144507552160006 -1.424989961278649 0.8090325767016002 0.6210448264022852
Ni 6.344673453801497 5.606580765947899 4.480619865763433 -0.7446948338554789 0.8376314713852154 0.6414622137163728
Ni 5.258215644686344 2.9262906698743603 9.309423829550667 0.7633546150485112 -0.2611027251174342 0.026638685633450895
P 0.1168882510487383 5.598957777342896 12.45936279685328 1.4045610040003358 0.3498816317250555 0.34340759396493764
P 4.064999608520701 6.381132807415877 12.409169328446737 0.9472188300977556 -1.043637512638822 -0.37698671547196366
P 2.6617329400422673 8.794754751991022 1.5443674598254236 -1.9577009390305318 -1.2466536180261691 -2.191303401845168
P 6.4260611376308026 7.836577832264591 5.482500707272532 0.6767074100719119 0.8383932892519046 -0.3365383776489301
P 4.9854527409619935 1.1756322211615025 12.546835226598919 -0.46643333757057087 -0.3772780214601374 0.4403690363833513
P 4.376214031139259 6.263767892163198 8.047681856081509 -1.2547711049269807 0.8147157431293065 0.8355043977398837
P 4.5108443788171115 1.2835366254962781 3.720345008800888 0.6466946657599056 0.17293445551061828 0.38021036461558394
P 0.6177304280360632 5.575379273209046 3.4437233082194463 -1.018211873476866 -0.10387616726037595 -0.502903921692779
Ni 0.19540321435124347 0.1142775139012016 4.755817031720122 1.2806312605231944 -0.3213439292966788 0.2235841593466859
Ni 2.0784196687926335 6.5598000140875445 4.718858272289018 0.44354074924311354 0.6665284126563811 0.16183551738397936
Ni 6.1644780107507815 5.539320171979654 8.997706362457338 -1.0905362340728895 1.1942059417494142 1.2625476635486064
Ni 8.645651641937802 2.5959005193568205 10.165025159649733 1.7276139455683213 -0.3029507715014718 -1.2531965613510094
Ni 2.643985385426086 5.505489748803037 6.985555753315594 -1.0493731295710185 0.01623908756668171 0.27995713881977596
Ni 0.5482284207118834 0.06286145639142084 9.032068939373087 0.5946223705446985 0.3233930985162237 -0.1168854350358503
Ni 1.586673227254166 1.3243714654101888 11.103612454124526 0.14237123801178062 -0.41348789572179107 -0.7896451733139239
Ni 4.449842276686863 6.855122597693049 1.2691193526561007 -0.23463578917515718 1.3534981238862498 0.1371387859682477
Ni 5.763752600216678 8.12356788894625 8.14705724595799 -0.11163678504240128 -0.9679624904030103 -0.35806133932237044
Ni 5.423392526654887 3.095579235434146 4.790313329319037 1.1871690895072908 -0.7067219541561313 0.597450584022113
Ni 0.6715134326043423 7.589167278471197 6.679110701729973 -0.2670576571492884 -0.8711018352285191 1.412257087093013
Ni 5.371350619961307 4.8314374425475535 6.794488909689893 0.22937299811432113 -0.9577685805891442 -0.22153267613429592
Ni 0.7552671538276364 7.167492294241007 11.02065377968414 -0.10657916801383581 1.4052323190357476 1.060676984619612
Ni 4.717647508824428 0.6505684072308117 10.306272406983048 -0.15278754824909815 -1.3594088329437297 -0.5111553630682939
Ni 8.655385052209105 6.953184432015161 4.604158674054556 -2.3254761632065564 0.8384076874296077 0.4102624468059579
Ni 7.242557809716522 6.517455131084815 7.05071411259814 1.1867880520187883 -0.6237372856327839 -1.5329752656113922
Ni 2.502150494818446 5.298786681891967 2.361545470630134 1.0048943304323532 1.7149288939014853 0.6583798154073177
Ni 2.4718040867202493 5.372424024084683 11.200883789986285 -0.7188696452622587 -0.33504148138842943 0.07551895627392155
Ni 1.331885294273831 3.558825887832431 4.087035321643324 -0.5805201268153615 -0.15010460210029636 -1.74616239799447
Ni 1.71925682978151 1.4410723255695919 2.5803461658774722 -0.32644062709329585 0.3965335272556396 -0.5437893470532312
Ni 1.1344971919588507 3.539286294128915 8.051156774514814 -0.17138176631151775 -0.13885242622524474 -0.19062081704678785
Ni 3.89783056127233 2.774467662932242 6.875050618142906 0.29991044201325123 -0.2643538850648802 0.25271295839184216
Ni 4.425445074492809 6.913777765384049 5.640896040309059 0.01320955671173854 0.7382539633261416 0.5718431678666538
Ni 1.0975921027339153 0.002728993534010513 12.918650589298226 -0.17517080104030477 -0.1999158691954686 0.8723580762331234
P 0.467063604687854 5.61435839751983 7.810375855680045 -0.2791104745487644 1.7210514618594555 0.4892444219278154
P 8.656931481878377 1.7916024483681288 7.808525598063985 -0.4144253199343959 -0.13403237912878208 2.8132098049168
P 1.6325930917864495 3.50500103869663 10.305393671065097 1.0314111457759592 -0.5475395581242828 -0.04246793935622364
P 4.362132424503765 6.218812272012931 3.4746373469727176 -0.2906290167113253 -0.04635853265988145 -0.36541572280491263
P 7.1028879206458635 4.206843595773454 10.381655395373022 -1.1999006781413464 -0.6064828694277103 0.5373772728793004
P 6.562510814331329 8.162456046805898 10.381348838432702 -1.4088565460518963 -1.2843022816168785 0.5101685736749924
P 2.2754620985933065 8.619307757689485 5.8081978985760845 1.0700517409662926 0.04270730906053936 -0.7321457935458746
P 7.08888818381639 3.9666830681354153 1.6115762029165233 -1.3094188741788482 0.31154776914186344 0.33685359489650374
Ni 5.414732520506961 3.2103061236039476 13.177219087987677 1.1575952325049161 -0.7487355795837557 1.122522814281815
Ni 1.5397436351142986 1.298200417419028 7.0018251031008525 0.022619022951096527 -0.308101719574792 -0.2583573011618131
Ni 6.916715981755667 0.8167577458004726 9.31052816226743 0.9676197623516111 1.4190602260577754 -1.538635806331279
Ni 2.7500158808675077 1.9542322697049286 8.971277879409469 0.5005135670837315 -1.2898869747935076 0.7041786189089873
Ni 6.125780882438513 2.0280515447999132 2.33437197234748 0.9278535381972666 1.6844178697968215 0.30721083232940644
Ni 4.371929511290863 7.2128481667762605 10.251192220821604 0.13878274932957388 -0.7136881010613193 -0.22344146312123456
Ni 8.888222780530882 7.439645722742762 0.3949526795451602 -0.2901399928900487 -1.3954341019984033 -0.07138667927310285
Ni 7.849904417355675 4.215712824758988 8.248894188002149 0.11856076585574418 -1.3051256461201328 -1.846109919624401
Ni 3.4385864327239273 8.567511460413966 12.291328658654628 -1.0329270681998532 1.40675698321039 -0.2981587494294672
Ni -0.04567061645617728 5.134683204046802 10.03902297986191 1.512202551840415 -0.10964109476861117 0.19245735603489433
Ni 8.558624038138205 2.2622173833082417 5.775805654991891 -0.25908800868025056 1.313933217109434 -1.2048845045091832
Ni 3.764391874104329 2.4403933711437884 11.316806886988495 -1.3224996186222062 1.4817264947387447 0.3322698321805633
Ni 0.9588864580452742 3.1343946201328885 12.479279901328999 0.9547516481396912 1.6404856871902458 0.6838373362484739
Ni 3.321448933599082 8.527540801785825 8.040972170645887 -0.9967629595744704 -0.5924276768862249 -0.006796968317175391
Ni 6.102420697787383 7.869971616475766 3.0419372288651236 -0.30842799256595915 -0.16989361180176546 0.5531340214929248
Ni 3.3978061726806965 8.398177411628614 3.4571435887551987 0.19396402248740788 -0.40171018636057265 1.6159720183195974
Ni 3.4163997152924215 4.266099142041935 9.090131005802695 -0.3020683688965185 1.1986338956137808 -0.12925604078606126
Ni 7.359386022907512 6.168817110469859 11.438536372566569 -0.7075737606334653 0.49764832972079454 -0.13893264464387683
Ni 8.371933590476546 0.2532651545883571 2.086295544131788 -1.1589959695071848 -1.726593731833923 0.014765074124316508
Ni 4.7022286953572685 0.3881456600068267 1.6403870973195838 0.13906042847099276 -0.5730492723596131 -1.1698105436241855
Ni 6.339433786216197 5.617205647440314 0.3374573341061154 -0.721073594892113 1.3184089934926004 -0.7495580754850509
Ni 8.27056057733317 0.06731153518088065 11.203492707804799 0.7287408816293836 -0.8738637142443725 -0.19790423808207852
Ni 0.13794971347972013 4.943917459374353 5.69270052456518 1.0250597496366345 -0.13813740243609113 0.9994556759152851
Ni 7.5486235312009144 5.9512435526483145 2.443652699087908 0.9074196958229469 0.5896562847886748 -0.061184027708488166
P 8.831441521733236 1.7553978008169226 3.527134085921966 -0.29662560061439236 0.901811091386918 0.4182020133680088
P 2.098714284040559 3.4700699214612953 1.3812991801941596 0.8136487353173729 -2.18107041126325 -0.2937721903259973
P 4.834675848207913 0.9906337494909297 8.030094402419321 -0.03659759661837568 1.6177540499206848 0.16240553095483642
P 8.585732040576044 1.5793959111634712 12.583621149772869 2.0738600374233185 1.5941618644230415 -0.806604683986398
P 6.920309156575447 7.766106122571325 0.9986297005455806 -1.1998294585837788 0.12357030325519362 0.5497805316396596
P 2.084123265278716 3.5125057709151584 6.01970217477799 0.15443948203022434 -0.6957950228309823 0.45117692563213263
P 7.291706983264052 4.168828715844687 5.956154831345021 -1.8864235316417832 -0.6361081484933109 0.03359146280220021
P 2.540920396291622 8.627867700741165 10.172255173185839 -0.8760062145086719 -0.03542440224588093 -0.001667103289777774
