# total energy = -340863.7340253387 ev
CRYSTAL
PRIMVEC
9.28419762728694 0.00000000000000 0.00000000000000
0.00000000000000 9.28419762728694 0.00000000000000
0.00000000000000 0.00000000000000 13.58836168861461
PRIMCOORD
 96 1
Ni 9.11141876812802 4.746397520359041 11.051686105961096 -1.3178250959646722 -1.8940872188346283 1.4034037504674413
Ni 7.179785734143932 5.822686705629706 1.1593892535084527 3.66040706561358 -2.696336454065808 -1.5297665288661073
Ni 0.11577487357771449 9.012161410655397 6.073359114761224 1.8268968370310603 -0.18515850838063594 0.05218336687177464
Ni 4.075335711536562 5.600571560163893 4.366932864072749 -0.18271493193614985 -0.07932470317325693 -0.3094320083504413
Ni 0.9304251554088768 6.527793667370725 10.579069380601208 0.1750694995757501 1.3565513088902765 -1.6233166316101268
Ni 9.143959881021251 0.9580920645163891 2.602687415448417 1.9768016644157247 -3.117123197441858 0.853871844503478
Ni 7.682506470504194 6.464429018156372 10.344561688062674 1.1006668947489884 0.7714476764692908 -1.341540180193425
Ni 2.256858478962663 1.6717869091179616 9.426912517090994 1.7479102339235124 -1.2850008503458 -0.33258530653845303
Ni 7.1613658859327565 8.56634352191928 6.3009779326159405 -1.8302053325790026 1.8768286888644967 1.9380541113338818
Ni 2.895499869461843 7.491697639639229 5.167341186651924 -0.8254169315968946 0.08879844699164706 -0.49620105575130674
Ni 1.5038821939470353 6.431525821553344 3.343484689938127 0.7419036442635868 0.37729884739574376 0.7925628611813511
Ni 0.7075682025478652 1.9633478532831683 4.845379137160357 -0.25271064439899704 -0.05152516446248546 0.3423842949067458
Ni 2.0023229151735498 4.704925009290834 5.293985070461908 0.21844709523043668 0.48592847018070506 -0.944987626774392
Ni 8.137209336426851 2.8513163726690074 2.8757728062163253 -0.2788099125892101 1.0051514407484816 -0.2846817979889549
Ni 3.4481603051809318 7.473983390452272 2.7173324021676133 -0.3461884991441844 1.4674812976736404 -0.8362883270937597
Ni 3.4202705753289293 4.077805308121326 8.908815292521384 -0.7224226527208397 1.0197810177361986 1.0058968035549387
Ni 4.582707830938053 4.0686975101902965 6.038735556326778 -0.48723613324853504 0.35708483434171406 0.308417708153314
Ni 3.766868243383174 0.23231105136576993 3.8370140705881735 -0.22131438947590273 0.6254527256619937 1.0336158667367619
Ni 4.4380136099848375 4.736871933532093 11.779030578002219 -2.0893900147381177 0.9630624819982316 -0.48002573154302497
Ni 7.781485302046202 0.3316018319500656 4.3924783340087625 -0.37783029441918153 0.37118399274725755 -0.739388848261533
Ni 4.324031514980499 9.126180642450484 9.115466678319589 0.25960197220219167 -0.06419016152466364 -0.7800703851412953
Ni 4.93560018502414 5.96263670156482 2.290141399251093 1.440369529058513 -2.4820530032947574 -0.28244185291484264
Ni 3.3554575912753917 6.729112210017469 10.42318398775598 0.8766106808618902 -0.43397984502755577 -3.015191812612678
Ni 8.854311481579584 1.5943752688030495 9.848722399028079 -1.5418717967700735 -2.2599022339604886 0.5023745315518702
P 7.177557526699032 5.643037480384617 3.092180955363888 -1.728602791844152 0.38867417911222096 2.309999921947828
P 8.742455467845588 8.598374003939721 10.543359571037374 1.4229513335820654 -0.721319392354332 1.254697314266252
P 5.508620866271006 8.568395329608125 4.778428930799253 1.0415626323876643 -0.07795584785018833 -0.3545319860128733
P 0.7975060823821918 6.436316467559879 5.7178328337913085 -0.28358316560813746 0.9557703192121927 0.2298579081705396
P 5.095325522032745 8.651869551012703 1.2731884498183557 -2.244270698070819 0.7693404003183009 -0.6366046285137553
P 1.3557899566403477 3.605267498441778 3.5378113033067273 -0.6464103017502674 -1.5783554935184043 -0.07526698816411553
P 7.879266472086578 2.478147330834326 5.124810277047388 0.4317478703732435 0.02762110415137824 0.18064776499447596
P 1.598488168378428 8.719737036105291 3.553193362034689 -0.10813108588198797 0.3602979419623731 -0.6775489321366008
Ni 2.4334532031687 3.917309382704694 13.141290692010697 -0.24522513465522927 -0.46212056912782995 -1.0692816955694875
Ni 2.9844981884902366 8.307797184729345 12.93213907177536 1.6423672204836748 1.05914100759106 0.7665810924056088
Ni 3.7842018404649616 2.377274522964151 11.270282540503505 -0.42386409674979264 1.2493309077480161 -0.2512957663293414
Ni 7.5812622947265345 2.7644255665155817 0.22883597617149412 0.4135488308667136 0.9422653427472224 -0.6232685735264814
Ni 5.760101929021068 5.2927725542439745 9.413405866295822 -2.8751265970262545 -1.5471407584784966 1.2939524031121328
Ni 6.407377623369237 3.25043474703909 7.536485537701495 -0.3573123769714879 1.7702024696628094 0.026545097478380086
Ni 7.4766943761769 6.975032038352967 4.83090692980573 0.48076620925347524 -1.3941356949019539 -1.4960526815534299
Ni 6.975189869713648 0.7789803943173831 1.394451212648906 0.9919215723217691 -1.2872065997478668 0.8701219878137532
Ni 0.8374541281901796 2.6812484394369904 11.334337934025775 1.5562038971220296 0.4885399396616231 0.8888786995959659
Ni 9.04877828633326 5.037225012906969 3.682486955864568 0.09759341957545772 0.0026312669752599845 1.5740272984566956
Ni -0.23013205016861116 4.375187444236335 6.510876930765088 -0.528402837294832 -0.006623675964104722 0.36464593451842364
Ni 2.249960320081159 1.273754785877268 12.69875848083604 -0.8186040224401192 -0.11925084994423335 0.8235739648508849
Ni 8.199097798208959 1.8263595164102342 7.595961964924496 0.2397718248501419 -0.7443094254916021 -0.9681838623851972
Ni 5.108713335097521 6.852749870616376 6.217775738203594 -0.7260597352527948 0.5745019456457396 0.6079617679660819
Ni 5.031245989596487 1.1998154354973256 0.257122141264735 -1.150548867181096 1.021907320050582 -0.851270916545521
Ni 2.5610273635869305 6.207173184444943 12.35332876485083 -0.8928803645561912 -0.9660696442556717 1.1978666784304532
Ni 4.21100569233793 9.133218064297294 6.520266968305806 0.30967446337855054 0.845574380381376 -0.06090403457422414
Ni 6.098436661133807 7.312354792917815 8.817325094833777 0.31565947731739186 2.841103703113591 -2.011170885924214
Ni 4.988223017514536 8.081169919187609 11.331742072352467 -0.21967762520342815 1.8944397170780403 0.0457887761993405
Ni 2.7261839562424797 4.510996688003011 2.3177943820620746 1.6086037508799844 0.8573518326322784 -0.21233609723669236
Ni 5.908584102630614 1.5710812168061543 3.4189401498003704 -0.6609102951386553 -1.4840834250066957 1.6481210922483167
Ni 8.092078851469934 6.784678133174671 12.6119837271537 0.18346929360367112 -0.7327733998275445 0.6017677233402281
Ni -0.08583147919732903 8.51459340401147 8.4901443978223 -0.6265778404053726 0.3451685425201023 -0.8479508510333525
Ni 6.821982039481377 9.017332708767103 12.608709190629467 1.4376495590241885 -0.5489811756668158 0.8112339552282932
P 3.2191748534266758 2.3925284597640313 0.730501099254733 -0.15601119739271843 0.45633301591177533 0.1555694818696095
P 6.4591463096724215 5.313374188911616 6.057311379059097 1.293770883228946 -1.8706490424163458 0.1549822419075718
P 6.414702855344347 0.3851920778394557 7.977781093744234 -1.0729380613751522 0.37726825126812447 -0.0007736449412309258
P 8.418037748065789 8.369193584034036 0.5434245158599771 -1.464968815664432 -2.743300224409856 0.44469106079747284
P 8.197231674473855 1.77548211308501 11.939101287164785 -0.9331122154930446 -0.09604638680331201 0.24919954592194507
P 2.0616860751847694 4.535989748176642 10.680656143273518 0.5327009504495536 -0.40693826752873136 0.7404360585791248
P 3.9641852968267846 5.677593264175947 0.4034475957515703 -1.9186895907643406 -0.02235857020085827 -0.4009771648492901
P 9.095449948106234 5.636065047921617 8.602397775217304 0.6562735676975923 -0.968351498311313 0.9194622288097778
Ni 8.816478376004714 7.260827495754494 2.42499251381646 -1.261233315612557 0.3270420081227206 0.3169905374239895
Ni 7.568747196244344 4.161121698165224 9.233821630434544 2.6647059716447203 -1.0918976331967905 0.03645078662786625
Ni 2.1753153706769983 3.244808523240716 6.960298945043332 0.5141275583227404 -2.489616160353996 -0.511387533683758
Ni 2.7486424304475374 0.5423883993980985 1.622681859131202 1.0533580823606956 -0.28550712210372764 0.1414816363179757
Ni 5.857910951654506 1.4867992702027997 11.628335980083843 0.860960118808827 1.5340862392873837 -1.091326591184669
Ni 0.9581663380978859 2.6695410661535766 1.4821237482475835 0.8301870992920283 1.7283598225954107 -0.42813469910068847
Ni 1.912869670458489 5.455747360443058 7.693526813158763 -0.579783248649337 0.8420136596133111 0.07031452925484664
Ni 1.9541750659683288 8.548787104093002 9.661909486847637 -0.6276553897402674 -0.27376823640024467 0.4273947356108704
Ni 5.356787097296423 4.0318021085818225 0.2603502568005343 0.012921336047358392 -0.24061411824577913 -0.5022814576174317
Ni 4.31301117232593 2.2106138902832946 7.736927652086577 -0.5822800469292617 -1.6869763745526172 -0.6849038298397753
Ni 3.7278189079112964 2.5126102726487844 2.8548063025795822 0.6530877137704431 -0.17886727605528552 0.8228121469841957
Ni 6.506672117632608 4.099270373173867 11.54198180055673 2.1666246681515653 -1.1833330035906524 -0.16967018293704972
Ni 6.115408174505799 1.5523642742689914 6.037091324916395 -0.3779737619755813 -0.7437697509380481 -0.7457996368838833
Ni 1.2066950259834552 8.305541124691384 1.1663134081434805 0.6617687864842087 -1.7387149405774893 0.18120929392490082
Ni 5.796941625443421 6.920858744848829 0.20474626843281554 -3.2773597457698327 2.681201398196582 -3.3450908305682194
Ni 8.084660777517952 6.741228087999114 7.117842495595473 0.2877064437478916 -1.366321243792847 -0.028927224557311473
Ni 6.365422334021301 3.832776762763788 4.03389569516026 -1.161889746115212 1.3440624323946466 1.261515622739666
Ni 2.176020969701217 7.88263663584699 7.359891741915225 -0.006825250451949536 0.3054290578386353 0.6237048897329517
Ni 0.7854672632413491 3.1129822002818015 8.79186039741764 -1.153164193316756 3.7164884819881796 -0.5119958566917182
Ni 0.797527436036872 8.146474965718562 12.26727446490901 -0.5838759306614718 0.743423680452539 0.10429731395819457
Ni 6.322352940950916 7.863093399715678 2.670344149253509 1.3418065464809343 0.009616697154157633 2.022629778493433
Ni 0.025887128410898172 0.8215354428359043 0.32643703277674035 0.3709057993852064 3.031052433794019 -2.8028055788643407
Ni 6.838990689644116 -0.004856563810113988 10.01531525706582 -0.4647196973135738 -0.0643696245253214 0.37536512070814065
Ni 1.5835406101022218 5.701267968278013 0.8581931689835894 -2.019551396678425 1.4769992644664047 -0.15791972726934092
P 8.87840397457757 4.602260351267052 0.18985627218226916 0.5754596815733186 0.5058799736019676 -0.5263282141539902
P 5.121989737790051 2.9995385887433135 9.530496310685797 1.8626935350146954 0.2610798422992987 1.4097039816538561
P 6.030457765668974 2.8621510313698346 1.8365758475451022 0.34136202428981854 -0.06265778404053725 0.5061172864237542
P 5.9710296162739445 6.32533316840847 11.576808682920522 0.5415244622784544 -1.5591688932876242 0.6446938332797928
P 3.243313767413096 0.2842487100668589 10.993310784583782 0.5605861068955958 -0.1960640995495462 0.8275617458540392
P 4.162746432760464 6.495178280895996 8.27176614192554 -1.3952952624276937 0.18349371908370332 -0.630735828437804
P 1.0505533892820653 1.1566160636593206 7.631210349863282 0.2980960145123318 -0.48627659754874314 -0.3983695520231139
P 4.127847133654713 2.1638122497427004 5.187588164967917 -0.23135171910724672 -0.7091699014759916 -0.09660560174089168
