# total energy = -340860.5649183208 ev
CRYSTAL
PRIMVEC
9.35105555016759 0.00000000000000 0.00000000000000
0.00000000000000 9.35105555016759 0.00000000000000
0.00000000000000 0.00000000000000 13.68621501685527
PRIMCOORD
 96 1
Ni 3.8766857903307703 7.868146436152312 3.3439393252787006 -0.7114268158309683 0.11409295989237771 -0.27622389702958877
Ni 8.750063184648774 6.882180492850097 6.583452608214067 -0.17787045935965495 -0.7268436646066708 1.7554708198795899
Ni 3.314397470670061 1.5513494623410773 7.56153841702695 0.30918184001284815 0.8096408997095604 -0.8157557543580467
Ni 0.9860407517464005 0.33233838350277795 13.363315721741293 -1.6625930606122463 0.08935457660543321 -2.8724644768130596
Ni 1.2958692743939249 2.7688288382846897 9.140502481433352 -2.1658772484625795 -0.8267343648567375 -0.4310706418005608
Ni 1.7137211904445275 2.9798728103859777 13.823898221110344 -0.9477795876972324 -0.3778246379922267 -2.768111627026581
Ni 8.263032159838133 2.960497423342074 6.689671247901184 0.16621770561207505 -0.7301884127091877 -0.23326924784493372
Ni 3.5868404733361525 1.9118607059239103 1.2408111945793485 0.4523223520904855 1.1955719688590056 1.7381724378104582
Ni 6.148075879007586 0.7660609109872194 1.0221030973713114 -1.0210022917378094 0.5012406750577432 -1.587010855200557
Ni 1.7021632858179514 6.612206168842108 7.578549857234608 -1.8234644143107435 -0.8985326777459621 2.7808218755043983
Ni 5.080942773764692 1.711196405453285 3.0141696767281236 0.6582358336302858 0.3943205787647209 1.4534039936449679
Ni 0.1995066397968629 9.385747939110452 10.504279121036172 -3.1864527370756153 -2.803176331940198 -0.609657667611266
Ni 8.05842171393675 8.924806359209311 12.813458695293019 0.04789708079159493 0.13758718635957595 0.10461278831608435
Ni 3.1342400349616373 6.49216666909182 6.044612995383133 2.7395124752326496 -1.325396480554027 -2.6622729367231956
Ni 7.1439726432753545 8.46694127657528 5.977413505077338 -1.155377398917991 -1.737200560815492 -0.22549191789236006
Ni 1.3447659437243173 0.5666954721287555 5.974334202493575 -0.384639346921215 0.7500275589223019 -1.601797012370796
Ni 8.312284169278403 6.1400713754797955 2.7527496983126856 -1.0236297020583274 -1.3344164246644503 -0.9379901124106362
Ni 8.762836726493356 7.6053724248971255 4.374305950415794 0.17142856038905316 1.083834653682998 0.46048277641409086
Ni 6.444513690146002 8.11651047084637 2.2667379385540634 0.046433608872191 -1.3776541523071628 -0.5763893924764396
Ni 7.289241290827019 3.1782648043644848 0.44788096065199695 -2.536125873879761 0.6351843511274609 1.9598979466818507
Ni 6.185143463101232 1.8908488841634603 8.402911794091823 -0.2531680436513898 2.871635810264177 0.01624988619995911
Ni 2.3034548580655927 4.066867557559979 6.880566500666806 1.137914466246537 -0.5366460511402306 -0.0701944587372146
Ni 0.3724216830026304 0.28585802691955925 3.481869264455821 0.613976092480962 0.18793658534640534 0.8279708083669999
Ni 6.053714377723786 7.618772487461756 13.42631378280055 0.4149742504593305 -1.1478378960078361 0.967533887506024
P 5.442258208122513 8.199332769614642 4.676031783452535 0.7849539384858417 -0.009470144273964335 0.3921238282237182
P 2.3771411755877763 5.743053611134703 1.509795241807438 -0.7457862671474446 0.2703442983203602 0.07681247827436448
P 7.077636255394344 4.854478911105779 7.767706748778483 0.1896329992122218 -0.023317334569701777 0.19847682275609688
P 0.7781761385229732 3.4364193941912498 5.342154223641964 -1.5183857978329913 -1.1220559019477254 1.6927474727084395
P 8.881408110526513 2.667687821746627 13.128146026390356 3.6967480661364593 -1.0930474305305176 -1.6012758497600035
P 6.454538021666788 5.078380584551357 1.324855676304491 2.0860738058806914 1.3720360347894371 -0.06222146783406703
P 4.76021092037721 0.41074324364192716 8.832220623369352 -1.0587645980882476 0.3116490706064181 2.36671614369295
P 3.085137642409736 0.9267157852966247 3.0826689637516327 -1.9826961755232886 -0.8535113758402656 -1.0704708307815824
Ni 2.7639008320240057 8.562995318908765 7.117515701883792 -0.057269008924798144 0.453145105102097 0.8649805528221297
Ni 2.0035945606057144 7.569221244244745 9.878956271199666 0.5383506925361632 0.7415444611519552 -0.43935987839254653
Ni 5.025734141956193 2.564293200827493 13.418963853159378 0.5917769306761034 1.1760765791385552 -1.80325065836703
Ni 0.6921903776712308 7.17860895293299 12.191502225444834 -1.5062666459719545 0.7501733404715468 0.21109888239548158
Ni 1.6396047243682808 7.160645575273078 3.3181547247792507 -0.7747764837322076 0.07404365727997571 -0.22909120520784415
Ni 2.797443068185436 5.6144111403031465 10.928853510902345 2.028985545508131 -0.06732279361637439 -3.580124369402428
Ni 9.56229586738695 4.7195151267405935 7.622140737661184 -1.4656915527630694 -0.056937593727308396 0.6858610515467221
Ni 7.17654236966238 0.2196890229324121 3.8278704751834285 0.7133973092937779 0.05994758419822579 -0.21144726687383586
Ni 6.418255926237082 4.362323507868467 11.868480298559742 -0.6974405288542054 0.06852864099901747 0.5622035878943608
Ni 1.493877875095984 1.082422081023195 1.5667843145875386 0.10919423703917969 0.30012255802405735 2.7050432378111866
Ni 8.379003950435862 6.647543807663977 0.14077359516170054 -0.33551919235579636 -0.0647959134294626 0.5647896034539822
Ni 1.1987585627863269 4.884748277834118 3.959723163376073 0.6885748509334593 1.199301868215083 -0.789541043635892
Ni 3.548398284080608 0.535292757471015 13.305149351070831 -0.8541150708625355 -0.048254207020697534 -4.171902842740428
Ni 1.0832543249647526 3.663631341292012 11.59449624194344 -0.7108534598260016 0.3668704529735682 -0.4721854095629997
Ni 5.094445697940077 8.918288673509698 7.025832342901813 -0.2012636414726147 -0.9593696065276768 -1.616174878359023
Ni 4.22597576728586 8.807983622558977 1.3077535308582575 0.36989355607060814 -1.182238999195525 1.6068587431644197
Ni 4.149792717939004 8.955674193491129 10.8001755060598 -0.8570679828432722 0.00892429907282334 0.5700912181725537
Ni 8.362246858938432 0.7026411173238694 1.5134627257836057 1.650029622124939 -0.18226730287576998 -0.9831425405775583
Ni 1.5620096656374338 1.422080470789471 11.174370149189613 2.422731996936937 2.0980209509402385 1.6526752872779022
Ni 7.611488015209246 5.8868260898026685 10.016735658382864 -2.5325898357020447 1.539021471805472 0.3553935626822202
Ni 5.198064744191766 3.7862517323666802 4.680521225209184 1.1295591523033062 0.25095226694699363 -1.3142664320791366
Ni 3.737420520424949 7.437156287091726 13.021626282715395 -1.0821225560878975 -0.20240649682780626 -0.9462199565195961
Ni 5.224285103878593 2.1270378445664173 10.801749288704341 -1.0481680535193239 0.13334255215060906 -0.48831085436995253
Ni 1.9492462259053427 5.459417395007438 12.784033728878418 -1.1156266013826142 -0.6082517884026751 5.211273609683095
P 5.887377802078532 -0.015008444114607082 12.359145143546668 -0.5578165145702587 1.249894750671286 -0.7392402384988107
P 4.102887823435035 5.180438004530685 12.657038914030034 1.9483156411608895 0.2827951224892033 -0.13631603295663622
P 8.645780213454945 7.738391189713503 9.302082175133993 -0.4725376506960958 -0.15021438820528324 -0.7575549776475986
P 8.182360603840179 5.481411077597815 4.940449710268685 0.1215491590601068 -0.05656401243797356 -0.6324679806375624
P 3.259834061692658 2.483920878606279 12.010337681056573 0.4456153723839551 0.5050453935158141 -0.046168785246578546
P 8.328564356944154 1.5008631135717543 9.357319795214613 0.020780684190777114 1.2762668129069117 0.12317126804456208
P 7.155633409512684 2.0444867264083166 2.6274249819807314 0.5544666242614192 0.6425212511085063 0.16571042695835334
P 4.18874921524832 6.721089859353313 8.908316707899843 0.018948258967728657 0.018659009862083995 0.5307816219396536
Ni 5.464794251933231 6.162008951737034 3.434186362132329 1.3707178301986458 -0.8673009734251902 -0.08026624115091983
Ni 3.704925602482108 0.4146847135449221 4.939696950299074 0.9254295021368063 0.04603714476472071 2.0846887526077067
Ni 9.239974334560538 4.604001537863495 1.3156187036587537 0.9744933495429927 -0.9184052483001731 -0.7966470585530538
Ni 2.2014628954749265 0.5685928012943965 9.200941158595931 0.8489270989036928 -1.3149104934210387 0.20397229865302932
Ni 4.557564196135684 6.1918762230778785 1.1819734181223271 -0.5798567821997498 0.9377134617104818 -0.5219583672210689
Ni 7.214947154695833 9.30811547615751 8.096395415310587 1.13664048463012 -0.6264333444077083 0.08305665941186342
Ni 7.124288671399188 1.7964686807686134 11.960328236118928 1.4892821955988158 0.17695951750961136 0.34067014042911653
Ni 6.4200980841751365 1.582404317733358 5.516995584285494 -0.7814873200934799 0.5148022157922618 0.6920769505494467
Ni 8.187587843877603 3.8114154227793953 10.34190645782717 0.46906717564899214 -3.0621077604379265 0.006455525817356624
Ni 5.221535893554797 6.600554753660301 11.089378405539978 -0.2245418952742649 0.4057141653136432 0.4917121667420177
Ni 3.5452282762582703 3.299276813889177 9.38633425029175 0.6731626301434471 0.19482019984011612 0.10014961033840818
Ni 0.18885859287268653 2.956242693079054 3.0066149589709954 -0.3423516418965975 -1.7535250090071284 0.5782624411294364
Ni 0.2398873028623506 9.364801574738664 7.9275349897796445 -0.19444507588888446 -0.42651773232255574 0.5628923864312694
Ni 7.458252268351884 4.069616767883775 3.264586268109507 -1.3626016288494145 0.010199823351137272 0.07727167729897015
Ni 2.6571211290055023 2.675019049276753 4.593572305638561 0.6317182469557314 -0.0010909190713336051 -0.19487393589618696
Ni 2.234060675028522 3.6213365171609415 2.084560674852646 0.9536545584207705 1.4374199595118857 2.144382568923913
Ni 5.028006448448311 4.324105743945478 7.036973190452058 -0.35795875230623514 -0.007740306067051186 1.219441062167119
Ni 0.3835382178085151 5.847626465049751 10.125513681966655 2.1061212114498695 -0.33659108526373643 0.1363060056543072
Ni 5.456247387185099 4.9150176445624565 9.55707049756063 -0.18652479260054328 -1.003742219105781 -1.4065890901739582
Ni 6.167610233995383 5.967955847521255 5.774022436816171 0.5921122025283352 0.8377011482808864 0.48462055000255894
Ni 6.502602447055622 7.02073508253616 8.426561548615345 -1.3283339659157962 0.12557113573530632 -1.5820974770593397
Ni 1.8027245369135807 7.928357882665679 0.9258582935051546 -0.23953194092519392 -1.1150661008934537 0.5526784220127449
Ni 4.788488512279123 4.041189559093492 2.0257649781454785 -0.6531355362892429 -1.6152775633557344 1.0730871853585067
Ni 6.41503916313713 8.790384936064466 10.256052546858303 1.175364383562879 0.23501039890575656 0.39248403977661434
P 2.1229233801362444 8.594124982745232 11.813612045172283 1.3326259084229308 1.3357914506351058 -0.16309227260921588
P 4.502215298494338 2.47019352909834 6.104024926649274 -0.508336148451944 -1.0553463164353178 -0.045231618144289845
P 1.9272431922594422 4.774312312106074 9.10368737583883 0.4275716275083669 0.02935608456461396 -1.1095778240853729
P 8.413602855871405 5.428465401225911 11.980475085243489 0.29479574649450524 -0.1827658397787433 0.1218072978174999
P 3.7412357510783822 5.214971452577566 4.244068189511991 -1.6551641151380267 0.2444592030234822 0.08066913301629333
P 1.2935034573465756 7.447788437221512 5.512068513130363 0.07125426746029664 1.560899502825486 0.3319366172108606
P 8.447762261697362 0.6656642384687973 5.784848153795287 1.836791984657585 1.5119032754324413 -0.0031159199211623755
P 8.844817430264547 8.014069657590595 2.1312308578629837 0.86103030992513 1.2652828030915821 -0.6981642943941073
