# total energy = -340876.5376149285 ev
CRYSTAL
PRIMVEC
9.22312578448207 0.00000000000000 0.00000000000000
0.00000000000000 9.22312578448207 0.00000000000000
0.00000000000000 0.00000000000000 13.49897687343206
PRIMCOORD
 96 1
Ni 6.77096417522784 8.539563123572293 4.897807260405465 0.34530223988448916 0.24066836852248233 -0.3927817735226913
Ni 0.5724591321623401 3.656591261136196 13.279523963133895 -0.522166883687449 1.1095798809679018 0.48530806298788676
Ni 8.252659346989686 2.3324455255650487 1.8797864977010705 -0.554533987164245 0.13937564571856642 0.09974311892860886
Ni 6.730622222652141 2.880843366945613 7.254565868088668 0.93052774259532 -0.44519679678929786 1.2216563246508831
Ni 8.302482672964524 1.9377695231372063 12.74230547262599 -0.5353625564421167 -1.9561461929489021 -0.5219354844029334
Ni 1.7800725169325124 0.9373831751437505 3.729794288890672 1.6227874985795343 -0.09471789779987558 -0.9121111877613451
Ni 3.6041393442870855 4.19484366405465 7.825694103187297 1.1942807608514077 -0.25693728088583495 1.2224094007668238
Ni 3.381539201302509 0.7656181350424595 12.01207831618972 0.7256331892383374 -0.6329066108368777 1.45929464809779
Ni -0.022265548173982408 1.2698860860506058 9.755696832025464 -0.35408101451838375 0.25052135005716214 -0.8053846955363678
Ni 2.7417586287559543 2.918381489255421 13.075284296827975 1.6842821155499057 0.09603430261845397 -1.0559394699346265
Ni 2.076485336291879 5.2385510342813175 12.119044440833514 0.3173669469268018 0.6526750517130566 0.5811163656384637
Ni 1.3518888982020816 8.60371918715633 5.542706667812449 1.175393951249234 -1.249896293333183 1.1618105561378442
Ni 7.050332657970861 0.35688424415648157 0.8463656797623959 -0.7243466092164299 0.7245900926858038 -0.10148864086480586
Ni 4.377489225750261 6.993112385044559 12.111605989815612 -1.5406163270964177 0.8683558970522658 -0.3672530331239675
Ni 5.178969641131105 2.472793831999534 11.302437176705661 0.1328707547205131 -0.35220925141696763 1.8971735710694357
Ni 4.702143256537792 -0.04183702127998078 3.5205741346124446 0.17595678727670985 0.8567180557030214 0.46968681151086206
Ni 4.865521708281268 8.298120134425815 0.7154028262179505 -0.059950926632335456 0.9563511314163272 -0.36099831046350733
Ni 1.5623329612838746 2.8475109900346434 1.7275043886973813 -0.5371124492536878 1.6531326865302949 1.5144029019258436
Ni 6.50601143822689 3.2656782940652085 0.3279642106639422 -1.7064689360595902 -1.0022859462752285 0.06177126767052587
Ni 2.4401808589067864 8.27093035934736 0.11777193891852704 0.17585317181931004 0.7887002929021514 -1.2448242781269143
Ni 8.98399789009385 6.204793370286834 13.041024073454018 1.7950740360935085 -1.0444888048955236 -1.0114187618144324
Ni 1.590030008285436 1.4674731116631425 6.345572396699665 -0.6904687255220625 1.3484983566788131 1.44614628364129
Ni 1.1013887994467018 3.078061467523164 4.5161100407084245 -0.205031336045163 0.6131386841813311 -0.6340772341062112
Ni 5.6204806767503985 9.070630711434397 11.662468351410574 0.9885534271804847 -0.0105957732379753 0.45730232180358016
P 4.369649568756811 7.855779017477803 9.701012918714689 -0.8440312042639722 -0.6096988052618468 -0.013208528270474026
P 8.659297743676946 2.547501151584165 6.022096159086326 0.8962235699968114 0.2533562484027959 1.7534116233577157
P 0.5382579367939785 1.3041592218007896 0.8601072150030307 0.38517207949623344 -1.8345890634689952 -1.8412078543370938
P 1.6740619081293338 4.533756647444384 9.044936005060222 0.36232577102567926 -0.1370660237487833 0.5807759515799095
P 3.575566100327433 5.219311593706806 5.744179396355973 -1.6918473294916734 0.8776812882182496 -0.016807044255009763
P 7.7185296813372 6.039090690822948 9.312161320276685 -1.0711588579875424 0.30843030655880427 -0.09411266011570889
P 4.005981715519527 7.356798684533592 2.5988638172674796 2.0563438829164262 -0.5879179619413294 -1.1196015268699622
P 1.3649396213147056 7.4463552367764025 11.870176835357945 -0.08228172891905185 -0.205639144832491 -0.6698600481327754
Ni 0.37218448766993145 5.954164147769209 8.16146845684189 -1.185241790577591 -0.23576398924232947 -0.475892940321574
Ni 9.184794563510764 4.566627868061622 2.874175046938244 0.1298311965632409 0.19337215453967987 -0.39084136196686886
Ni 3.4178875403744886 1.4984074758467045 1.478988184317638 1.1536334196436906 -1.338934624249778 -0.20407822810327436
Ni 0.14993482346859185 5.708413958839272 10.750180379459145 0.048716748479412875 0.6406715994942773 -1.1074443226821378
Ni 5.498108242645599 6.131930675877132 10.204376081074534 0.41345447138069435 1.2779454861609152 -0.9846600056633492
Ni 8.422890581258025 0.6493292747645755 7.423155385951319 -0.9921347167738397 0.6465586544026736 -0.3791994068525663
Ni 2.56234116111647 5.097142068371248 3.0780098180182662 -0.131548950585296 -0.20630300366873505 -0.10969097416994011
Ni 3.0126510588201763 7.247264841646299 4.403150728871287 -0.4203175170491149 -1.0573546051145983 1.2729763150810978
Ni 6.619870927149393 7.683398794880674 2.3352281426414296 -1.1786343125634025 0.9184659263347795 -0.20896306699940143
Ni 7.428831297614575 7.098256020015522 11.467853016954848 0.10363782599732474 1.8187688086072873 -1.0766005978284041
Ni 9.062966293832568 8.089622150903574 9.667900052199535 -0.16136551972609628 -0.870196035584798 -0.6361688265279173
Ni 4.319263632103621 6.499712043254507 7.852287142021663 0.3784152203883741 0.1247553247022303 1.0571453173172696
Ni 2.2222752869924047 6.792979776690619 6.8898373553758 -0.381504143726343 -0.9474489438306908 -1.255045184523974
Ni 7.436717070237398 6.204332213993101 3.766011659575231 1.9361486667810526 -0.696738103470542 1.6062763882983886
Ni 2.2751145751282507 6.866073049247188 9.28427243225693 0.7045455153301027 -1.3063788018009437 0.7941626015683032
Ni 7.790838988194423 2.8668518849937756 4.12114350981553 -0.5006413509108474 -0.0960075631455766 0.7823568671826268
Ni 1.9414126578576911 2.3317168986209516 8.739157101375154 0.9177527023178389 -0.2312545314077501 0.4464057294957344
Ni 1.9359433442140264 7.682301242901591 2.3026686636787552 -1.5093103178942844 0.22048572292702026 0.3090190891827388
Ni 1.6115936765803578 3.988236421336709 6.713054934798701 -1.378122350192833 0.7142802261193634 0.18703489946774238
Ni 8.821246610909851 6.843974439651536 1.908391100288697 1.8353382829301939 0.24811274061566949 0.9605350875906876
Ni 5.385346305702179 5.253501721324118 3.3706946498991006 -2.7681103414750003 1.8546125577787738 -0.19039790240270435
Ni 0.8771091252403527 5.564560864572421 5.056149885421384 0.29802556628571253 1.1133030954557601 -0.7881942998000103
Ni 7.498973169891256 5.323560585467927 0.995109797680571 -0.799976637146919 -1.2418883354270418 0.9690130431547118
Ni 5.581577531811144 4.508227035023364 5.639818804771769 -0.043044894905616186 -1.3111656816666257 -0.39220121842887296
P 4.17350135078072 4.856953424343722 12.71378203354606 -0.5976138490728546 -1.1872433943886522 0.12241047861913758
P 5.047180395508292 2.978562385587485 9.243073651287476 -0.1975283427998985 0.526679426845822 -1.1030670195500487
P 6.772402982864285 1.0746140650326053 3.162999078327952 0.3915106201197516 -1.5678281116245192 0.402314652713791
P 5.006847666058465 1.4399144115497011 13.406495970112381 0.5003166205815771 -0.47359334565411987 0.4012551011010251
P 2.070388850088738 1.9724208070482503 10.948628845028376 -0.33731022281794815 0.5706110952317657 -0.5389276480855557
P 7.769164642389005 0.16419654300855666 11.069295923158954 0.10685710426557081 0.188689661462346 0.07655048286222946
P 3.3415846200135433 0.5555688217481012 5.448902866104363 1.3986042721962688 -0.518885641833016 -0.4117531724188715
P 3.1230979911690593 2.8860267636871644 3.1803994276030587 0.785544520881989 0.19913682493759896 1.1502215657486643
Ni 3.845526994678315 4.413505532290753 10.51019556651345 -0.8188891577807058 0.12384772528629638 -0.22667154002275802
Ni 4.671291900487103 7.778433883893023 5.9478518404206016 0.5680513049243895 1.1260161721470543 0.24089539693162382
Ni 6.530646407438069 7.611725883708801 7.968918180269497 0.38445345616265403 0.2206003941280136 -0.4002562275228655
Ni 4.331161464481915 0.7036396514774272 9.841645297426114 0.22871633836692867 0.9133396608518077 -0.8090256347230648
Ni 5.594932618077631 1.896763505498531 5.663428162385688 -0.017690989521859858 -2.1954768164965675 -1.667464786882251
Ni 4.2363661767423055 1.7289579533352253 7.666582269473432 0.054569093495131824 0.35885606730952396 -0.32579013799349055
Ni 8.631997291087993 7.290604310131259 6.337122168773315 -0.5840075711433298 0.197679266555466 -0.5300187756317001
Ni 8.976490265631888 3.3017776087385724 8.322726511946783 -0.46430086460860037 0.15570395056494477 -0.1358311229004177
Ni 3.4595299536985142 2.9131888693879957 5.690304351184405 0.13612422866080426 0.35570260928220676 -1.3655301153501194
Ni 4.251731904449465 4.076151257173833 1.4720634614109538 0.40583295027969457 -0.9481840222245026 -0.5141054468355533
Ni 3.207157560390581 8.80965314168542 7.802584638995785 -0.08950112948562651 0.07011038366384054 -0.34745142501700804
Ni 6.238540787862163 5.0399125723190705 7.8151114885587285 0.4324284413800359 1.0759673351197792 1.3312776219251523
Ni 6.729958157589165 1.4517569051727461 9.447110408824152 0.20549696282767188 -0.1655553894377278 -0.17968900062563248
Ni 9.033221712886835 -0.08324240026902813 2.5011042168717594 -0.9518257327421478 1.502157251789271 -0.5361585699808508
Ni 2.132331363462859 9.019645271599357 10.0949261686327 0.7149024330843946 0.02716087668550806 -1.183516580356368
Ni 6.163944145788028 5.605898914742585 12.656073857260989 0.07233721611183026 -1.1488372838066279 -0.5074820279817647
Ni 0.37836121506818177 3.386150764239832 10.86130428924723 0.15667994132496887 -0.28556959991054687 -0.3597438692311159
Ni 3.426299031172165 6.248178954401168 0.8183485902929843 -0.9284245802093881 -0.4493429577471874 0.07753752936584711
Ni 0.7774283477249433 0.42379433312668696 11.747363535836337 -1.10066612341804 -0.2968076347182114 2.6219058457600584
Ni 8.837479312449227 0.6787805603074943 4.779947701791129 -1.2869533460864804 0.6926101973450975 0.12076600103717912
Ni 8.210232967966316 4.696913744166868 6.26861463440162 -0.11762745540819743 0.2738713376370122 -0.26392091129251966
Ni 6.550909614984666 4.171389254955425 10.2094921489972 2.1869453819867886 -0.6099258336709883 0.28273290179270016
Ni 9.241848820171322 8.434364149846083 0.18043938998639533 0.3150082168866381 1.3146536402152262 0.004960686439385005
Ni 5.3929738308005115 2.837236427810288 3.499097163700745 -1.3728155932679391 -0.6839787469223446 -0.3897213894298127
P 1.199190826221446 5.321476159020257 1.0894780546921843 0.4303227078909428 0.21788453785874734 0.7628038847513636
P 1.0881351675648359 9.009435271256123 7.823804284695582 -0.30184982512780917 -0.9591191810797676 1.1836093971804906
P 6.115402834309767 0.5662445899480038 7.43893523201025 0.22124137014612222 -0.5659586840614189 -0.2675258550349586
P 7.235210216128137 7.414323320613758 0.18722576600495971 -1.0708071310750784 0.5142694832172433 0.4759443623847997
P 6.909661542130764 4.13453364396034 2.6156563625474476 0.8423759280487364 -0.10561526143866971 -0.7830014427451613
P 6.463686513588142 6.450156187930036 5.688590694396896 0.7083522906707026 0.6671745308808122 1.2912319188571761
P 0.24528534338585498 7.760873052227699 4.020697212852525 -0.5087716933274657 -2.140144105362533 -0.016711656327726056
P 7.897347645794833 4.012336449247159 12.324120644656261 -0.8141236180712623 1.4599299676889437 -1.1175983803970042
