# total energy = -340862.79314466595 ev
CRYSTAL
PRIMVEC
9.33530790736527 0.00000000000000 0.00000000000000
0.00000000000000 9.33530790736527 0.00000000000000
0.00000000000000 0.00000000000000 13.66316674981648
PRIMCOORD
 96 1
Ni 0.057200231106578465 0.6771701539254896 9.798457560817948 1.627230364842236 -0.058119272740235386 0.6793309637376882
Ni 6.195974440401421 3.049163560727956 12.254699319368743 0.32764133226961634 0.2932636261206949 0.1103484052482809
Ni 5.059876823924426 4.824617733604564 10.63538190254292 0.6335997802491604 1.4081525780063362 0.8269241122700404
Ni 3.5472115638887396 1.7849948573854328 6.760001598066139 -1.511182852326649 -1.064349805485509 0.5122485961324726
Ni 1.8506500767108398 7.702301026482613 11.142995795543422 -1.864786670098298 0.263147780571921 -1.6667945002881035
Ni 1.4598740947740365 3.6347860857843237 1.9373004031403047 -2.7861597427775435 2.123477700450446 -1.2168239362592463
Ni 1.0523225648310117 2.190931379089684 7.5370940854330275 0.5095975316628708 -1.6749317846832574 1.0506134297360228
Ni 0.18872351477383204 8.107051964104064 4.250652207321356 -1.1591929160093393 1.1599801877973248 -0.09576947899284151
Ni 5.285576559119984 6.864765222100764 13.612434878644244 -3.257278915859558 3.7954344616657796 -0.7194075200435998
Ni 1.0883661880096547 8.390173177199607 8.111534778880129 0.32073200674429275 0.5021457033705159 0.9222109951995086
Ni 7.800471122661481 4.784858657945968 11.355894956767845 -0.33556418666111887 2.1775641978822047 0.16303442278808697
Ni 2.075528304825404 5.360081650181562 10.93224095450655 0.2767386318824782 -1.895338060522594 0.12327539772259415
Ni 1.9892793966286977 6.986899053244558 3.368681271634659 1.1243871211840637 -0.8294887876734232 -0.7928659942440668
Ni 8.782480149605536 6.543387917892537 7.526109228817045 0.0995338311312802 0.7035265871472852 -1.4932650915059638
Ni 4.908859550637477 4.651167715821817 13.282264648077051 0.5137254377883153 -0.6113684796547858 0.15221522068539592
Ni 7.673324231262072 0.12377591177500911 4.624995247045944 0.8457368741011694 -0.3031400046941425 1.7619798246427012
Ni 7.088009771361077 7.236795906098505 5.417773852005963 0.7020276340042555 -0.35139369749420774 0.6595599517583479
Ni 8.282313031588096 8.857685388747507 2.311315773563268 -1.59237880438069 -1.1307806834152332 1.7604659591013356
Ni 7.822222389692364 3.3728000094089188 1.01600821772795 -0.2128166364175367 0.19827344849603917 -0.5514743744023147
Ni 8.932713257042444 6.2916613447218275 2.678103748735026 0.5549335365955087 -0.4801915676969278 1.1038293516373698
Ni 1.357419092343162 0.6463729736959265 11.95481936182091 -0.6650240601967128 -0.4369911210500539 0.06182937460197093
Ni 7.34207017146643 4.036923137238974 7.788933615827375 1.779589053084032 0.3991341981032804 1.314113194330724
Ni 1.5283952535751866 0.7797073070644639 5.523867757393334 -0.8613010470880134 -0.9769821774031174 0.34438641293843913
Ni 5.932392026402719 0.057509229792725346 12.128014525702396 0.286715540589532 1.0232280957445343 0.5020292323973097
P 9.087184594192665 7.051994154105651 12.224339031541346 0.8166132172623357 -1.873501938484109 2.7369272310039765
P 2.522129427038893 0.8317012370452385 9.151753183697302 -0.9231494478533779 0.507816528503048 0.132558622796733
P 6.049307420520648 1.2080261626027256 5.716135888515504 0.8384400833294399 0.5893336113419334 -0.149192117588356
P 5.578695886803541 6.2607988173380935 4.195958506342586 -0.7820521914580145 -0.9002661154973012 -0.01997078669497206
P 8.20478330081922 5.584483777601458 9.237844325193228 -3.332359241934164 0.08287565374930889 0.8764764692768713
P 8.772566052787168 3.500338983733348 3.0538405499049825 0.525573852486469 -0.20193881316276835 -0.8059459673564766
P 8.989397245631078 8.720512376836865 6.588911546079704 -0.7310685013212957 0.4823669780816918 -2.195296325054645
P 4.77290946404059 2.8659114698197037 10.610459431473243 -2.7526194449282535 -2.329444146715369 0.7793188516872513
Ni 8.429045398623037 9.0312194242999 11.8741520341211 -0.16719832435778947 1.13854052986631 -0.30059924055015974
Ni 2.957882921660157 3.554035673845639 0.19169681028856858 -0.53676894987134 -0.9590867851799353 -0.42162286612409966
Ni 2.561095001539711 6.381709723168134 7.495982323683112 0.54990934390804 -1.2459144258672994 0.6715127532448499
Ni 0.26412199478599113 9.270324661408056 0.5875054566272383 0.5541766038248263 2.029925540823897 -3.2078952232201075
Ni 3.554959869311758 8.648023712246822 8.094920731697785 0.14590650485854872 0.1311871963705031 -0.9133576585739367
Ni 7.607687682552142 3.6962217460118945 4.9103503992833275 0.2535207990051182 -0.41214012344464507 0.9994986133380788
Ni 8.831285138462812 7.413475940358801 10.244792626760889 -0.006065489467789554 -0.184148836169199 -2.4881963971883345
Ni 0.23117209259191224 4.247424991436131 9.684534132830231 1.8654289316679873 -1.7073127721171242 -0.5018693097806776
Ni 0.29993596939426515 1.6149895681582203 2.2821448039417653 -0.3451824264771733 -0.09218664673758963 0.6802110523497963
Ni 3.3768421976597223 5.982550634882089 5.135861561262566 0.9954498971900018 1.0635885018394522 -0.10315497282363525
Ni 3.8492927870013296 8.983459989909345 10.600526664039398 0.5127108804808719 0.018863669673722352 -0.05583664735364577
Ni 2.847110160034211 8.056482602084197 12.990364511584152 1.0048195113303597 1.8903570623682346 1.9117764085842752
Ni 4.387837355132056 1.6913430501520357 4.417574977933292 0.8404182901017333 -0.9537985401978026 0.7568846910534512
Ni 0.5429181598062502 2.4535242504680963 13.532533046178996 -1.3239417503853714 -1.7680193459685616 2.10290347584352
Ni 6.402396765116819 7.190446103176475 11.354077372351144 0.39851559068267495 -1.8251973378414503 0.8237937941711749
Ni 2.9244065081096227 0.1368938862092565 3.5378314466730183 -0.5869057186267311 -1.4880526940670888 -0.2961507178605029
Ni 6.691651275396605 3.025871967920208 10.009990966520219 3.1684401025482787 0.5371895823485264 -1.697844427615373
Ni 7.1069791166858645 0.9378530213405892 0.8812633193601137 -0.37437370332914877 1.0154857327949545 -0.4364149368316097
Ni 6.64925964295573 6.806204836656675 2.146756702870741 -1.1073270803779833 2.1878236708266834 -0.1652201175854961
Ni 5.329741900031188 8.599946877393155 4.242754536974521 -0.6906633580313718 -0.5835100626816209 1.396357128033305
Ni 7.503981748884298 8.073043438012432 0.16689103056562368 -0.17283212560479913 -1.6978673104335082 -0.6162157804447581
Ni 0.5220612152567232 7.06845230164876 0.7036954973338804 -0.8806308577648769 0.46031771159113627 -1.5097648889331998
Ni 2.896092519738521 5.7907193961620855 13.101392127111362 0.002069223824202888 -0.05155010416314993 1.021180983407519
Ni 2.555428469742395 0.7155336010771689 0.9688807836712953 -0.6173429520706658 0.5573781414812594 0.2163588452428403
P 1.1504646550866642 8.821240347336104 2.435336270401028 0.5364617030435666 -0.12285167992161422 0.2502526697768077
P 6.759948386812029 5.674905568357308 0.22054851238541243 3.3137992195437893 -2.8811908009424636 0.9797689961196352
P 3.2991537666592903 8.884711104650686 5.65415971396987 0.6999599528419493 -0.4569493093395356 0.6593925729425483
P 8.36090698743917 2.143862757471782 8.724055126123657 -0.29632452443420576 0.6911181861806033 -0.29774865847524207
P 4.239293938395831 0.39597201422409484 13.410944397007134 0.16837897492945195 -1.1223976015578605 0.042509077006804216
P 4.885866687677363 2.899481236447624 2.6322496506539133 0.8366174282984042 1.0447852530900201 -0.2924290460345415
P 6.0992513169220315 8.682181603262272 9.973032483183195 -0.7078583817534196 2.1276197476432777 -1.0357079733791001
P 1.611423480602084 6.587683953112081 9.307594944023547 -0.6134690709375563 -0.2092129782266784 -0.07041043140276261
Ni 6.140765430435481 5.012481466535673 6.168714408274004 -0.5156756195361506 1.441299239961634 -0.8553931662440106
Ni 2.887578719080939 2.315651090477063 2.7561609243911316 0.3380316743650049 -0.11125857576737613 0.5021338762959738
Ni 5.025494885523249 2.2928449336717214 0.4057386131801934 -0.42476218308402974 -0.04829225934748457 1.3394182487544157
Ni 7.095011252165009 4.7854374470257595 2.90358690479105 -1.493067630783177 -0.8422923671959944 0.055852845303561875
Ni 1.2284331453192534 7.069469850192265 5.869669027237999 0.12873282129273958 -0.40915815799818567 -0.19500043417172222
Ni 3.312689962880226 1.7283855512587063 11.89963462365509 1.1723268822881359 1.3525324175388707 0.04546687408354751
Ni 7.738269967199347 8.945371934335954 8.448851187521202 0.5950188346521689 1.5267884200743898 -0.666910221475832
Ni 4.047210646366885 8.088353342703696 1.6432139375750316 -0.41554195003734246 0.05592894995713594 0.10517920234251564
Ni 2.4206639672283075 3.9681405898211444 8.756409435684013 1.7614272945733407 0.22765884363669175 -0.4838780154095796
Ni 4.261511970813642 5.479788301313325 2.4191460461900154 -0.3927627473592978 -0.40949831494642375 0.1521224038612735
Ni 4.459196447485734 3.929791145631073 4.9055277793055785 -0.4482114152459055 0.19266587250127462 -0.8587361145743146
Ni 4.793288440833901 6.767948745543989 7.039181444234454 0.15793721077083767 0.8074801446128158 -1.8685301963011305
Ni 5.70020425232885 8.926411924318906 7.061370537198275 0.14009992547910066 0.3291536551490848 -0.19332998844783478
Ni 0.7142238574014467 4.389340339677968 7.119342798254834 -0.7523698339022332 1.2025496857284192 0.44124835366451104
Ni 4.431526595348594 6.590167144970542 9.370609204789712 -2.146104693821343 1.6595838414722774 0.5155956582278346
Ni 0.5986611493748369 2.79892130148768 4.770043524564847 -0.5861631840337518 -0.6147124564263543 0.7661977409242611
Ni 5.494556758155753 2.8499574288944767 7.01950634964463 0.7637557071416717 0.5604755494596605 0.07289900215257122
Ni 6.534566052079582 7.034910540944055 8.675919478831236 1.0098894696540994 -1.4049178731191225 -0.33677929001514256
Ni 1.9640740657345417 4.466720705523026 4.028216095711204 0.4350640792306701 0.9779879929598124 0.1329147205845711
Ni 8.124247600958522 1.9698059446860277 6.534135694392834 -0.33020420790078614 -1.0513842464637764 0.02685697229184407
Ni 8.907246537531607 2.770131212421911 11.306147101828973 0.6600397196082439 -0.70667156053417 -0.9846443219340656
Ni 5.191177927267501 1.4276672830759485 9.14009805198569 -0.4880090068588176 -2.0274739939596116 -0.9165743657390214
Ni 0.6518546664000184 4.829089346011342 13.201733615870223 -0.4532592620824581 1.097865677854767 0.07570536125311478
Ni 6.672112476299765 1.6315223981632387 3.3369412253234993 -0.4355042520918822 1.4717624415474977 -1.2373603656497012
P 5.78078662872824 9.115629276872108 2.2940454542469024 1.6975083844321928 0.015339715680863904 -1.2958791878212004
P 1.5595285048833385 3.2269358259936642 11.986190663476396 2.263187846690296 0.8951735314657422 -1.9257740084149482
P 4.1690084064320905 6.745021229738046 11.542560969716094 -0.6904394149460239 -0.03353618408423256 0.5648451392822659
P 9.057657015815549 5.339245243309059 5.511448063977933 -0.8380289639339502 0.960023952282224 -0.7228494558456131
P 2.3999115781254527 3.594280185506641 6.131782997329422 1.022085240389343 -0.46561778364781103 -0.6743849325863225
P 1.8511635186364617 5.775372150239866 1.4520259015582155 2.063285604341582 -2.003360902961492 1.2514070735507543
P 4.784429233789993 4.939049935864032 8.08757011038443 0.21683295666578142 -1.5700765413390636 -0.05240088219921943
P 7.724042958205757 1.6184809732524477 12.475385994308688 -0.45069792911318507 -0.8003067667928281 2.2517495229463673
