# total energy = -381169.6956437536 ev
CRYSTAL
PRIMVEC
9.27373675580621 0.00000000000000 0.00000000000000
0.00000000000000 9.27373675580621 0.00000000000000
0.00000000000000 0.00000000000000 13.57305114579573
PRIMCOORD
 96 1
Ni 1.5353969781033239 8.548948003670235 12.421418493600532 0.7535967643307989 -2.5904967353211577 1.213004048292524
Ni 8.585087756416414 9.33420167669637 9.169994399316128 1.0178838007134858 -0.661785498654757 -1.5524056064218619
Ni 9.292098911115755 3.4485503555812755 7.29463242712839 1.0386218045917854 0.44007515929201635 2.1841354233418193
Ni -0.3531188625204374 7.264414882774233 0.23117385899569978 0.26352290452315263 -0.3489773747432312 0.8070140036096747
Ni 4.921256872159277 7.086498240116938 11.670462809169848 -2.6154714029886246 6.376335839989018e-05 2.0960802822741
Ni 1.1932888234185397 1.2019968623789359 0.3483438153844332 0.7218868348220278 2.016420821469243 -1.0944983040444312
Ni 5.150856050627314 3.706109850839083 5.160731653064934 2.0812519590120155 0.7725694487785597 0.685205163130278
Ni 8.585811107895553 0.5507319950051921 4.2523830331369705 1.9189487579629985 -0.7286984584272225 -0.34604143204335885
Ni 3.4121045695169974 1.3809336160965535 8.645639694209823 1.3722813180310236 -0.6990706082584605 0.3170738411664152
Ni 1.9473734666833418 8.332415520511248 1.2048633744584443 0.720649877091133 -1.0752075741356193 -0.323791619506223
Ni 7.573248869418653 3.887522692312212 3.987206090379622 -0.5703349587522436 -0.28426656482840723 1.5575958923735496
Ni 7.929388188051339 7.5318972765279115 3.8207731161404945 -0.6334820237243735 -0.26592740019958716 0.20145004645180792
Ni 3.2424786476590577 1.8936228875412164 12.832573329090144 0.1494507705663813 0.18476924336201725 -0.06160311752377777
Ni 7.577069649026409 4.507462731144501 1.8854870381482922 0.9765096086420733 0.90197101400355 -1.642539484395481
Ni 5.168133022494425 3.697271979561918 7.683269702021902 -0.12450541347495331 0.017248245557486424 0.14456078946393167
Ni 4.178430545505679 8.781199470895112 7.12226889813402 -0.8397922264819601 -1.2138486556810064 -1.5386329781178016
Ni 7.056340047679017 5.345854916676568 8.0714868766333 1.3341436306190377 -0.5071097322440105 1.7408733816813888
Ni 9.117010758216628 4.817761968221023 13.250514685251977 -0.6913508710166997 0.07867909916945803 0.13035158784308518
Ni 3.8152988292413235 5.155659846347746 6.1276893629032365 -0.19220101704971415 2.0853029891529378 1.305182210389681
Ni 1.081243534047394 0.9043256728555253 11.176525961134999 -0.8327625733286883 1.5563597059736034 -0.6506459370981698
Ni 3.5976998663374524 4.166133570360327 0.18272414787249058 0.7454299122492903 0.053017946957928046 1.1221700589280865
Ni 3.569377873808113 4.2258564360738 2.9554908030583062 0.14655416574487665 0.2566372331469129 -1.0498408132360564
Ni 1.1398720988052473 3.8810867188952636 1.4470637066425478 0.6373633610566507 -1.5103464724682827 0.5341127431954156
Ni 2.700159786780459 3.5204589115971556 7.604668290076611 -1.2084791638389767 0.6973687950760054 0.7078298425083294
P 6.149210924154984 0.7506598522231893 9.527698197365874 1.1670592061312934 0.2622854325716257 -0.11217157449994875
Ni 8.503070827166422 2.7159436870047347 12.544430904243843 0.4321780159321266 -0.833973562917654 1.5085305023054665
P 1.3383022475119517 2.8585644869748426 12.207968600591103 1.0398831878027122 1.2555362652277797 0.11683195609009557
Ni 8.476204811332272 0.933447988880373 6.829810476128861 0.09149322021499082 0.20410728156899685 0.8602191268777443
P 7.4028532273970145 6.7456698611260135 1.8353476521597114 0.32198567664573574 -0.256679399238758 -0.46053188448447135
P 5.340680171479654 1.173582132480476 1.438960315328816 -0.4649675516583218 -0.2848008400653224 -0.1101720275714167
P 3.5739869210533923 6.383706635712573 13.460679820647165 0.5089832951176395 0.4521919971602083 -0.2344758665585252
Ni 6.752078013332227 6.355431011867794 5.9506973118160715 0.8617720731871611 0.5977192643024674 0.10012235664489853
Ni 2.572998306242705 7.550704414985509 5.77776252062792 1.6896310385666449 -1.4857600413781702 0.8666574263039203
Ni 9.367216180103195 3.204252304107671 10.186344031947902 0.2359982167403226 1.806798523619288 0.7117728863164774
Ni 5.234022923254399 4.679768762970018 11.77793429149598 -2.6799752390989653 0.8125146217129295 -1.7369691615309764
Ni 1.8816690406616097 1.7698834159240007 3.546203732638642 -0.3407724703349357 0.4354880541419661 -1.1111032595909638
Ni 2.6909787872375497 6.992657296304107 10.669531691528015 0.32867105908571137 1.5478323852288827 -0.19401981542600777
Ni 2.5049568985191413 5.045385840726797 11.853562543387275 0.5583482187040126 -1.6501710327988097 0.67577178563152
Ni 9.285421820539092 9.350987140507142 1.6803436312909692 -2.539886112253142 -1.0485989704091556 2.336645549559815
Ni 7.360333143655358 1.9787557923936512 0.9785183502728384 0.7076328960061748 0.42242273631757576 -2.161980998731967
Ni 5.187635691220425 0.10441300389254503 4.6513623794347785 0.7416131096063615 -1.3118904756477923 0.8380073666673955
Ni 3.3675442636546937 6.866107882402546 2.7887731250959793 -0.16282230677728088 -0.598474397300937 -0.2783751390446367
Ni 1.6527839399357989 5.036343947237568 9.525241584457877 0.18176542353868697 -0.02908611873267894 -0.8823252147481643
Ni 6.8743244133066055 1.4453768138982495 3.0663425624888734 -0.9974124202330114 -0.7397575444548615 0.9722372065189643
Ni 3.459613923717327 9.33151229299188 2.595085565446087 0.9348531094435514 -0.505187061300001 1.0120373692350377
Ni 6.819034393837082 8.856224002513434 1.2073144231242938 0.7620356391267715 -0.06413488280669599 -1.195208929092632
Ni 4.305768227044762 8.998937539852664 13.59775399857019 -0.19961684989781106 -0.2037128743440556 0.1590561548666293
Ni 5.6905782651705445 7.824808256894377 2.8615246637971627 -0.9768065710572016 0.45982920199049193 1.1709605980682285
Ni 6.756093541415136 1.822001817369609 5.3778465269019975 0.01731149469525406 1.5141871863706116 -0.04559954300666986
Ni 2.856069851745507 0.36725760181651823 4.990227508321426 -0.9983434166877128 -0.467553310107627 0.4141980344149383
Ni 0.16100041915606048 5.922347498075997 2.677121969543595 0.287987208213104 0.07339856749680908 0.7209620090149133
Ni 0.607572583286406 6.229614223182284 11.574202347396668 -0.6259000976120576 0.0057140196656417725 -0.0643804231585988
Ni 9.191117189880659 2.59746242421664 5.234609950800929 0.8026981498431401 -0.38663015209899865 -0.8377314872981895
Ni 8.837027367105533 5.146525215489397 5.743314297494494 0.619558728775062 -0.22583078928901754 -0.33328336104674217
Ni 7.181136725304204 3.8792226977759454 11.041976094399432 0.8225203267753898 0.6426179245873707 -1.1844735449529988
Ni 7.463438550643306 2.666227183419342 8.529454608681148 -0.7619389656479071 -0.3766437303102481 0.2798128999324278
P 8.472959003413061 5.4029254936332 10.086066187344432 -0.201526151105382 0.2796421786825184 -0.42779325660086964
Ni 3.181782039569822 2.835037016429023 10.630183225810272 -2.488699304966682 0.42251143937664004 0.25768418635418844
P 1.5575519355861633 7.997244121036661 3.556329725972887 0.37701242650357647 0.3276837554717776 -0.29814512258271236
Ni 7.120532854584088 6.487730142654813 12.472548314691316 -0.008208246842405217 -0.5409485351703264 -0.36996117608374995
P 0.7171603323758636 3.9195263583956277 3.767634603634563 0.6415820271236886 1.1137509816264561 -0.7925582331956609
P 7.021424428205224 4.01689132223503 6.439761738477338 0.33491035512720385 -1.2703766726747219 -1.0191765513829802
P 4.231086823692185 4.584842791938479 9.633921434703646 -0.88552392419112 1.3821224724911616 -0.2851366261381864
Ni 4.315644756856074 2.170898347473999 4.023758524418388 -0.038999264081332835 -2.3035433676892074 -2.825995386717243
Ni 6.220498139797758 6.604189730796085 9.995032403694871 2.131899348855238 -0.5998208840265025 -0.06573950828965454
Ni 2.6527431699492503 3.3807778862281603 5.080786476641089 -1.5137359577658058 -0.8135528331694569 0.5835193186530016
Ni 3.6367979411585707 0.2704240231021753 11.1568443092866 -0.4585315662249909 0.07076987162471038 0.23549376630007832
Ni 7.964220343892923 1.4572471971456478 10.756588896789697 -1.639930328907408 -0.7312770177876761 0.06356101258109699
Ni 8.380165991871289 0.04490065200697533 12.96672998938064 -0.2727289965024529 1.4106406345355125 -0.9568059595655587
Ni 1.095487993944272 8.91504731574644 7.33247483797162 0.9138590236903874 -0.007365182115819573 0.40146001802297954
Ni 6.1096862574359125 2.025180119375273 12.238087843333993 -1.0566346962294384 -0.7571950232050185 0.1486357308642537
Ni 5.26916111241408 2.7464728289191367 9.935745403616265 1.944669302657554 -1.3240973021266293 0.025359304700395036
Ni 8.539813372811885 7.917119034116722 10.991090172589432 -0.37449840183247113 0.34926945206235327 0.2481312525584307
Ni 3.8677696326895887 1.904936846573893 6.33788231950916 0.5658147022843868 -0.2881229624600199 0.4990094717343793
Ni 8.750846529982038 7.051721726696825 7.729553995576153 0.8685255898609107 -0.4511784682940294 -0.21785625572397319
Ni 4.6790917801754395 8.481277545423152 9.468234996285936 0.18549866532887407 -0.8298777955817255 -0.21137527598531983
Ni 0.4573408274325946 7.2299629501460405 5.317608968789906 -0.9872259666183126 0.7640508697845874 -0.21317504819821995
Ni 5.051348853561233 6.532299722254029 8.006105176656106 -1.2398047134251358 -0.648212902176645 -0.9747154928561278
Ni 5.623658979613336 5.571234544849631 3.8192531506606127 -0.33299899703710395 0.4311863414428187 0.3802034226370484
Ni 6.509310128449107 4.0445270582328785 13.347413180124704 1.0957401468713321 0.1533259372510714 2.1990745611501548
Ni 9.15201911505954 2.2874692204582154 2.5835759305645665 -1.449661238773084 0.0746262692563231 -0.3204687257805771
Ni 5.666169789618081 3.302275703267827 2.199431781204933 -1.215255563330862 0.311640843076302 -0.3067709165785104
Ni 3.392805923003063 2.07071416761334 1.5686377606908042 -0.21794855832746335 1.1399268686908754 0.0846635988876671
Ni 5.7482330875526335 0.9265140157912483 7.265152144858739 1.7979590709507873 1.7158593761355545 1.371060044029413
Ni 6.7547488495628905 8.235050556671846 8.035667067810584 6.119225523860429e-05 -0.030532621371218382 -0.19817111859022
Ni 6.314060871503228 8.835923792413 11.458152658426908 0.3607301444037852 1.002130651644287 0.00442384009930851
Ni 2.812742952892503 7.3993848497919155 8.310833679969571 -1.5173910380198898 -1.1437554984083462 -0.27469563331052044
Ni 1.6113859783604971 5.8956391357693505 0.7677504219783694 1.5651266535329562 1.6788773995945667 -0.9149206321856823
P 4.912196431196223 7.173318965087362 5.507672352054578 -1.815849578077963 0.3384327664581655 -0.4099516004337585
Ni 1.1940214486345901 1.7644119111459033 8.936618955177513 -0.20672929257287623 -0.8709737942910871 -1.843430058799393
P 7.3680859877138145 8.83889138822485 5.644312519090118 -1.3423675611907266 -1.1252093599750428 0.5339721038524933
Ni 5.336404978763209 5.943908936396466 1.5006501406413302 -0.45947876062960863 -1.1200190740233549 -1.5930064106623598
P 1.501965156535456 1.7045035706941898 6.5726145113580055 0.3306772908824628 0.4373510754926339 0.3117886815080759
P 1.3080234964941742 5.7511264934691875 7.299546580318075 0.4554953505018285 0.0024358631350022567 -0.2525134407865264
P 1.6378068548228704 8.727958947283147 9.649693279069936 -0.019975671790978502 0.38199471020951636 -0.18139287069061663
Ni 2.3213832763455087 5.4490066923490765 4.4477398654310285 -2.3611106245807143 1.869322867405755 -0.6819470612042965
