# total energy = -340869.1088479485 ev
CRYSTAL
PRIMVEC
9.23843879476268 0.00000000000000 0.00000000000000
0.00000000000000 9.23843879476268 0.00000000000000
0.00000000000000 0.00000000000000 13.52138901183918
PRIMCOORD
 96 1
Ni 7.974934371627214 7.403684754564868 5.477203299840408 0.1415420572422659 0.6332213138638191 0.6773206181758786
Ni 8.895849654119464 5.145865772898875 11.34014559660704 0.9059359121885687 0.2358148970849229 1.0172135141193384
Ni 4.2170331484617005 2.1438720790420804 0.4448862528585298 -0.39333276093015485 -0.6772175169391111 0.20101990089292476
Ni 7.157193972263214 7.346341765705891 8.636611674133324 1.228856184833432 0.8205225796190706 1.5061733149271996
Ni 5.87164675368671 0.8501959582749827 8.857199722076542 -0.9656222723056082 1.149182840071505 -1.3172375988923186
Ni 4.23121415182863 4.465279234111704 11.941968902622165 1.5392582704066264 -0.7076586070377877 -0.7439885518170735
Ni 4.027137041486307 0.7415038795697086 2.954545072819304 -1.0510479461702802 1.6160527509588622 1.0055008536681005
Ni 3.322955530321847 6.468634660899066 11.15891791664089 0.39889971349497105 1.3195068545424695 0.5153166935348351
Ni 0.7964873711909568 1.996805373766415 9.582689692046099 0.6075066827065343 0.6912444273458225 -0.09015264702669634
Ni 2.5864487222317294 2.11697898405763 11.592170203675332 0.46553345146412084 -0.7211422433465193 0.135189889771993
Ni 4.973568891600354 1.87469169135334 11.770517338462453 0.5869316867686601 0.3993601980711574 -2.330957498036102
Ni 0.9784245632473871 8.514856443140857 13.612793196191115 1.1221680020455578 -0.7027835383336736 -0.7372283502751045
Ni 6.215603064015141 8.648130159473967 6.934498636458108 -0.42365120940803813 -0.3870800951522237 -0.429063638672861
Ni 2.807450652227612 0.6245720374097349 5.306144369324407 1.6146185896154965 -0.4913211019511861 -0.21946962295768008
Ni 8.068990915782724 0.990730163563185 6.830140309335522 -0.13576633110075326 0.006341368836995531 -0.11642546468029627
Ni 6.668443612573297 6.109739795232312 11.740568167964142 -0.6671948425957864 2.0189245617277036 0.7444778327486663
Ni 1.7334452024432547 4.940208889543038 12.873551810253044 -1.1779529702256615 0.043187848241383685 0.8976021955118928
Ni 2.245042220977743 4.364949790095514 10.803413557968055 -0.32861886569153725 -0.1309344569297487 -1.9893175374945484
Ni 8.089925217821461 0.48365720844810106 0.12283428062976602 0.07947871225261796 0.9284911717812655 0.6607832826424878
Ni 6.057865962069245 0.0020712579510524624 2.3376317010715786 2.297606433379482 3.086762582872129 -0.34824795277637444
Ni 4.3013154244985055 6.680287290955318 6.681229611700222 0.856625753099531 1.3196063562348113 0.5120791604341438
Ni 3.464636225849682 2.8861713881817517 4.896081487209397 0.8225781765965188 -1.4480761536741513 0.7635636457355236
Ni 2.303299815265597 5.616111539921718 6.439358972580198 -1.4609458105479676 -3.9055491536366995 -0.9949534171695575
Ni 1.0528586636560833 8.392964483255996 4.5411175771990795 -1.0362021394066994 -0.2537606829300662 0.1485519129011958
P 6.34536617365155 4.222613165421717 11.164205075094893 0.15406255830677984 -1.427687305605154 -0.3781367699160068
P 9.051517345802043 8.409870826032204 7.596289571759925 -0.2256312716837017 0.03810092063677954 -0.3665560070569429
P 3.158733044425734 0.3796573327461256 1.083405561136703 -1.314879383072787 -0.3704527710081878 -1.3502744747426292
P 7.381124487319238 5.1440827542345 0.9739346820510825 -0.3408814851089742 1.2212230937682067 -0.6754611963696368
P 7.213548448183911 0.5772897082684035 11.59844495122375 -0.24573267041926714 -0.6643558304850946 0.014397920592884882
P 8.928581442346847 8.221415915490192 2.058374948319444 0.5456066027676281 0.8581774138573671 -1.0540088285708171
P 7.872877339578701 0.46369017093869114 4.404254727440531 -0.23063412421493185 -0.8944585076765885 1.084566646753016
P 3.5027632622635694 0.7106983058061741 10.180564489371305 0.4848300949102038 0.5697335777228187 -0.37717749132653106
Ni 9.306433584175775 6.510540218731242 0.6943250209415431 -2.2670573569480315 -1.2021915310580522 -1.457143406082742
Ni 2.5433514058104105 6.507722494935207 8.91892450239932 0.9885804237636779 -0.40752242216697554 -0.4921271427922493
Ni 3.6500794053834733 5.873974840232942 2.5892645983400286 -1.044315512542453 -0.12427298574917309 -3.567654776180507
Ni 6.10873280541668 4.484966346929245 4.85746388970184 0.4344490713544905 0.6561884641829537 -0.21202550797480904
Ni 7.674897598762223 4.1149668779745125 2.8158567075784715 0.7199713629668697 -1.2660906437048582 0.3869772510257723
Ni 1.1615673715509733 8.378561757360853 9.47151616871258 -0.29826699287255726 0.5070786218957589 -0.2720844209399185
Ni 1.3370977063859277 1.0590668944460355 7.09626831688587 -0.518989514400732 -0.490087229544085 1.2938580436261136
Ni 8.165800514663538 0.3473523603855536 9.629757689410157 -0.72039173833374 0.039759796396441206 -1.5298464901744233
Ni 8.375032673786803 1.5066045792044407 2.4746035644064985 -0.21148737608315188 -0.13715009882215734 -0.35846011742268585
Ni 5.423286847886183 3.235033309446886 9.51739425517523 0.4663006686474485 -0.7457983513323027 -0.18783579810248296
Ni 7.899132982294541 2.650785209168078 11.416554875204564 -0.7117307202246322 0.5540495913286588 -0.5548947129377734
Ni 4.482869221349901 7.987766562947517 1.6161576803942734 -1.0220091357357688 -1.787023140764574 -0.8665592101631591
Ni 1.2889007718157195 5.046709610594477 1.831674749348498 0.9270007032786679 -1.6039510825993215 0.03552107572474528
Ni 2.8839264475835993 6.81423541331174 13.656332109981125 -0.0959833947758605 0.4398252480647393 -0.5633842384660234
Ni 6.73134814151494 3.505996715800002 6.824068807437968 -0.8109781304637452 -1.948766355545063 1.2471832652773942
Ni 8.057710782159909 2.57296984020414 4.822308859009869 -1.4208078048765014 2.6093686325249963 0.4252720328409128
Ni 8.449189621035234 7.778017051258422 12.16555851929106 0.13565551655450186 -0.31302023992233186 -0.743701616704274
Ni 5.437236890286224 9.213384029835897 4.719221741049035 0.9040471798062882 0.11309125810074072 1.280182345911234
Ni 7.338904822572094 7.635098404948066 3.275137371737335 0.6457664975186814 1.176644021606251 1.0637106292396132
Ni 1.751681880388739 7.410789113906346 2.139611311124929 0.7278708203196045 0.38493039579907257 0.6684819368383261
Ni 3.602316677431015 7.904241838882104 4.091248110518972 -0.7197044824587283 -0.3630881031130005 -0.27258810004921447
Ni 9.093284327054088 6.006786634632274 3.447400070812757 -0.3251604748292916 0.21301101181652993 0.9693213184237499
Ni 5.410741048164822 5.732562059426697 9.309935876277665 -0.1284235175824369 -0.6060933472987755 0.5648099151689563
Ni 6.123283346330631 3.5064678761724544 13.34932955435479 0.7920059602366166 1.9475548517354653 -1.1229370190010983
P 1.7468501769614402 3.2007125097673144 6.228060174725218 -0.4151825098153947 -0.5653981835722586 2.4898527018448346
P 4.716250659170987 3.7561921120105413 3.4625298618316624 -0.227891271362472 0.7538924411943468 -2.0821479884637237
P 0.595391505009225 3.1136032714957995 2.672529722278658 -0.12608021416124093 -0.1860473387434925 -0.3715272350192892
P 0.7468409255925589 3.088169849822082 11.829335705977911 -0.724614518165836 -0.05200647497427817 0.4030661861678349
P 1.8842904291372093 6.492728508964832 4.111678917649893 0.29426815612580937 -1.4640625018000788 1.1356362117353218
P 0.0073547210295845915 6.285002215345677 9.311612652897272 2.170828421820268 1.26089572976748 1.188327628591766
P 6.339693772304778 2.0043716550416693 1.1702819907535948 1.2155129307573065 -2.46598566541925 1.6968247281016064
P 3.7438495579400413 4.355868404877475 8.843002089519997 -1.646790803472667 0.2536341846545309 1.735057032109928
Ni 0.2034535157317255 0.7142458662575754 11.50233470215067 1.4120850802915228 -0.09810635465613426 1.427085410355097
Ni 3.79875359898868 8.95917915124018 7.519744488113872 -0.9633507026626118 1.9909743563716809 -1.0267983295942964
Ni 4.861552822659627 5.5661962557578635 0.5847257275583326 2.4913226015221412 1.4186642761709374 -0.26395356430266803
Ni 3.8629884630995974 5.470134970409765 4.61205123319362 0.22906035196990873 -0.9563824988748948 3.011226400207027
Ni 8.94875819241419 3.2538704859062793 7.728501791489216 2.2279061406698664 0.24158162436537106 -2.3778063400688403
Ni 1.6199047911210658 0.5071524056876934 2.559774578243889 -1.1394542999298312 1.1626181396408042 0.3858361954427936
Ni 1.5607418298430107 4.304761362124475 8.653662136552871 -0.46002923381644 0.001622623205087528 -1.622288961676561
Ni 3.3009588078354244 8.999597320445599 12.397734340864991 -0.12599433931565399 0.13624095674432665 -0.1266330013409174
Ni 5.702065973358793 0.2204272991102656 13.165383925730302 -0.34240126418761035 -0.22125294011034796 0.876835909498819
Ni 6.094792001455315 5.926624702244753 2.7880018911278994 -1.2742014457374506 -1.2922307924353358 -0.6177031636235619
Ni 6.972785497861082 7.763254026254934 0.7331024434381872 0.046857069562854785 -2.684347914245364 -0.11095904224908633
Ni 5.960529772183926 2.079692645563216 3.849255524008431 -0.008656133013101221 0.3466564399195385 -0.933575271172392
Ni 1.8549121941490432 7.555075049140679 6.833506796388883 -1.2116398209551456 4.5961402636692394 0.408470902123174
Ni -0.06384407815494314 6.046364105918219 7.169770258832204 0.5162394624594205 0.2007090545207253 0.4489871170696655
Ni 1.567411982566739 4.129360365430979 4.362040605756592 -0.7242604772605268 1.4562442913072402 -1.214851643024224
Ni 0.7348845382586958 1.5883185692894495 4.903531364157341 0.9112475542094692 -0.1407468150344802 -1.2127042576639178
Ni 8.758095295028728 3.5270326406641703 0.14694106250967812 0.089770066876297 0.055375905667143344 0.6582949690029953
Ni 5.641581915350137 8.530386258554413 10.473276104210472 -0.3365170374926914 -1.0308174780560182 2.0580459532091973
Ni 4.147042737055932 4.3254185110029475 6.852085296565361 1.5302205856843905 -1.4856433132946478 -1.1086943930391553
Ni 2.9264786961230627 3.3133567925379777 2.2298800954234728 -0.22062944759373615 -0.7449578577088783 1.0876643118417333
Ni 7.939218567707639 4.778748696810905 9.286476708948907 -2.8503671306933875 -1.5489916956443066 -0.7676334449295231
Ni 3.150926563744916 2.0867415742726405 8.242192240227578 0.8869089774641049 0.5164952872239685 0.4286787445296166
Ni 1.1892364953841674 1.419449148739548 0.2602098637348067 0.6543146441990086 2.7693439567717855 -0.0643174311311473
Ni 6.619997240158849 5.9163977506309475 6.992140026886304 -1.2895992683497597 0.17739429105418483 -0.5451296631312096
P 8.059041117329183 4.949853819520285 5.7718346622363494 0.6872972697726163 -0.9340995191069784 -1.5437008795590126
P 5.069713322896532 1.5662017471002452 6.641083976435733 -0.3395864204466345 -0.4046566705834064 -0.18149571481706805
P 3.4214557634802834 4.121978852929235 0.3181607418586331 -0.9474718266488265 -0.042384635613797975 0.8840607093820322
P 1.4023857525058552 7.502702340289133 11.483228687125818 -0.21079600644308213 0.22154501742947005 1.3268010742110377
P 7.459032240669932 2.423528856188865 8.744281981521084 -1.173109268980115 -1.3756317225604953 1.229975643149856
P 4.63661531778797 7.624307908575055 8.781979430536559 0.7139536960178801 -0.876432246302497 0.3687743548645004
P 5.030505389157608 7.440250494842592 12.703087835187745 -0.36899161308162903 -0.758937716927738 0.15133410363202324
P 5.527468720830066 6.9672516730944425 4.759407101599829 0.7495357068875479 -0.05033242970596494 0.6719081889110557
