# total energy = -340892.0557962541 ev
CRYSTAL
PRIMVEC
9.08543803975843 0.00000000000000 0.00000000000000
0.00000000000000 9.08543803975843 0.00000000000000
0.00000000000000 0.00000000000000 13.29745694133897
PRIMCOORD
 96 1
Ni 6.260003200304936 1.9769550102298976 11.37640048951931 1.1900538672542538 0.23056161910578357 0.976065322015803
Ni 4.7315054195505235 0.5006339925053632 6.131869448304557 0.13209968088244348 -0.9430176475322147 -0.26894176154587873
Ni 2.9527674144962073 1.4919561483202466 4.775875065536473 0.21126934653507484 0.5468492169254776 1.1690595243907738
Ni 3.655053616359985 4.408645287730409 5.181579857025333 -0.032665094333188906 -1.2618946033456395 -0.5604554948550026
Ni 5.279548137119217 4.778404451530922 2.788609900038975 1.0462595236427015 0.5651989230772589 -0.23352944348485588
Ni 7.420895066111868 6.201284013228355 2.5174877045837536 -0.5474210302685476 0.6321419647567112 -1.0299384178851747
Ni 4.811112029045342 4.57990579777119 11.386519850584744 0.634808712955597 -0.44043794194807373 0.30829866607694645
Ni 5.6490347377737775 7.931115104460415 12.240123117099884 -0.49506642792623134 -0.6346899279895456 0.9582861436555109
Ni 1.8720817971051906 6.748054769449266 0.22165016737702267 0.07448357303087172 -1.6593221031704584 1.2688836330689632
Ni 2.7797988420741184 1.6952882552015547 0.48642618425062734 0.7595707225260466 -0.6158110888071717 -0.12464528148692727
Ni 0.5945692465829563 -0.015297152294730042 4.738136880891573 0.38350703308898465 0.19875424478719964 -0.4982196288432323
Ni 8.491822922877748 2.2292757998772474 1.284343891503649 0.09380387062603845 0.6666137732813359 0.02196082054180734
Ni 7.034763942677748 0.5196743453378546 4.62468247138843 -0.4891660032813962 -0.27778635642070226 0.4407953252874925
Ni 0.6864657283288171 7.3330025369800635 2.4785793154988918 0.6721377884233585 0.8944199411291693 -0.24796130263946978
Ni 7.51125883443365 4.113023299629248 3.56798695356042 0.6453054987218629 -0.8902352136238603 0.7696995834299324
Ni 7.69136856127972 3.981357129257312 12.692462554317567 0.5850288133189925 -1.1119982606014074 -0.6131384270710151
Ni 7.977550779092693 9.005613538438288 6.917243799580799 -0.2940624678729064 -0.044359242841665536 -0.08946384848978786
Ni 6.738587742846481 0.6856798379246513 0.17289316328504145 0.7194555996727158 -0.23339806011331418 0.08647262707194785
Ni 2.0912589082045954 6.447871891372483 9.468228606258418 -1.8827555958718927 0.3276858123543066 -1.4102783661000873
Ni 0.09692254615724334 4.869776703492732 1.3699305364206864 0.42475344133328136 -0.8986422067406331 0.5313333806780656
Ni 6.346823647729323 1.9685509798963314 7.134006001207055 1.18879891180123 0.9482644977534508 -0.6691432245714088
Ni 3.8588399951512153 4.607153026928341 0.6494343907757553 -2.040141562124951 -0.5354142356156586 0.3474280279782404
Ni 5.830734416304576 5.502995404171894 5.203002411753459 0.9685782696101383 0.8098509588378375 -0.6586927186620463
Ni 5.147727514297909 2.951377342451844 9.509928950501662 -0.7698877881813386 -0.14270522431243166 -1.2565143128703327
P 0.29149901624670527 5.56127849021495 12.639897843076616 -0.5035978624360101 0.11022447807590693 -1.0879018817738362
P 4.073419874522204 6.209651701809126 12.551177630524933 -0.7033504665807371 1.2648809396674734 1.1428062471211997
P 2.3721443155478714 8.452219497770706 1.4516831264179777 0.30117619609955226 1.0951449364894945 0.7660915543637
P 6.3335498225213875 7.596044143701585 5.9091372052381 0.5803923429882456 0.7327230062055832 -0.48940922964045397
P 4.66817082986913 0.880034623322071 12.629007128308135 -0.09316238038729761 1.0096500999497837 -0.47368384848539713
P 3.8569411385677395 5.919935248536957 8.30321195150939 1.8218330493549078 0.6984239758133972 -0.1658145566363854
P 4.993275064924262 0.7793770535214449 3.7172906851070064 -1.1476136958121719 1.0561886098309554 0.7022958000639776
P 0.2280644867451283 5.597247740042612 3.5893695323604717 0.028373923157002743 0.09178349776190001 1.0653705334405392
Ni 1.8627056248843905 1.2552986541270246 2.8011623414539537 -1.3709790542798324 0.5499504815586206 -1.5779888542076048
Ni 2.0476942320430283 6.394794761417138 4.8366039515425525 -0.9221881123813731 0.432640557390842 0.04504521316509662
Ni 6.009944684769 5.533467963889495 9.303645893293497 -0.7223282932348205 1.0382721345618506 -0.15567643976111897
Ni 8.697462731061464 2.328979398667036 10.186118139684213 -0.10383451538916312 0.4445691905076279 0.6017255572483831
Ni 2.3323682671150583 5.077515247900289 7.041482624225503 -0.5740023803015017 0.8039001405710414 0.5520510728413912
Ni 0.5787778464502304 9.094705345412287 9.104196902698208 0.16818305686856194 0.8656292421497221 0.04685115602558383
Ni 1.4027825724024612 1.1399045035685127 11.52182110477988 0.7046234197558897 -1.0124474601892628 -1.2115292635192103
Ni 4.093544120131771 6.963061664415582 1.6863572694524784 0.5530617734940927 0.1402019982746037 -0.5367540374730047
Ni 5.591941844134719 7.6938125441551035 7.954179397871 -1.2108952294796371 0.4443246785969896 0.4066328204731707
Ni 5.696415297978693 2.672363535377449 4.649030537216456 -0.5767961409965551 0.9236209881731577 1.2178914582918123
Ni 0.6606203822856868 7.3832995228466824 6.8453443673097265 -0.09654543792691761 -0.33551405014947383 0.35503463668090474
Ni 5.2294510308929665 4.272827072101782 7.332457410688157 -0.2511299301754385 0.37434619252532303 -0.18465482927134005
Ni 8.416877143178736 7.245582450634579 9.426873508666713 -1.3085752952316303 -0.7109197942875627 0.16741841078839553
Ni 4.8246765882756275 0.340387759192564 10.428810181928846 -1.8383151061703311 -0.4399044380421069 -0.03436819306722468
Ni 8.127160689906567 7.398263239559529 4.4873333594233635 -0.4273906218458124 -1.0930754555549758 0.8713046952679445
Ni 7.39984410580606 6.319776298212538 7.385620852306386 0.5123864072619175 -0.8992615854921867 -1.1924231388173787
Ni 2.4644432822059237 5.297428279493768 2.723904317733435 -0.6406284049611677 -0.7152315342890392 -0.8520268208749391
Ni 2.364630658157753 5.319560406945191 11.552365439459248 -0.6853604577612197 -0.8515658220781205 0.48538622452398983
Ni 0.8726681500307678 3.542948394429312 3.9083619931395064 1.1755898693101239 -0.22352245287081504 -1.1922524175674691
Ni 4.118183828525967 2.9358957557616856 2.6627229769050738 -2.0047575261987025 -1.6688734943043195 0.10002028384939549
Ni 0.9427868364149443 3.346602989522612 7.954645480850581 0.03885091142892664 -0.3718766479389079 0.7429593392216107
Ni 3.4152162187973056 2.6577995779453336 7.38929046079474 0.3441467861238073 0.3816697227699298 -1.8193717322986085
Ni 3.9864994872776345 6.877649459911955 6.2263879875144905 0.45040739445595973 0.27314937186932314 -0.184680797413269
Ni 0.6404488923974884 7.495395659339157 11.466569829463646 1.0929949800260272 -0.08043901928335824 -0.36483491060077816
P 0.29058138698866187 5.654249779299687 8.270353555720876 0.35258591803009603 -0.6348578210259777 -0.5744785486069719
P 8.407755363227492 1.8469514750482783 8.081622656568296 0.004864784291469041 -1.3478458106964786 -0.5943698882142602
P 1.7692255512605395 3.219388683867917 10.650492148339563 -2.20299189392669 -0.7470844171335779 0.19255840038913288
P 4.108898510687151 6.131671385751831 3.890317404333565 -0.900705517027565 1.3109967601889294 0.4954770331010887
P 6.7343175868932095 3.950039623787255 10.556864890616897 1.9907964360329198 0.27816970790205 0.18712694496091645
P 6.20153840549791 7.695611460918396 10.101121139706255 1.7190876532648653 -1.0730493901420357 0.3861182454595867
P 2.3026225424533333 8.40993586839512 5.871558924305491 1.309592680752551 0.43833837910656764 -0.20134488833251132
P 6.918188685153438 3.9804758417520625 1.4037329092380189 0.2193544375360545 -0.6246582547851565 1.1228557721412016
Ni 5.243978646572287 2.7932452906078242 0.45445816140556167 0.6150546702571213 -0.230144586173023 -0.6227893198972178
Ni 1.2260707994426114 0.9894678178785798 6.932110302104923 0.26810692434940925 0.8809427325783409 -0.09358841218112268
Ni 6.7869949575678215 0.46852423682440175 9.064783363249513 1.1316260621346639 0.546916065607671 0.14714680502355304
Ni 2.6615336930448965 1.6110026450345352 9.212066493340762 -0.49788230010847156 -0.9652301790735118 1.6451139299908766
Ni 6.409703965500794 1.9178814910635764 2.5204795393825026 1.112408865776265 0.2860560526286622 -0.49513430504968925
Ni 4.163810899158582 6.8092906229068175 10.494752292373194 0.3243377218176801 1.2006372991970549 -0.7532123844081867
Ni 8.32864845283359 7.366482376741351 0.13559107967366582 -0.801338293381136 -0.0380276441966829 0.5382658461318407
Ni 7.721550386974971 4.015663743894659 8.3800438681784 -0.2788119694717392 -0.328044481245306 -0.1064981782642553
Ni 2.9133002709621407 8.512864797745358 12.586907933327977 1.5166289630428849 0.6209406967242532 -1.281196131887729
Ni 0.08619991199543281 4.922917431515465 10.499950980110347 0.0474795336382021 -0.7488579640942329 -0.5025650502961215
Ni 8.509902944892664 2.280163339226765 5.294927966901554 -0.2967932365405082 0.5930506551822045 1.9502606807024023
Ni 3.5730666220571736 2.5947193805334963 11.55025125799047 0.6607601427140363 -0.6736652808114785 0.5059000282066255
Ni 1.145364851925781 3.1536827948167274 12.78546473389218 -0.6335581283779476 1.2333676995505403 0.41625131739954113
Ni 3.2514239389556514 8.628831330910373 7.93378168057166 -0.7609323787602638 -0.3616827381250416 0.6276301929292869
Ni 5.672820414977319 7.813258800150123 3.7086213599780455 -0.15541238746645494 -1.111821368703911 -0.23315071998919848
Ni 3.178068110941367 8.43379422910425 3.492191685389852 0.27455782218107555 -0.557723183525504 0.9175963792456326
Ni 2.982049781809811 4.173477805401733 9.377034428885295 1.7539458985946308 0.28626791152915215 -1.225035268425445
Ni 7.2244497213849845 6.024317847998948 11.505678098188874 -0.20024214218663577 0.7540040270715466 -0.3058861999807119
Ni 0.6730138285321923 9.425324441453878 0.4619727273394995 0.025227149997904937 -0.951415898898239 0.3409745590434128
Ni 4.705530151741156 0.4764312936885126 1.515059509115085 -0.937447866753921 -1.2896442626550821 0.5513483903474118
Ni 5.917418582155987 5.612520361654208 0.39804576708756656 1.108502331633007 1.2237769705383117 -0.4415347745566783
Ni 7.875266915854544 -0.17038921651754865 11.240100745666165 -0.3769460920420153 -0.07790673977980776 -0.07452239668860713
Ni 0.08465447895787649 4.867841505156462 6.052044788292977 -0.7988139842973855 -0.25518790229489596 -0.7057343934318814
Ni 7.875421368303917 8.866406454361638 2.1760087842635554 0.20909650725347217 -0.25854653435448377 0.49314452831317007
P 8.660939269503695 1.4137486963079902 3.376981969226769 0.5157720359046988 0.5512512026479152 -0.7720930233627735
P 2.1333063161870216 3.416097506302555 1.5615069948170202 -0.46993338030402937 -0.035984388514408994 0.8380693302535824
P 4.785354811752736 1.1177723761170888 8.357810892362973 -0.7890913576929829 -0.10692600983029327 -0.7953651065168367
P 8.546608115214402 1.53314043967382 12.358483663230189 -1.261287308778944 0.857453391207149 0.6303182812844111
P 6.3182590300333965 7.659260622686399 1.2041794361034464 -0.32123825695675 0.4572552706157286 0.14702570606465648
P 1.7995981711579576 3.2041887457619103 5.877436294276068 0.15673522004293652 -0.5849737917113409 -0.0546750229453768
P 7.005572429746129 3.9230195305850657 6.081046415566249 0.5209412388104642 -0.17466866459290561 0.10376998069981481
P 2.3679286722237904 8.446595611525865 10.204920454035905 0.07664509945856478 1.1992309057678314 0.6333462694774576
