# total energy = -381173.4730260191 ev
CRYSTAL
PRIMVEC
9.20790415554636 0.00000000000000 0.00000000000000
0.00000000000000 9.20790415554636 0.00000000000000
0.00000000000000 0.00000000000000 13.47669848085394
PRIMCOORD
 96 1
Ni 0.8490046681311796 8.04189798914211 6.489677398372305 -0.8781109195565007 -0.4623671379209973 -0.12450849879874687
Ni 8.094861853480717 4.117176196287088 4.057659066606027 -1.127209164013891 -0.27326224329810356 0.603834890281902
Ni 3.5796463790939548 6.386850891793359 9.329945653086153 0.5050765038640657 -0.10425463364571723 -0.11218211602291003
Ni 5.879209931283661 0.6381335357242103 11.862310802859334 -0.49287764780502846 1.1540553376724576 1.08030735725603
Ni 5.391992102050569 7.577257940743208 2.7234521794475484 1.8341828291695124 -0.9740603757706322 -1.691343136161745
Ni 5.810040155742699 6.2785843554767125 0.318480224371429 -0.3523995130509028 0.777412635803474 0.6021626447858017
Ni 7.807602869514872 1.7109298672846007 13.345071569109269 0.40726531185084697 -1.1720664295378975 0.9803135557691955
Ni 1.4964501572638798 1.2035927676099478 6.83922232877975 2.394769193175424 -1.1906519058495688 -0.8990906071319613
Ni 4.524533873328117 0.4673149445376991 2.8330179510316107 -1.2031574945157473 1.404037784507014 -0.13444684095838136
Ni 0.9440495749617676 3.7453426132339485 10.252290356521673 1.0615961539997718 -0.5123766370699047 -1.3027949411044273
Ni 4.542102554336125 1.1534557298276602 5.584056090349123 -0.4294356773002992 0.5481519948973012 -0.12882178146212006
Ni 4.373846522858487 3.972087251505543 0.9979250218055077 1.227498899474589 0.6175324423736526 1.3665971231620528
Ni 5.209473027134039 3.4805693310613717 7.772173616939131 1.695295950161906 -0.535867006882361 -1.014013519124802
Ni 7.237062716151033 7.498631647699507 6.94841057629603 -0.10529978708077994 0.573551151696696 -0.3884368662904342
Ni 8.838915751558869 5.766670927468213 5.788120740051103 0.7090374896631854 -0.1522368179519507 -0.21315036560787162
Ni 0.9418765095959971 0.841804087131042 9.622174142890584 -0.44592261921172877 2.4623359844818045 -0.39028857478719237
Ni 1.0249318045080695 4.829914012547506 7.344800718772783 1.9761630023904613 -0.9793046548887071 0.5284493742620512
Ni 8.030342069506338 3.9662586482151507 7.413922613212467 -0.5336913393872809 -0.539674039333277 0.6111872168819151
Ni 8.312591953646 6.2358412646805 13.24467042446822 0.4665058426797192 0.5721786968292016 -0.14326855301506938
Ni 0.931720191382248 4.592129097269305 13.35116259766629 -0.7870625001884123 0.4955364255841143 -1.7664792551749513
Ni 5.373677580811089 4.602294623387147 9.981314630152559 -1.6011526939185778 -0.7210386278891195 1.1795370268833296
Ni 6.798738857647774 8.35281207872094 9.29463610326361 -0.5194109182088668 -0.01268505166683622 1.50390663038021
Ni 8.527642553720442 6.081074812698003 8.104415053976423 -0.13815591437885238 0.23900872143187227 0.7994361912624167
Ni 8.059733699368794 7.442205611422214 4.55904601865627 -0.9569445420259519 0.8710786953000675 -1.3890816774178143
P 8.92622509816156 8.553083992727322 13.200709127960602 -0.3162354044255199 -0.3211320703961889 1.046386793249185
Ni 3.5698583770438956 7.513042017603874 3.921800124886552 -1.6152446532352696 0.9453136426552429 0.16755982146226625
P 3.72933006801753 0.3030155494484993 12.287392774487529 0.16829387141481336 2.1423670811557813 0.6105053603235421
Ni 6.935651183595402 7.839710831084539 12.150052280999613 -0.033355435531994174 0.33718449587336125 -0.49300980250751864
P 4.85172753734204 3.4207363702699474 5.480447832712746 0.9097604281409816 0.3646024828749979 -0.6429650235141443
P 6.3611976709923574 3.3774684289404764 0.2689315716606359 -0.3797640211067847 0.08530868867083372 -1.0976697597938772
P 2.5532321020270334 0.14356043270223082 4.411664305755757 0.7447691387368399 0.4217403655385704 0.9860260327729404
Ni 4.0485773107998435 7.461367259838181 12.149540321532085 1.8373511995951648 -1.7030699376803702 -2.243557731164194
Ni 2.300576421639854 8.523591075919853 11.045286106430938 1.064288356119954 0.9122032332545194 -0.11986251538630324
Ni 8.326661631098956 6.744403015599422 10.297478145854377 -2.0995767254631326 -2.1618197905637544 1.2199840791547827
Ni 8.896612478600892 8.321136888643608 8.720447778298421 1.504434477859222 0.8002990534833443 -1.392580691710008
Ni 2.351799992105027 8.59023788573954 8.735205286187066 0.2729416267338912 -2.021204616011132 -1.445641833201046
Ni 8.719958838591124 5.530699969296187 1.945428481592277 0.64473188560658 -0.11895311619815642 1.0352662578559912
Ni 3.896481151004099 8.137070885839579 0.8053564403626987 0.06874949876057193 0.9231404489923133 1.0782695008903944
Ni 5.496372902840287 7.600314532590196 5.186022336991903 -0.052761607972747836 -0.9103435543379611 1.410301763138855
Ni 7.629632499219912 4.34055074166092 9.85780072544956 0.9090634020739571 -0.28113110452321904 -1.737504979429788
Ni 4.540012360107185 3.1554474454682047 3.226780157680437 0.22513479166325742 -1.1101671209299397 0.6168876097008021
Ni 2.4963825021614974 3.450965919404796 4.5422535639632375 -0.036086718420228175 0.3930895345710972 -2.7215569191954936
Ni 1.3555416009402164 6.598559022682314 10.093346278452524 -0.08239794278194196 -0.5589861093983276 -0.8900359531288606
Ni 6.252940342579803 0.885559126586993 7.626625197743384 -0.30724271400860637 -0.19014850539605962 -0.2559818589511011
Ni 6.304458565975929 0.19268828419600817 4.278474735432624 0.8293442916757587 1.2232591503616288 -1.084686717270648
Ni 1.756288002843012 0.5917155704047814 0.16527727450379656 0.13143402227398657 -0.8433812293847991 -2.299060135106873
Ni 3.2575354781389523 8.443519141933669 6.371216791435131 0.0939103142969157 -0.23992969058424485 -0.21135933514571986
Ni 0.1372502560278136 2.842618111838188 2.644600292753587 0.8812494651854822 -0.7594516804496791 -0.7552330143826412
Ni 0.4421874950603649 2.05839012820556 11.852608434317332 0.694050786446366 0.15269267454244673 0.31765516759118195
Ni 3.3790337726361583 3.832044238166551 9.067662188180119 -1.6878145541831964 -0.368893654051184 0.5565101370540093
Ni 7.994514114683404 0.23420764453836135 5.85000522187428 -0.010176940533001827 0.6695761983437694 0.8361101496446827
Ni 3.7009328917970388 1.0834940745347637 8.156259237177414 0.47840413677920185 1.4637447134493435 -0.6286745750334012
Ni 1.1019098827192586 7.637090901534632 3.7564676029582023 -0.2722037201266022 -0.19317058005183507 0.6658216163973436
Ni 6.340452263072524 2.187844051838468 2.059953630320424 1.2456629719781256 -0.9366225426391482 0.9383976322617
Ni 8.968065814356732 0.34880277333760923 1.9514255895275578 -0.8884709226345859 -0.4421626379486643 -0.5999908339454635
Ni 2.4232901594772365 6.192923223706534 5.424762111924469 -1.6220544770682517 -0.970267484387103 -0.06553176315422263
P 1.591291569414029 2.872718750315745 8.250434917861694 -0.6223414337265218 -0.9616797427180922 0.30820816324566924
Ni 1.6967496949825396 4.576411204983839 1.943973632745702 1.7504389138826368 0.8185436015158291 1.7768284596197594
P 5.462819300328137 6.815064471603329 10.350832425326498 0.9061259167121879 0.9670492345601218 0.12070635144383729
Ni 4.65351819385232 1.6434083065761498 0.5119622299001888 -0.555055921105986 -0.9312445661566865 -1.0403799249334729
P 8.9107374034784 4.820402247620213 11.499936499680162 -0.7114676963712327 1.3491755852514957 1.3098878433954666
P 7.512507959166524 7.249852494935164 2.2370916060854444 -0.47329304080488166 0.43479539895031577 0.0672996536879228
P 0.820799016315807 2.5009680383994364 0.5673367235301469 -1.0796113596302697 0.1940864069978851 0.300885661442327
Ni 4.203684455233753 5.252455523436651 4.055825772901261 -0.1604862024449365 0.2258343888334433 0.2503208040105818
Ni 2.081446720052548 0.346204302802777 2.3195824564766623 0.4747611407099759 -0.5472127709124834 2.370977232962149
Ni 2.728624259176164 5.061013989454732 11.224337484666327 0.18928975694019012 -0.32491853402181464 0.2785391754263268
Ni 7.031422594058869 2.54096717377616 5.94678213546462 -0.9740894292363546 -0.4543722926409788 -1.2566043014809778
Ni 6.38333347243012 9.047115670988678 0.871367904800021 0.351636152522317 -0.7757265063503027 0.42143594692427416
Ni 4.451699351958439 5.9649447262865785 6.6314386066149105 -1.5870728187867442 -0.32507948507971113 -0.11613055914769677
Ni 5.951326236134144 5.760446384301853 8.251297698475138 1.865100087573659 0.857141002173053 -0.10117573761007738
Ni 5.060737752331965 2.1495944182392717 9.970937322240594 1.1371081682951576 0.8092562626766321 -0.287435192364376
Ni 2.723292882706753 2.381495482802525 1.7898940904084877 0.126782125324272 0.18965973868509914 1.5791643625729448
Ni 1.6340622839225187 7.47807960576561 1.493096638593483 -0.6412914924664632 -1.4231950741617552 -0.7331960891872599
Ni 8.779837838903008 1.5789713937386018 7.714277999168716 -1.8580974310035807 0.34185876142057897 0.8209054168797862
Ni 6.405165413032839 5.680484945164776 3.822894343870085 0.603772926695715 2.1550079098482433 -0.34010449773363366
Ni 4.583197430299826 9.126764041386618 10.03174447928498 -0.829530439544636 -1.592211168454574 0.2523653452444363
Ni 2.767619733006832 3.150548840491129 13.176787913919354 -1.46310939385819 -0.4971773036216469 -2.12791645294809
Ni 6.566119576565325 5.453344367017215 11.752314101363755 0.3826274586975088 0.12270795525489835 0.3942236481755404
Ni 5.083186622508865 7.935233628137515 7.938772225680165 -1.6530753509297984 0.6365308378530263 -1.0134815578807321
Ni 2.738798993198097 1.7121176869125008 10.720888882889831 1.117843663638591 0.9464510986937958 0.7229664410394516
Ni 3.3966484931646277 5.69463749375456 13.416511093008971 -0.8881924721622189 -0.18392797840764452 0.8699222130981211
Ni 6.5094357189734495 4.716408178802371 1.9577330038307477 0.20305390060381803 -1.201437426500847 -1.3174229754302473
Ni 4.593906222759109 3.6551051531299232 11.981768625809698 0.6759417355504811 -0.11502601322960834 0.2459789821021183
Ni 7.878899670901144 1.0596087713194737 10.662912235563404 -0.5515923880374177 0.13403289334941432 -1.0158827111230568
Ni 6.576975695490085 5.345326444111059 5.895327446606732 -0.01333708342853832 -1.51314794647282 1.6905291249008818
Ni 0.4791296062784619 2.9202407433358344 5.547844165925541 -1.1653532791837802 0.9026194462208261 0.7748433324144011
Ni 3.0327060839185456 3.2271401867304434 6.607113165584011 -0.017055412820389984 -0.21297707325480092 1.9461782831029126
Ni 1.477638409203418 6.995207907264059 12.592128360420462 -0.3869294285069723 -0.21363270456092887 0.12925835477890643
P 7.866109892117012 1.5581983621064917 3.6640579982788153 -0.7848395243951646 0.7769876324509134 0.2226739888275907
Ni 6.913671916527207 3.0525951567578002 11.679162828093304 -0.12040013305732813 -0.10622821243232028 -0.3572424429655009
P 2.2971879129339072 6.621044724475581 7.546384759112311 0.0030233602073560834 0.6625912823855041 0.3559301519119806
Ni 0.12356270659468768 8.519244945188312 11.108195427979583 -1.0367829516108338 0.48722713438747056 1.20780553481072
P 7.128381824150235 2.2889100071549766 8.982138254180914 -0.23850272832973116 0.9938673831942304 0.20118702259840837
P 3.423351415032146 6.315434387653887 2.0755729980321034 0.05381293205539764 -0.5838155097371817 -0.0718978145815665
P 0.8772195278506443 4.901505466864729 4.260981559238172 0.7327507741197251 -0.1403763190689389 -1.007964741827561
Ni 0.4896652901408115 0.8371513331932293 4.429291917349955 1.2306891242771127 -0.6907574604070749 -0.19079076696574884
