# total energy = -340855.3693154635 ev
CRYSTAL
PRIMVEC
9.33947782137817 0.00000000000000 0.00000000000000

0.00000000000000 9.33947782137817 0.00000000000000

0.00000000000000 0.00000000000000 13.66926984047093

PRIMCOORD
 96 1
Ni 1.9629807530009544 2.8318697171541882 10.578046493409515 -1.8835588084994785 -0.8772503713284182 -1.3028080537305498
Ni 8.844578734040821 4.171757878925623 9.197682903376938 0.21117113039431373 1.7432429103548301 -0.46824545107864524
Ni 9.192829176839645 8.047715821562779 1.704352871727066 -0.6554582708851485 -1.0489337280407547 1.1580983973935797
Ni 0.08458951701666774 1.9649046853978798 9.136744679573736 0.7590117646987831 -2.9151075082945668 0.8399202674193922
Ni 3.551028175542813 3.110905291051969 6.238340523605483 -2.7200890764007157 -3.060857175860277 2.2041535183349588
Ni 0.09867905300696773 9.152576028146688 11.921789991556926 -0.27439867089539194 -0.23191144826545868 -0.2936840014875652
Ni 7.635994288620724 4.872676337454075 6.7293953155399855 1.1578824247280317 -0.36355115879234806 -2.3006447059851736
Ni 1.6462603867653367 4.25416942975315 13.100710388049281 0.7929233298445635 -0.11255132643687069 -0.20433842374319647
Ni 3.7544326593905812 5.5467157792915005 12.73579551527068 -1.7881068607470558 -0.6824772226761536 -0.27623341011128555
Ni 3.1260912817189634 5.251868469723841 6.558966659396413 -2.663619166338445 -0.24758000804065103 0.9269605940693519
Ni 1.2512565188256926 0.5409574889405802 3.172487004865598 -1.735932492736346 1.5107974439627723 0.2301795531760165
Ni 5.2250548293764 7.055919331470033 12.426322583695326 1.7931660204375182 2.273700573296162 -0.3164107536611196
Ni 5.383162846597524 1.6959650868451301 6.074390663111171 0.40816468373666476 -0.7057642182285522 -1.467536833501924
Ni 0.7820598403949022 4.674259134674066 4.9447350773010585 -1.7179219150915381 -1.0190994182881417 1.56557402548302
Ni 6.561945018820586 8.937730684171573 7.323010647394862 0.447048762396372 -1.4554104825520353 -0.03307055730172369
Ni 6.424374512962758 7.935212473730912 5.0415957340086015 0.27649206308931096 0.8804282548357677 -0.19767386723882732
Ni 7.616054503827345 0.8902716982443061 5.8242981304661665 1.3707409701270974 -1.4136033167082622 -0.03369533536991617
Ni 6.314402163575391 4.051782948969774 8.426339179643357 -0.0670055194862717 1.102123938910489 0.28586476255346255
Ni 1.3326500665888268 9.049963187151445 9.148992470570475 0.1333554076664155 -1.6395230661666602 -1.9624898757787426
Ni 2.757396722333392 7.450932538887332 6.820213330204758 -0.7976947830912777 -0.8594341690826037 2.312312115020773
Ni 8.411656586821966 8.895600300469967 9.182372697657131 -1.8188549405631902 -0.22235928580064931 0.7329119822879379
Ni 1.6620347645245948 3.9935139478803654 1.9999921689998672 2.290240479932714 1.1609057849353877 0.7470350519528811
Ni 2.7894965070335522 1.310375412381704 12.610680136813532 -0.5450630715593322 -0.4587434251254809 -0.07873154967394827
Ni 7.565798774565908 1.5986477296802581 11.763267301527922 0.5016934463244457 -1.4984774889448387 -0.16893407610197358
P 6.055334392903953 6.779162590120067 6.792314442553806 0.08403033617904238 -0.47300456303018534 0.5072693977503263
P 0.7874739355914928 6.50270471205506 13.033525921590432 -0.6855427489753548 -1.123732261208884 0.5775255629634118
P 2.4852910408556053 4.598161070741304 11.121030649001227 0.8933251654030938 4.7778115848322225 0.40572907771197864
P 5.413674920096337 5.52757918957645 10.867902786118355 -0.22158075576341194 0.5423605850265047 -1.2809446779985554
P 3.861995423542964 8.28183784741777 0.8702908197492458 -0.06474063471149497 2.046565977594056 -0.7106896805546278
P 0.9812242013873104 5.37180604176907 7.238985234828556 0.34318159399706055 -1.0707467101507884 -0.8533691938354465
P 2.4570111025163315 2.1450165119741325 0.9220483370176036 -1.6328273993140396 1.8709691447599264 -0.9001781837691851
P 4.9900642320994955 2.4570391209492968 7.994458384183032 -0.2441894943018633 -1.004576284971302 0.2814841169872636
Ni 7.539508144967145 2.94413957804468 5.14276188991509 -0.32719730275366227 1.3822425430087937 -0.8360492144997602
Ni 7.431394351633118 3.5740593274399886 2.4916755077805486 -1.9416739674746561 0.8187019814705643 0.5885378549135155
Ni 5.691580417197867 7.599869189051269 9.391772192211631 0.2779851026950696 0.17029804632903572 1.1613523855545032
Ni 7.689602890360298 2.411583883202518 0.40179460214257884 -1.8902465049322994 -0.7358798066670101 -0.732278719579313
Ni 7.882986114684274 0.9862955377539635 2.735453619583022 -0.431842744079895 -0.6387036771346289 -0.1466616378570184
Ni 0.913951943838503 1.9441710450038283 6.2967075892102695 -2.2494401580869003 -0.24374366501369635 0.2770443360483551
Ni 5.385731202952643 2.718880716484263 10.594736139978961 -1.1338127853733377 0.3631428676103358 -0.36427235322908874
Ni 3.371943691508607 0.798319870992219 2.1019372373427805 0.92128642650271 -3.2662181273307165 -0.04750318778728593
Ni 6.46405795351876 7.9607559451172785 0.7305115274260159 -1.1742901766620937 1.8293530118810366 0.8710462994002354
Ni 3.428765073561494 7.727679940759644 10.829533410068409 -0.8107906970432874 -0.9947554422261384 -1.2289852542121287
Ni -0.08669743712339631 5.89644185955981 3.0905265508088067 -0.529482700622572 0.06638151274902761 -0.40345956495151164
Ni 1.5264442279296226 8.875511084034109 5.852866658664979 -3.0168794847277463 1.0340907494906513 -1.9566267321297461
Ni 1.9602069281374257 6.647139733989297 4.493211492436783 -0.07115373732669036 0.9062459872298199 -0.32490413584411143
Ni 3.786709894166185 2.6446692270378067 3.110660596737409 0.8494788576421048 2.4725311798472513 0.6829130246619917
Ni 2.564517829802785 1.6766884049652553 4.887761461762396 1.3827423654633475 -1.563820790237339 -1.553521722304176
Ni 0.20496230872061866 6.816632574471839 8.521709255717166 -0.7596504267240466 1.0251461387028538 -0.07477256502620026
Ni 4.247977356067899 6.830716506775546 5.268792537182427 1.3906842460182436 0.5494737990325183 -1.0348895912428628
Ni 5.364950865170316 1.9761867744050936 1.533897131098295 1.367631220853522 -0.11715951463284338 -0.880191199124297
Ni 4.698532437099352 0.3291867010094825 10.925040776463746 -1.5918257600906973 -0.12090432638725628 3.0573172810278186
Ni 0.0008685714219129644 2.688835616868198 1.8123536573814674 1.3761019773286947 -2.5872327198579055 0.7146733477927241
Ni 5.204190436295177 4.328623745618635 6.325932682688227 3.391186596485018 1.950661515685247 0.5035443834902553
Ni 5.734243151125806 8.70259065525219 2.7549180249637613 -1.47865325513006 2.3389150623202815 0.859676881221029
Ni 4.228074929185141 6.307556326454292 8.178378849746984 1.4118644796402846 0.2967204743210438 0.7870244478616253
Ni 9.07749596727832 4.658699564900871 0.5639204626508748 -1.5784897051034235 1.1262388296808217 0.5219658234202366
P 0.6507495864092063 7.483144397319352 10.604140993977525 0.01756397702569233 -1.2534030209348608 -0.32387132370422284
P 6.861443388260423 9.087059592397019 10.704911156031443 -0.43855949397843824 -0.15174599435846123 0.6049180960437518
P 5.907873380209503 2.5189411788464913 12.710821752021268 -1.399322895529848 0.4169732831672303 1.7337200584660595
P 9.115544999244701 9.376275196938726 7.244275114972336 0.22314912869179634 0.05912097453187237 -0.9566401234116557
P 9.496007300475545 8.263513792258703 4.125208054397681 0.602443409251014 0.3026885189790206 -2.1175214828670113
P 3.252557148645022 5.443215687919032 2.811632003023616 0.26360415138304927 0.6948866520841 -1.2512798039442707
P 7.339923507480263 4.942190069640077 4.190697405662153 0.8986450349541104 0.9355061696465178 0.8570394435981821
P 3.420154075163604 8.61934789091337 8.745461659531834 1.8274557948583237 -1.9228804889172366 0.03323202258025244
Ni 2.9864660907770406 4.382867431838748 4.501277065339623 -2.400059752150402 -1.2763735136881051 -0.02696058774924389
Ni 2.2240565113682127 8.054300153309539 2.404028245779641 1.0336474913056457 0.8133206625539927 1.6212335238288529
Ni 6.394721671408203 6.5850975839272765 2.995388093780841 1.1325609152441076 -1.6957016702407572 -0.1628297629764486
Ni 3.0187526650303 1.4189935375090992 8.873242524911714 1.2094664674529108 1.060356625165716 0.11809693884544822
Ni 5.026768379283559 4.384772685280364 0.9651051969025836 0.32111818643911794 -3.685521344182704 -0.357862593048003
Ni 0.9594352000182464 0.3465721386642242 0.5275870927297135 1.2465584872092015 0.062458780655853724 1.034520123718586
Ni 7.384276686863754 6.150167449012601 8.490215603116814 -0.9573281506176158 1.8335976460900036 0.8417148974259698
Ni 7.109313125223543 2.31470548148743 9.522505266478248 3.546347787172615 -1.6098345379632921 -1.6665548734734716
Ni 3.4095444285475494 0.281408735169911 6.82468320421043 2.084333683261133 1.4514597254344035 -0.70902257726485
Ni 2.3007896597815125 8.071998463465722 12.916188460124348 0.2629552049451407 0.011956915251560053 0.30132686274480364
Ni 3.8870252236583047 3.2988622788584037 11.975168842146187 -0.35951658371165823 0.03931396710827423 2.4476578136443394
Ni 4.54821354424248 6.418219797188128 1.2863589455919278 -0.5854646153048304 1.8601622839524095 1.2678330803172615
Ni 8.70720435721375 6.907262865635747 5.3649835533421095 -0.707051312471092 -1.396387467050608 1.2741484810123282
Ni 6.630291316299716 4.817975016828869 12.52106504687072 -0.7469178096487266 -1.9493772496561845 1.7412644464722205
Ni 0.34470517708099413 2.0398353146237693 12.89953897330882 0.2908254489928475 2.0163927964447854 -1.0654934321716487
Ni 2.04809141287077 5.7174414308245 9.298670675260215 0.5671994984470554 -0.5875310109155559 0.6234490649684037
Ni 5.592974212116607 0.6075031351278303 9.093003235976646 -0.11989311151392254 1.255171425689193 -3.5010372361612734
Ni 4.934242174155691 0.5742293780864397 13.211034835744242 0.27286629341126556 -0.8497156562432592 1.1975195795036797
Ni 7.718723381688521 5.79839602313785 10.894408223703183 1.028651323642635 0.9174526545789168 -1.6877980991229644
Ni 1.6456439812401082 3.1737132782816966 8.036464552831827 0.7943088973381803 2.989959520408451 -0.2763568230630273
Ni 2.069525514088945 6.347305143353879 1.200000531507407 -0.7204364755287463 -2.167771894382131 -2.189115907275546
Ni 7.894473672199898 7.04247982312452 13.02632144852738 2.0999490212008864 -0.881744916764662 -0.76555959311963
Ni 3.954540307626142 4.067463931952482 8.855677769285997 -1.2066459672849799 0.04466186168374889 1.0840796798142684
Ni 5.042935015104326 4.749161745466989 4.101245756578304 2.7557649325357705 0.35900570551351074 -1.9159940462100487
P 0.9261773200888694 2.7014719301353836 3.9362442709000396 -0.22031937255248507 0.24424400168888258 -0.19649270244653255
P 8.323221072906978 2.7761877513752085 7.537003297060079 -0.6765210050927187 0.42993395709295634 -1.6803421570655512
P 3.724527651939341 8.96291925540705 4.512991572162261 -0.0825583796192062 -0.3311339188039071 -0.0543484928438935
P 1.9078591558812734 0.810231440793378 10.69940179816277 0.0989213943582619 -0.48304934886069706 2.983522249423539
P 6.569855556394352 5.817084317925461 0.811968583637204 1.7838874233490698 -0.36119062897997145 0.31059543253092314
P 8.159210505807907 3.5637765625418574 11.145157321627332 0.6797431115744422 0.6275736286597385 0.2569910169419058
P 5.963032335239805 1.7681685885957659 3.6025634132429816 0.21715717277441954 -0.19915739376288927 0.6461423928008614
P 8.064237357534436 0.10207301918678678 0.476178871925652 0.032095337872647955 0.8903848518278472 -0.44024305232844824
