# total energy = -340891.830661373 ev
CRYSTAL
PRIMVEC
9.07682471352621 0.00000000000000 0.00000000000000

0.00000000000000 9.07682471352621 0.00000000000000

0.00000000000000 0.00000000000000 13.28485046775060

PRIMCOORD
 96 1
Ni 6.2612572717276125 2.0542851380921574 11.657894337478437 -0.1855061215280418 -0.7731908844126425 -0.7197852150979926
Ni 4.542206503273218 0.46416158882750536 6.035533885390493 0.25795800884086545 -0.6146790320852575 0.4724569180568315
Ni 2.703741027999599 1.5375233496585863 4.88379011184531 0.4529826113823037 0.2678899232425967 -0.7080542998143097
Ni 3.5887132905004124 4.119172007528557 4.838648339161817 0.6700675361578913 0.027293288498314285 -0.2253430510193216
Ni 4.722753624992676 4.4845051281402135 2.3172362135861917 2.2248868942275686 -0.259710729865914 0.08299392449472803
Ni 7.468320661583259 5.9056363536316585 2.5848600384775 -0.8334184617451323 0.40018063708992374 -0.7800960961729081
Ni 5.05985782053533 4.732411366559691 11.403636137077195 -0.17922234540185908 -0.8604430699630924 0.45856807588988124
Ni 5.64246289593049 7.848848386878358 12.416871195193782 -0.8900961169428349 0.4552706360855321 0.34884727692327017
Ni 1.8735837103514221 6.553576413800668 0.4442343277032332 0.5515998442365855 0.46495058237745734 -0.4591622578304544
Ni 2.6271326268477098 1.6953693326006891 0.49312936743368285 0.3907724564021463 0.25492153600738676 -0.26152130071209156
Ni 0.3928095769063105 0.32356883442918327 4.867794931216181 -0.05292358747190885 -1.1523296132306027 0.7512902276848094
Ni 8.642426100658986 2.4586122979631164 1.5182459891886357 0.7858132011623434 0.5642108481323767 -0.504237295792222
Ni 6.798823142559304 0.7120233508055559 4.907410732972984 0.5734516500043544 -1.5707625116624946 -0.1726269515725285
Ni 0.7719712400718651 7.261523362597064 2.638822669483198 0.48140692816126773 0.06750817015430309 0.4742937141552541
Ni 7.853786179559239 3.9137090017851737 3.7758338487262915 -0.6027979643769554 -1.5564694920785904 0.028804582936518133
Ni 7.501723376777448 3.8563706996434104 12.743798454791945 1.0298229753532326 0.04656756334689399 0.4696772984291653
Ni 8.065866190567993 8.751465996753494 6.884103542106988 -0.601809375211441 0.7953591929795658 0.5488132826303839
Ni 6.8615984627449045 0.48118698906928237 0.20738820027944002 0.31107417193955456 -0.19649707332190675 0.5373235368232295
Ni 1.9131586663967108 6.48517346225083 9.113526922031589 -0.0011333422734948223 0.523730371519827 0.5959246342958898
Ni 0.31214020434738904 5.106812235127596 1.299036132314383 -1.4927968936202936 -0.8110573204411129 0.38151879901436225
Ni 6.376796174365338 2.128179568634519 7.174377675556878 0.08974872672005833 -0.571895361260828 -0.13302810623398378
Ni 3.4387550682930246 4.574038927780288 0.23767937993869168 -0.8993286912846963 -2.269012938012505 1.0776400948365117
Ni 6.121628476121037 5.445296108036967 4.654414211216305 -0.621809986703084 -0.037827869481050984 0.9168080790163824
Ni 5.511547852113701 2.818217942137943 9.392057459579782 -0.7880793714887009 -0.03491172427552052 -0.2531343621999769
P 0.08664192326483895 5.658011496780393 12.497085818831172 1.2742904059068312 -0.36236742289689206 -0.22997823579848778
P 3.9451965069505652 6.306850162602724 12.630997122508179 -0.15051417883388918 1.2436706241384452 -0.6922209323264789
P 2.388130753538422 8.454236292473901 1.6781823648778098 0.14077406872798984 0.010569547985730185 -1.1276801901130387
P 6.284312406671429 7.806096542159709 5.841216312795735 0.049116297910676704 0.49685051640984756 -0.45159807232995125
P 4.463592123844721 1.0453779100311669 12.6204217139558 0.561050191016208 0.26496143674189204 -0.012311984598133636
P 3.9924323031110425 6.309999820801742 8.297917031459967 0.019181715134773417 -0.06006328384048366 -0.33583672359621514
P 4.821727322405022 0.959846990119526 3.781319881623946 -0.7328366489653121 -0.08032023431730682 -0.6628576486730132
P 0.2285235867820672 5.5393955505419 3.8857124434305663 0.2625775098907478 0.9067254979693997 -1.515689996168383
Ni 1.3306806665484863 0.948746033412327 2.811512891672196 0.6404083185305616 0.7677761411549745 -0.8001825825101381
Ni 2.0835306675366345 6.3215001577993055 4.914185674989544 0.6068412812083936 -0.09707765628130378 -1.9575921813668093
Ni 5.928101494964706 5.478971127974586 9.258557336065355 0.3404780790229685 0.8739087085496949 -0.13503279536883842
Ni 8.506881876203872 2.346177669400504 10.329847765481405 0.7444899169335243 0.3116297873327084 -0.47166347562125865
Ni 2.457268927895524 5.239388337879313 6.945107066095332 0.01789796332634337 0.13790908847536895 1.1081477765070658
Ni 0.7789150110293528 0.06556372075833225 9.180230691982418 -0.20994137175227068 0.040915250157123086 -0.15336373246754234
Ni 1.569718847156898 1.1774910947190513 11.56071603600778 -0.7887889959612158 -0.19367400205081484 -0.37587059958964947
Ni 4.115069282727532 6.7606097102311695 1.5627895991190601 0.15553580041819665 1.579460810767441 0.18666568905378175
Ni 5.807443263150481 7.9559549192945065 8.138538880494826 -1.4724108737647739 -0.2656826311786327 -0.2475018465045479
Ni 5.787919013046487 2.7044308666829573 4.645990917819509 -0.8884956052249343 1.9412206819873215 0.13123373333772237
Ni 0.5345541803693452 7.066743779620952 6.474942973040131 0.41429882165886067 1.6209021086313633 0.07310880417053214
Ni 4.862582110744436 4.636968553987166 7.136369379468795 1.6202279653824743 0.14263914696118662 -0.9344463609234358
Ni 8.206638666096978 7.410564825501568 9.12072756713038 -0.0725480465710557 -0.32255620443722516 -0.05831596213207377
Ni 4.486756180685909 0.2542836155106289 10.538088279607784 0.7249220221039258 0.297290745002217 0.019039790240270433
Ni 8.101165962141417 7.420621947358948 4.492843099384068 -0.6034106582602898 -0.5096093587374126 0.43365588602923383
Ni 7.164827948204756 6.238737669445879 6.992282047529776 0.2684388537675312 -1.560891532405686 -0.08174848212340115
Ni 2.457341542493772 5.219219633215865 2.6278896340344478 -1.2744541851782052 0.21116830218083635 0.2678207605675581
Ni 2.377483638070275 5.243699829650302 11.374622066664633 -1.09769547082549 0.3586565497042081 -0.26768629187222287
Ni 1.1479914141807055 3.33361820685436 3.977391096766399 0.0877664061827069 -0.13341737125260247 -0.8974656699340285
Ni 3.746867885485071 2.4469304244699313 2.375357845706558 -0.6614715669587641 -0.621348216575317 1.8175462490540955
Ni 1.1114390407874997 3.4125865824493165 8.250928124933534 -0.4217331664497188 0.20309529536471477 0.4197629300972255
Ni 3.5531230605339963 2.6836721684087426 7.278132136581392 0.732694209850177 -0.8158552560503883 0.07562051484879234
Ni 4.200491280741801 6.98446236298092 5.99395204338612 0.44840913307900837 -0.1097691357060432 0.2934783132346623
Ni 0.8984921930121572 7.511635269438331 11.49813132914258 1.1291500897903457 -1.827786695835181 0.4343308006090713
P 0.09086900056536439 5.733521602133777 7.954675994682859 0.28570021195114026 -1.4030389109288546 1.9074878085112503
P 8.508252476745808 1.4573205258934097 8.091205054626714 -0.23945043695498114 0.9588494723581487 0.2062181572644126
P 1.6050276955551026 3.3376392402323556 10.49810032803496 -0.22406469852753025 -0.22890788555244448 -1.1549490531313207
P 4.154607931473697 5.999708565662249 3.6897610423752236 -0.08119518072309241 0.7250842587134029 1.6407569385737613
P 6.925562846976819 3.923475665249562 10.639132400752683 0.11121203880015684 1.0385593267849662 -1.1153432658142404
P 6.4968644125687955 7.8534957211662455 10.411124377618178 -0.5274114199158401 -0.9778422114105675 0.1766443002620377
P 2.1342065802891224 8.392359577941622 5.700635358269629 1.0900739497244902 0.7008325852548898 0.6819092659878255
P 6.768905928081031 3.7413219455438615 1.5633877618721297 -0.17442440979258347 1.178011591377739 0.6186835252589603
Ni 5.117622733441801 2.8289013649052146 0.37122034916463187 0.18426273603924395 0.265763106707581 0.20997479609336744
Ni 1.4071347616790975 1.241119636434068 6.932366834832679 -0.15905641197694545 -0.10360620142844093 0.6281739812478987
Ni 6.7824122433552025 0.6225921192855065 9.490737067869222 0.47646243967179874 1.4128900926913215 -1.1148362442708348
Ni 2.7715902932377943 1.5972670103673223 9.469999246292005 -0.0017601772242163236 0.1405750653433063 -1.17183914401844
Ni 6.532708793629082 1.6047100066877666 2.280810008057442 -1.3119835495822307 0.8212162632519857 1.185730300178235
Ni 4.339766080181917 6.847529384334308 10.533982831759324 -0.6023575344054272 0.636652193922239 -0.964546522742926
Ni 8.500301178237626 7.32999892874515 0.5541973368779712 -0.722169399059453 -0.10220623575712075 -0.8662738177122564
Ni 7.64237785358428 4.03931410310506 8.396025707470681 0.33493683748976516 -0.72650633587191 -0.982079903640999
Ni 2.9946986463554994 8.431462539098298 12.67510232180168 0.7925870295510673 0.2487598872813651 -0.006701323279575557
Ni 8.864699385896836 5.13779143810525 10.164783891473427 1.435424783458728 -0.8226391117414413 0.0893895436084267
Ni 8.58790161419934 2.3481110330788635 5.927978957830162 -0.26036996071646773 0.5844045494714323 -0.17439252811338354
Ni 3.4622731213006714 2.9526094098458655 11.395704807583531 1.2790479751964747 -0.9288940636466388 1.1729125795882767
Ni 1.078326783986304 3.2801375552445338 12.70395754778057 -0.924901140437162 0.8645069556198208 0.13603424005015927
Ni 2.804094402778661 8.623074310225832 7.834687632537474 1.1872706480821618 -0.7442544038839505 0.1340210662748724
Ni 5.653781696432433 7.651681598984836 3.5504290589389864 0.10733944321862804 0.7471484376022939 -0.0825763773413352
Ni 3.1637000469534877 8.367180465999049 3.7364177371146714 0.7005561916650515 -0.08784173950533258 0.0056289161510032085
Ni 3.598026112725749 4.237052730959788 9.197886023863997 -1.0426584365550042 0.6345243489459588 0.5740175498101533
Ni 7.30425705366615 6.131649290679293 11.600438036614522 -0.7345654587309607 0.5974783519362549 -0.46418105120128444
Ni 0.7091242129704951 0.31522360172550473 0.47294886289801996 -0.8181250259211716 -0.5257939389170752 -0.45718610794069003
Ni 4.573149398951748 0.18887783150348655 1.4508115348429333 -0.06574207939281582 -0.32577573981578734 0.4092039236344565
Ni 5.8811198498980986 5.7047208371035705 0.21766861202643403 0.8816086482971139 -0.6562918225300375 1.5318969449455488
Ni 8.418591601558798 8.922890909568016 11.217328862351696 -2.2023560601149037 1.2840081474152274 0.18810756370663087
Ni 0.2834274845175584 4.804980580684021 5.826921221448093 -1.020319920958804 -1.248222762285502 1.5419831255369574
Ni 8.104215775267841 8.874529587134692 2.4807597504288283 -0.2900929417021972 -0.5041737895441382 -0.18196776935748016
P 8.380360015581102 1.6317044835865484 3.5967798646833136 -0.055271518878795126 1.2211667866089744 0.20976447985477426
P 1.6383214888519186 3.52274292799189 1.6341298111680393 1.769787750722894 -2.617610046598182 -0.2416088780588807
P 4.717189531401905 0.9949652251973292 8.28627963440821 0.05351057032363042 -0.1477255603451585 0.12784579070209595
P 8.33740848071727 1.6487598373501027 12.44433131320383 1.139019783495574 0.2620797443187229 0.9035288454089729
P 6.502492043933034 7.631603662569199 1.4125118726793793 -0.758805562225248 0.021454313219034016 -0.1768124504087858
P 1.9512268695283486 3.3115978299355824 6.069343242334872 -0.9029071526645741 -0.7704449462363893 -0.6130188707740152
P 7.090125680256884 3.9689505574025192 6.163041489184484 -1.1746624723998478 1.048930128496329 -0.5918252674155356
P 2.479670531455105 8.484761654212504 10.385298995751194 -0.06906111646371978 -0.07914601150354757 -0.6991132885709379
