# total energy = -340889.57917745813 ev
CRYSTAL
PRIMVEC
9.08597437861726 0.00000000000000 0.00000000000000

0.00000000000000 9.08597437861726 0.00000000000000

0.00000000000000 0.00000000000000 13.29824192747238

PRIMCOORD
 96 1
Ni 6.5923286206876295 1.7066458022322644 11.495439246361437 -0.8531907592760531 0.5314925319637491 0.653227838892733
Ni 4.545903725216808 0.3154950098473196 6.156314522530218 1.631745221993454 0.6450962109245342 0.2536552677004535
Ni 3.0147898596161538 1.7240817868275364 4.948873952203774 -2.317304426029041 -0.8488864754737444 -0.3300203740247542
Ni 3.479364809246612 4.432029209879371 4.867515412932568 0.23670655566125684 -0.85096084150427 0.17338902654953361
Ni 5.21736630863275 4.440106640992031 2.8725262177190873 -0.37884433750599267 0.030623124202495643 -0.08715396940968861
Ni 7.377856524900363 6.324310552114762 2.6801806857286707 -0.45723984399676093 0.11224048006467122 0.10101890031723892
Ni 5.583222147983047 4.258568875377892 11.571731446388076 -0.5708489222741845 0.7160208629595539 0.4286980278033262
Ni 5.345523975498988 7.673523213131079 12.315568357731916 0.6114026753268309 1.001834717670423 -0.17018491778993916
Ni 2.006800961744932 6.45605717881171 0.28777824538255825 -0.19964461781195295 -0.15956214796877036 -0.08576583081291035
Ni 2.512798868003762 1.625108269268236 0.4062111940037105 1.5035698158660815 0.6730327894338022 -0.46423350170577465
Ni 0.8001008983202671 0.044166012255944444 4.683055597998034 1.1055224230690768 0.6660558438953368 0.02163069089589823
Ni 8.996123055554612 2.3460530684767003 1.52234317465234 -1.06058879578118 0.27956838802178946 -0.46580341729605584
Ni 6.806584979593886 0.667943585586995 4.892023919887903 0.04914072339070892 0.6735881477166399 -0.24289134431573012
Ni 1.1636588947814843 7.652289291297233 2.5721993332930007 -0.3671512174387806 -0.9703086220376838 -0.12677904000047843
Ni 7.7111300605723665 4.243595189805715 3.65596616504803 -0.002235831309054214 -1.7760787259379283 -0.07417529776183354
Ni 7.745611332869947 3.914973672952252 12.832896473886683 -0.27923517305208684 -0.7722290347200056 -0.3846167212133957
Ni 7.925540881040958 8.71357651414806 7.218697513876195 -0.82353642674473 1.2988552397303887 -0.5850473252617536
Ni 6.922576526932731 0.6435377501407417 0.5267602660288434 0.4693780220211916 -0.3985467010309265 -0.47067514356606033
Ni 1.7447069483862998 6.560100670005278 9.108830023200287 -0.4905736822622004 1.2529286524016034 0.30410313993836013
Ni 8.935283371943388 4.924343638910227 1.4964245244926357 1.3607995426436692 -0.30289677833508477 0.20223114759220656
Ni 6.42983505711189 1.9197391564338866 7.194734165376158 -0.8617651312086255 -0.5183647363325394 -0.5087138435063367
Ni 3.639041720803313 4.538089787357541 0.8559151295710729 0.25560107857291464 -0.5065278915986116 -0.8368470278107072
Ni 6.069739725439239 5.766531678576904 4.824216202620547 0.2021517005045228 0.18622834440604702 0.49514098991790856
Ni 4.788998966408315 2.491483172401621 10.052659222467522 1.5970204169177593 -0.24428282534661802 -0.11133982262727277
P 0.17997861243198793 5.500049139653126 12.644061762348382 0.3342665508956178 0.14271756560760582 -0.2880957087665103
P 4.021188711992757 5.927380680812495 12.397472055458419 -0.15002052702692226 -0.9658405589640011 0.8761900483847038
P 2.765479812034253 8.515883886308599 1.219852011158722 -2.1562520666679896 -0.6079059750274821 1.6092928065272092
P 6.370785310428892 7.8409958905985375 5.881147609413547 -0.6381691447873977 -0.2867574495710609 0.7228389143226519
P 4.471462338145905 1.2222906866487537 12.28782796973409 0.464342259369497 0.5466142180965361 -0.24042668482532142
P 4.169162888709067 6.214960851956295 8.173112781747884 -0.5426668034130139 0.24876425815673933 0.1560731609789054
P 4.668419002070714 0.8727459882809644 3.5984646683780785 1.4596785137997699 0.6055367034643572 0.8631175314714619
P 0.24406744043678738 5.740391330645378 3.800345021751652 0.678290952508948 0.9225382966319402 -0.2355883828964136
Ni 1.5919898931088998 1.00954259946882 2.4849630772762605 -0.058455573033731584 -0.47004625173280984 1.1819847170928741
Ni 2.2188676008557433 6.339147948073115 4.965057889546712 -2.121084260517605 1.6791715337962176 -0.6984386311014165
Ni 6.073346857218459 5.61825766471018 9.305776692553417 -0.06703200184883294 0.08943299525185243 0.30826601306679813
Ni 8.721163302650954 2.102394496881386 10.36978243890133 -1.050189969045359 2.3255856922012272 -1.480206972770425
Ni 2.329925464174143 5.400394174024703 7.2201603557312435 -0.3826657681346119 -0.7237251735823471 -1.7028835327011769
Ni 0.4826206030982384 0.15394638759409648 9.392481419076242 0.9554108789902449 -0.9970959174338571 -0.5002423157002159
Ni 1.4202922376128841 1.266421263605104 11.489481573042458 0.8354123522467096 -1.099038615116946 0.596003052942309
Ni 4.240524130507538 6.838894704044531 1.379519836741168 -0.20448677639560267 0.9328993281512901 0.902149191452627
Ni 5.4879102780484965 8.098674120469257 8.087750962219943 -0.31436595531694894 -1.2849337445532902 -0.6642678987569786
Ni 5.069010520997732 2.65040594809516 4.890135854437722 1.6573778349598942 0.34499010796070906 0.07567785044928903
Ni 0.7238096068910539 7.627966138216699 6.726915522936678 1.4317149387073085 -1.3616117541323196 0.1070746195930156
Ni 5.258671147595806 4.632311340381497 7.145092036436748 0.656230887385115 0.1499053416052967 -0.7480059005065828
Ni 8.226577380056357 7.322713747146999 9.136929307181182 0.52334830559006 -0.9920940933438913 0.3594739033991809
Ni 4.54792081150141 9.054945652881237 10.22114862045411 -0.23073208324537683 0.6836326764368356 0.7107411026178534
Ni 8.182982875581049 7.723977628168883 4.711580105574061 -0.3134154184782215 -2.018938702795091 -0.042739704960371556
Ni 7.206913005267508 6.2036215560861026 7.19992043948089 -0.24043234125227625 0.5525809772029323 -1.2796511559981123
Ni 2.202158494200868 5.420247027771795 2.6943829720866015 0.14180610953693 -0.571145370468681 -0.22054588674099435
Ni 2.289765457967211 5.368556920235316 11.083046864072074 -1.5937355755189004 -1.5322059915455353 1.890543724457744
Ni 1.20404605034479 3.2083029392983327 3.8443220457430933 -0.46342334709965355 0.09323180017265233 -0.009829841606228231
Ni 3.577111720281492 2.468404797794018 2.614062051075312 0.28388552733990463 1.591677150327975 -0.1805822018638632
Ni 1.1839933051640894 3.3209508481113508 8.177886552621441 -1.1238204500473161 0.335744420992725 0.7103086430661251
Ni 3.6517893426830246 3.0921751023456645 6.968970420075991 -0.8403933504010688 -1.7599550809031883 -0.030512052545928096
Ni 4.213093574231808 6.900951908205921 6.037335506856342 0.6218367261759614 0.43099119471287706 0.5119601183577763
Ni 0.42548799698303774 7.351588973329267 11.608115321694644 3.016816749810611 -1.1799676866628452 -0.3640514954675343
P 0.0716728907154162 5.627897883394694 7.862492397088352 1.0584002727702935 0.2573903092628535 -0.03666393107993686
P 8.559932689496655 1.623908920666581 8.045755589213508 -1.1960103419480046 0.16578704583255965 0.7533157427552704
P 1.7605892313839733 3.267625265208979 10.392043984423411 -0.4324541524116488 0.7343335452258127 -0.085875102697265
P 4.134399951209582 6.245671444938067 3.7380025179986562 -0.08597460438960677 -0.360327766759044 -0.29288335996314074
P 7.093701766050683 3.768298790554401 10.208209284517618 0.26448064045073155 -0.21587779184136371 -0.3713845387938378
P 6.433814713835563 7.630582898802129 10.23981938895063 -1.7125987031064116 -0.03855600589632715 0.6600029528330376
P 2.641937820089536 8.663921664844693 5.77195509660969 -1.770583764261628 -1.2090707746763887 0.32747446767444893
P 6.909256488674956 4.02165209667976 1.604086959231956 -0.23734418924525577 -0.41343570232761695 -0.29784481773347415
Ni 5.381686153033737 2.815588960050368 0.4061975650423281 0.01401328355995651 -0.13428846100364616 -0.060821759273063
Ni 1.2818855917870489 0.983802034404513 7.054571200726838 0.5491362131874413 0.7889697445134541 -0.3820121937110131
Ni 6.829245399385761 0.44002555579097685 9.307014202246942 0.7955209153684106 2.06294904693777 -0.2679251473559063
Ni 2.6051123664341747 1.5480319496633939 9.407402405997741 0.5681826882959311 -0.3127407610087001 -1.2289834544399156
Ni 6.395599106119193 1.9147691285164223 2.74145922189641 0.8890370795507011 0.6886702388607431 -0.7033635792068597
Ni 3.8625476015011215 6.724965672861564 10.33151049814458 1.9178074452697038 0.9147735650848567 -0.8518936377311844
Ni 8.401764049666276 7.222640826702849 0.698822269092483 0.14957032686338112 -0.3518747508956843 -1.6173069350809375
Ni 7.533980820523374 3.8813373962603825 7.869766628076874 1.1753636122319304 0.07591387771949507 0.8879726428419288
Ni 2.95122438372844 8.531620793718194 12.422565699155774 1.4069955815837574 0.17008387343570064 -1.4184878984940732
Ni 0.0578067854049188 5.0732900148718185 10.03699409425454 -0.5919908464591225 -1.4583279133091465 0.01697390885017722
Ni 8.45492608503206 2.196797769390441 5.8990996773465 0.8994024819454253 0.3740690276045364 -0.9844926268475496
Ni 3.445646758786448 3.2515158328549316 11.72565784483881 -0.4203463134045213 -0.39157824013289333 1.6900200464749473
Ni 1.161341971346469 3.3325808951577023 12.736497012833812 -1.0669106242341495 1.2918530973809428 -0.2988105240808531
Ni 2.9583932174156047 8.567401360334234 8.019239081947827 0.5981236988297376 -0.6298066317553154 0.41017322952626134
Ni 5.7554649619343605 7.935172013751218 3.6539708851016406 -0.6334236596826124 0.15394762999547035 -0.6998082577554335
Ni 3.2898859021336357 8.361985654378055 3.484325751189821 -0.3927547769394978 -0.6443495625664968 0.38491882583484677
Ni 3.532772165917278 4.237171406007457 9.021886335554557 -0.17265806192078006 0.43665764897003506 1.2965438179883928
Ni 7.3888959836201415 6.063788412302238 11.469480617915009 -0.049279305851102226 -0.11926961899731073 0.07333557546935757
Ni 0.8661241302439481 9.00510908409277 0.21854312155974834 -1.8759390871706918 0.12350653989679374 0.2925169777626575
Ni 4.5381806471000905 0.5795670398012567 1.3321510185603496 1.1484570176490736 -0.8214515191912433 -0.1275783959733222
Ni 6.0512679397789 5.740872887280892 0.2504139934538783 0.45785742297610177 -1.1423843290924325 0.7634006377950981
Ni 8.00056377046418 8.769091816845878 11.268318056507578 -1.1408982314652092 1.8394533335398322 1.0481906792271432
Ni 8.841334398147081 4.627304968567012 5.717113973201591 1.2935795931537464 1.056456261670045 1.029547610204659
Ni 8.192723039982369 8.734519684805749 2.467727892712023 -0.9226722511066432 1.4081713470594135 0.5810636580236573
P 8.660687058009927 1.5376830249869924 3.6142497314512236 -0.6805455528710797 0.03301270748059476 -0.04484081046377438
P 1.8666043789908693 3.4851616608212774 1.5515327755438308 -0.18007826564425117 -0.19385757881653065 0.600293967008179
P 4.590315967375062 1.4634324433754435 8.232728584626965 -0.3706985684704067 -1.506377974738838 -0.29850122037055044
P 8.54803914919691 1.6955972575382308 12.532488724289728 0.05844297462824128 -0.7702274309089445 1.1373387962487251
P 6.3130257720901 7.699427325731975 1.349093634753577 0.4259839713062728 1.0374830630016518 -0.5629607777753595
P 1.6386372849338744 3.183443713736757 6.114279171237062 0.34039271839801377 0.07524256268408332 -1.7780121955152153
P 6.755994274942258 3.8169178387927025 5.639531564830748 0.13628595104964916 -0.4164564914318118 0.8377798240376217
P 2.3524950242234683 8.35849664026415 10.343279560597033 -1.1438290319587592 0.8978626482621311 -0.9648869368014801
