# total energy = -381177.2008217962 ev
CRYSTAL
PRIMVEC
9.16079291845354 0.00000000000000 0.00000000000000

0.00000000000000 9.16079291845354 0.00000000000000

0.00000000000000 0.00000000000000 13.40774642329136

PRIMCOORD
 96 1
Ni 4.743138004689519 2.612236776509102 6.488196707195707 -0.8444945170536358 0.7896104634212465 0.6174709930080979
Ni 0.9241957659191078 1.0329801831850258 7.169081810160475 1.8276591691183812 1.59990133800998 -0.24717017419674203
Ni 3.2329995947988195 8.220575039985727 6.333323424101868 0.2679341462169708 0.8001229329167963 0.22229835065572684
Ni 7.705802597086887 2.913581063326986 1.7529553061005643 0.2085532331554924 1.3277541821529262 -0.07420923632356252
Ni 4.084944186067292 5.961871588203052 3.5745991544412616 0.9302654900728689 -0.33301828031081354 -0.13204671615732097
Ni 2.9573330108522087 3.6072363117796433 3.0623028738992195 -0.40798547784632316 0.3099117762003372 0.35870874309838224
Ni 3.91103569113035 0.9584479710691933 9.804924118156803 0.21076746719799183 0.8842350301763675 -1.819096624260351
Ni 0.14057053693154178 0.17175479249490275 13.025733445666718 -0.5533636210052276 -0.7851835379981446 0.2562574812099909
Ni 5.927582739880834 7.261678190057921 10.597174233784864 0.061546039033597226 -0.3096040151519313 -0.7274692140058117
Ni 6.86222180985747 0.9860402796843466 2.8948527380504854 -1.0082681320005926 0.24095864606939146 -1.3198338988645852
Ni 2.865322005629566 3.2105098479030025 8.131758403293665 2.210941744901386 -0.1713138891880598 -1.3968422951998396
Ni 0.8783038571413946 5.113765369215373 6.7056024796115565 0.8691567956870063 -1.3907323256473596 -0.5376097006050806
Ni 4.42699903712347 1.5766732496887927 3.980532215315987 0.45600185782460173 -0.3313025831712875 -0.17062123399640938
Ni 2.060912769408913 8.620407012700529 0.9992977793615877 -0.5596288851886491 1.0893527552877498 1.376493042119526
Ni 6.913091693569271 1.1266950959117914 0.3750144683093186 0.2528677388021516 0.4926362212181838 -1.3097801141730088
Ni 1.1188351354895465 3.2619568615758783 11.456583955295862 -1.3780040794474138 -0.7171524054608359 0.34549507262158563
Ni 7.592382818546312 5.2937199875540415 0.5852968080627706 -0.8113861645354413 1.2126240392452858 -0.2376277819239456
Ni 6.551661765248468 6.041112447937804 4.28344024950459 -1.4162291843668835 0.6934982563770056 -0.6910978744656291
Ni 2.96461584131338 3.7215446872444122 0.19950466675022224 -0.18618720675546643 -0.7738493439322479 -0.17553486924794287
Ni 7.7467879851161685 4.096972307319515 4.167596525127505 -0.4701359832331387 -0.959817492698373 0.14378714452270075
Ni 0.8224074462924302 8.736849852941967 10.505263997285583 0.6567942160877527 0.37716155048693106 1.118393365494474
Ni 2.5954542036727934 4.96178781279924 11.649575298199679 0.1539838825500445 0.4476719978026677 -0.4475316155700615
Ni 6.275069941205533 2.3026019719964257 11.218583804062705 0.752295529020872 -1.1528623458056209 -0.9348312550666803
Ni 6.2038997401327824 0.1770121716164952 9.311210506282038 0.19108335850550315 1.6418447723213014 -0.46851156025583834
P 3.2595017690430557 1.0251568659349126 7.3708015566660565 0.7147489382256658 0.6660208768923433 0.23634480144646391
Ni 2.1275850211025005 8.718464141324898 8.614960005163155 -0.07690735198101595 -0.8117337776828473 -0.6335835822992444
P 4.541728809067753 1.9906861300185525 13.136830047094145 -1.0308318762337214 -1.8909702704722011 0.3093620743444543
Ni 5.727795004625895 8.464856747001557 3.894614969618842 -1.2584413546897166 -0.7066473921644539 0.3840045415506935
P 6.559201097914562 4.811056124235583 2.437286699404317 -1.1121782378226974 -0.855198019514069 -0.2112127822655266
P 3.502308588380585 8.591632961784128 4.107073913796915 -0.5574272495516399 0.08098666425671214 0.16460768081247779
P 4.3579816224134555 4.748808535576895 6.905592668392523 0.13409614248718196 -0.15314544580914916 -0.5068713909809593
Ni 0.75852832039458 2.4820069427531197 0.17249040417544617 -0.8014856175922777 -0.40280984718265467 0.29163406093707195
Ni 4.523251489520354 5.234779445180237 1.0561441644480658 0.43646455912262255 0.7221701703904014 2.8627773314322824
Ni 6.703730929594932 2.2857735951949527 5.157423876651659 -0.4891757734734092 -1.206900506497947 -0.6330104834045936
Ni 8.738810262651011 8.732553441009527 8.29613692523846 -1.1895085362737452 -0.7371033946614661 -0.3273299716767846
Ni 5.422447451252625 0.4959708312780766 6.535083478096795 -0.5868846355808087 -2.328432160511087 -0.14468034576093147
Ni 2.2988643684389944 1.221188676046355 11.820550507207479 1.0595819517832203 -0.6334061761811156 1.2505773785606076
Ni 4.092950719178064 7.745743654710415 2.105029316496846 -1.3899681937878254 -0.8989062590352971 0.3183007715949809
Ni 0.22674978130942783 7.070006917430148 1.041315588765679 -0.28050092713838787 0.5662039673030055 0.05552734364334307
Ni 6.310641300552359 7.849077400121747 12.9904708050451 1.0396250490453192 -0.743505441533068 0.6928642223374325
Ni 8.753907249569263 5.631130316542529 2.8216470087658196 0.12664097176071737 -0.8897461898025837 -0.53892404854113
Ni 7.855609045554218 6.132619609543636 7.516020279982502 1.1481045194056614 1.9199034085667837 0.3552477811329753
Ni 1.8747837765660562 5.793138941329708 2.362646389930696 1.2607975136267189 -0.5980277966818216 1.332462386261873
Ni 7.688323803980077 3.650521058860188 12.423295877760053 1.5674661002994101 0.017495842791918258 0.041686323995192724
Ni 8.397543239795665 6.998534410187311 9.883802210487453 -0.6484458441230575 -0.060819445280217835 -0.6282333737309246
Ni 8.65392635440798 1.105240518628694 4.124410714611716 0.6742262955212711 -1.4829793933092397 1.8009610910019047
Ni 8.815458617957448 4.890599290140422 10.424737878288312 -0.4288227263066486 -1.9617799941959118 -1.127589430171445
Ni 1.624639162009159 6.5966962237983005 9.936990690915886 -0.3559147252930129 -0.8352436878793291 -0.07591130661633379
Ni 3.00961365669108 6.200400317194207 8.002735045980117 -0.8186413034359579 -0.9805040745134469 -1.7702703467862673
Ni 4.642973893667579 6.044749282771874 12.445660121791317 0.2899947255614361 1.0285865318429706 -1.3166462451652228
Ni 2.0193319298324917 1.1348298801250238 3.8564566023195197 -0.22178695823694705 -0.05310279336225048 0.4115037754122268
Ni 2.5620447914817364 3.065347921503362 5.65198211364406 -0.4486415608047886 0.2024805445988513 -0.7120207406612253
Ni 3.9267189688027084 6.103314232631328 10.121105225370803 0.11581482767949086 -0.8592145968726298 -0.2503974228847881
Ni 1.6029830472793374 1.7412835396973216 9.605980091940197 0.0411240237338195 -0.9643696308454295 0.22358827311174395
Ni 0.12997882802688038 6.395296188969567 12.099754073344101 0.3172311926798859 0.35335647764753336 0.794516385363296
Ni 7.837910393414618 8.959640339502567 10.881888016930786 -1.4521120143064217 0.9148756378803597 1.6637024916263414
P 7.018037738554396 5.845932591578424 11.762790791055618 1.6955859705984992 0.6396241320663695 1.3425789058705846
Ni 5.844952386723902 5.4342373918859925 8.43162230595743 -1.7116854472635228 1.9463618598686285 0.27826946670470787
P 6.256345280246246 7.913935814794816 7.862597814559032 2.2996378619872133 -1.8185168404974812 -2.2669455139605152
Ni 6.897967224271921 1.9276049091938696 7.614862488569792 -0.9561613840030244 1.2376182472967783 -0.28228398718073966
P 7.763323216540588 8.491771156932273 1.1967247782519437 -0.24145306920730675 0.4147248534526857 0.8967208213482041
P 1.2375956563683137 4.735470420920966 4.336453758786094 -0.043846050650672874 -0.197249378106899 0.33638693967273037
P 1.8768357942054303 4.11515648148986 9.66969340748415 1.2017264184961756 2.698171450392018 2.5387638257232403
Ni 0.4733409242488559 2.941411552560995 3.2698543812495577 1.3506987067642415 1.277279570442142 -1.2005123435834164
Ni 4.145295490568166 3.0562604148147052 10.732056834322265 -3.0000685838179946 -0.03924326177133887 0.9121433265508613
Ni 5.3660719309280385 3.806941599897287 12.740429707449476 0.20664598883045054 0.5644317058939311 1.6534134509955074
Ni 1.4207840346476033 8.019138361984863 3.195267204375528 0.8857260128995973 0.0287377342543247 -0.4183670781909634
Ni 0.17059320393832855 0.990785570475399 1.922321879851785 -0.43208134245326235 -1.3949983000125652 -0.1779337084974226
Ni 0.855047351868722 8.424750795103435 5.427026931689781 -0.7752377396393423 -0.07253750504809443 0.8968974561353843
Ni 5.7261277402939035 4.64298305446061 10.680262626593441 1.1785777482938542 0.5990235849361877 -0.7829803596992386
Ni 6.848187474931038 4.312287586765254 6.464558196853562 -0.4787409512933304 -0.31303695209288024 -0.7158614545635542
Ni 0.06101271375784986 2.90013301915466 5.613019428716448 0.5818591573417592 0.6997946309086788 0.9837266952158025
Ni 2.450109061412494 6.246112674428475 0.21601791227136274 0.3234414352556559 0.7410006728333431 -0.6339165401586307
Ni 8.262971190142078 7.737077544501274 3.462336384060744 -0.6209208992299113 2.188557977889547 -0.8569057462337952
Ni 8.579916307495024 6.230072125827833 5.200704043335687 1.4727980819008633 -0.268128521615964 0.49613137885563596
Ni 3.867192135674798 8.255990665850995 13.172414231551217 1.2905680600209322 -0.07099741425448418 -0.28110307949876107
Ni 5.466492544154901 0.17914297207595226 11.501875832129917 -1.3127859908788682 0.98817650345704 1.2165421433527694
Ni 7.339187659909451 8.378992633904003 5.585533385300476 0.3802736137533515 -0.156518218936124 0.9952928027868471
Ni 0.5588028785322644 3.3398968886999567 8.393973278750735 -3.741734658149478 0.12586089906158324 -2.102716813754011
Ni 6.295251168257055 7.02077681567124 1.9740895212808125 0.5278217679803813 -0.40492766485660586 -0.037507252916838624
Ni 4.827472265350575 3.8841029596135668 4.5114652132042 0.7197453629989927 0.923819734447525 0.18120749415268791
Ni 2.41994256995509 6.5503517718447615 5.0358024401087125 -0.9318477469583243 -0.8574708747086459 -0.24112833887803634
Ni 5.477577103724735 3.148317224002513 8.868191806972145 -0.2916291758410655 -0.6411045732666377 -0.24434170360901147
Ni 4.817880915045108 0.5854809400027322 1.4514149783117756 -0.13149264342606387 1.1622216755333339 -0.07784477619362078
Ni 2.4050196381044646 1.840018567006127 1.592156822073033 1.1173775226354499 -0.31259523656977134 0.2959481149313935
Ni 3.3858291049670144 8.268760811338884 10.924725717311324 -1.0100257381216478 -1.0432014535426677 -0.1061734479349849
Ni 8.023810366431652 1.7038800217439116 9.431987317707351 1.9030925076570324 0.9032925610284509 2.1160559540650783
Ni 5.337508578251397 6.7228311830685685 6.140091152341285 -0.6420615378632684 -0.10358846081662804 0.7585682494034613
P 8.185571649806942 1.1328969527950778 6.326270529545822 0.7954872339169978 -1.7362680216988937 -1.6631499615569811
Ni 5.058049425989156 3.024609874885969 1.8852234163063712 0.5209006153805158 -0.11260454827230928 0.1716350199729044
P 0.8810585076063935 7.091113384577994 7.3654653947243816 0.198377063953439 1.2475067100550836 0.13429720275439452
Ni 0.699796644101927 4.697874526313863 0.6122029732797581 -0.2578587642588398 -0.1353886360463604 -0.47249522749393463
P 1.7050617640451584 7.993625553388182 12.416846679464877 0.8220621561920488 -0.5954960313989034 -1.1107281356397323
P 8.54149594151496 1.7284584294512344 11.828421460581364 -0.4613518092826055 0.8380135373149825 -0.9700867358348647
P 7.53693253831805 4.110548602594302 8.583129913690973 0.8423959826533944 -0.4845531870997332 0.3720944203766688
Ni 4.3819920609527365 7.94740019174407 8.665091528956502 -0.466225592435139 0.1342257260865108 0.004231007362212068
