# total energy = -340886.495768884 ev
CRYSTAL
PRIMVEC
9.12422982004220 0.00000000000000 0.00000000000000
0.00000000000000 9.12422982004220 0.00000000000000
0.00000000000000 0.00000000000000 13.35423263291837
PRIMCOORD
 96 1
Ni 6.7973593937924175 2.16183107611009 11.59666854402776 -0.1095523917095468 0.17380194571723614 0.9974887819969014
Ni 4.751077560497208 0.5479090710762254 6.139100978312571 -0.5080067901369831 0.5626977539219599 -0.6490487678143789
Ni 2.4714891780250796 1.7706206106228166 4.886634413833605 -0.6292535874653227 -0.19582318718333375 1.6178736062176848
Ni 3.9300793870541426 4.827766709728026 5.1934612673242855 -1.4181577688481641 0.35333179505718504 -0.02112469779375717
Ni 3.3701345448000026 3.066826906640474 3.289695337230831 0.29528477031578176 0.8123510995518719 -1.336943047741046
Ni 5.0119849040135955 4.868716251875309 2.8649898251253143 0.38566958795794226 -0.0930875612853042 -0.3908339057677011
Ni 5.814424394585099 3.23969455938611 0.41502287972434543 -0.7488919026559618 0.11847077724509919 -0.4954376952227209
Ni 5.752279267231011 8.378843850410997 12.680484674651572 0.19727406069724734 -0.04102786447558741 0.3489778889638635
Ni 2.700881432732038 5.525815890204374 11.564097781861282 -1.3652089845652746 -0.2138795304644123 0.88819504326538
Ni 1.1745985647923942 7.719572645452909 11.579869012610297 -0.07247194191748163 -0.43293032071711884 0.9293874583432897
Ni 0.3980846600179695 9.412190217792054 4.894245846110624 1.0999469858638282 0.2789160991497712 -0.6985337619183841
Ni 9.133809974718616 2.407218105189639 1.4052262401782167 -0.1693181989142697 1.7646997946770253 -1.3696454230700734
Ni 1.3306867594255407 0.9611007179331555 2.5869955369611524 1.8463042950233945 0.4033536355012666 0.19859509350151602
Ni 1.832738365288302 6.651773187352569 0.7210577500914996 1.3834015963139012 1.0221546601746978 -1.2686440062543314
Ni 7.520874298897344 4.165785608598427 4.042059231275436 0.7704899405417117 0.6289072598694975 0.06253205709595037
Ni 7.845487013018082 4.536986638718279 13.028642463084044 -0.6555773129615161 -0.8421440145435883 -0.6640820079984175
Ni 8.341042167452843 0.08663547184551293 6.916009962225806 -0.3677304869810183 0.4872597873976188 1.8041921963446927
Ni 7.130275156788829 1.0919330452169977 0.5883567805991539 -0.7466481009271076 -0.237586644273365 -0.8478405507077333
Ni 1.7846536756456597 7.347577807363625 9.33078931643003 1.1014130288863935 -0.6839252679765898 0.3289893616570786
Ni 0.2640333045546351 5.100800154294711 1.480743838336906 -0.8284382349217216 -0.31181542098095333 0.6220123325218772
Ni 6.800297395702271 2.1509458702763764 7.071092666764338 -0.9691338850032922 0.45610418773042094 1.0758917446868375
Ni 3.7080047644332184 4.477615277142439 0.5662058885601704 -0.25167706092816006 0.658206265943931 0.19086147230268422
Ni 6.1837002122733375 6.016644693740673 5.190002271908056 -0.5006014988118476 1.1449775437409055 0.057891473000145466
Ni 5.726384703814348 3.125906292871235 9.675582089010469 -0.5707864444673654 -0.13836700194839396 -0.5129214538297812
P 0.43875956285628737 5.698765661015813 12.587138331984017 1.033342301360401 2.204469249803165 1.2336831739084302
P 3.9718227371708577 6.540503208188998 12.994442113522846 0.08670454057709584 0.5948519700570014 0.05144083227879528
P 2.5061156291055027 8.77551972938896 1.3927926525926326 0.7760404380462957 -1.0944851914183087 1.2194120087013967
P 6.439890329120797 8.382849387176293 6.281870535095364 0.7755997509644514 -1.5835846031278276 -0.9756210353895327
P 4.976783626472549 1.3605594869189015 13.016717095083486 0.0647213514377853 0.4570878917999289 -0.8343067778873566
P 3.793663031295671 6.369515146727306 8.696703722253837 0.2553635086408118 0.32840263591567315 -0.09896561733263601
P 4.597434659379095 1.272674908050224 3.954388159377848 0.7083795443642122 0.6160581718209712 -0.4063988500854937
P -0.01481501149388204 6.001562342321455 4.062050418183791 0.6928737354191292 -0.6113723363095277 -0.8806856222622124
Ni 0.9571134296269251 7.711023242379824 3.0147576659604614 -0.5357657054178063 -0.5521060944490428 -0.25619114674842974
Ni 2.079320668436767 6.7727330982809395 5.266481563859598 -0.4290983485655384 -0.10439527298863956 -1.6584558985154212
Ni 5.87483591832778 6.141756129106881 9.57449018789175 0.2568673468798479 0.2212287717406319 0.046194753388507544
Ni 8.99420926285288 2.6488094547831653 10.359211337131745 -1.3441038271555432 -1.0609770323585341 0.9527675278301269
Ni 2.414973700293291 5.212343860344294 7.190292513815655 -0.3398656422499502 1.379753715148669 0.7369928372255308
Ni 0.651834045465162 0.4427869977724662 9.655844555683151 -0.056700795126153954 -0.12766504214985755 -0.3548369188478018
Ni 1.8127380541504134 1.7042965861422914 11.664534563299483 0.8399953436317017 -1.1685537883989487 -2.8163696907020204
Ni 4.251991329232903 7.3397765911123045 1.7813479672855974 -0.555089859667715 0.18490576893988153 0.532175931184019
Ni 5.652469320361777 8.528554208600081 8.32210391663268 -0.27979001711429236 -1.1765674027320447 0.06820956709670188
Ni 7.085475189778323 1.0595237819132661 4.889345222428069 0.9106060639707285 1.4781164087899834 0.5300426868911
Ni 0.8629413441865692 7.419330748416707 7.219311213424661 -0.2966981057235406 0.07543513831086364 -0.24364210643882558
Ni 5.281167923717055 5.195144687673253 7.238754946560993 0.11249707616016756 -1.0973679122827424 0.9989306566497507
Ni 8.246898367124043 7.707565159386549 9.43337576634637 0.19761473186611772 0.6044969493459331 0.2961412047788061
Ni 4.609150170100377 0.9153609552806762 10.669591165602851 1.1950374365117742 -0.5275872833720721 -0.08442757161746105
Ni 8.336589543440393 7.41746940559183 5.420282314148644 -0.5715073817937899 -0.40968831947004286 -1.0316677418714555
Ni 7.30918304948578 6.551224177891104 7.5546357730179725 0.2963546063411928 0.35365703960708766 -1.0965965813343566
Ni 2.3745898603770987 5.670644785592923 2.808221606235442 0.6789031321716501 -0.7097946795441841 0.6762798356161901
Ni 3.7570657466359676 4.187455653740984 8.901770781023929 0.12389169115035438 0.217885823410328 0.816575936266497
Ni 0.7988910777058442 3.8961281289592145 3.630828381345301 1.2041432554677842 0.07716446229714453 0.8683808367529303
Ni 1.0909841253454922 0.39366214596298116 0.011179006024699314 -0.8992057925535868 -0.9639160882477786 0.5459071647271824
Ni 0.9636463779730602 3.6462884758672156 8.573163479213335 0.9222246220462633 0.5976557580543835 -1.2423711886007311
Ni 5.380777137536548 3.099318288010009 4.70926304139013 0.8500020771354263 -0.4699832597053583 1.0828383512079998
Ni 4.01520844860364 7.10392438189548 6.611694096702802 0.9831003744857135 0.1927527757881261 -0.3479021394011815
Ni 8.738000897546353 7.847284486236222 0.4349082255701091 0.6841970335807378 -0.9194074643124424 0.6786503927308957
P 0.19637805498514194 5.986242760934358 8.790730732444606 -0.4931175317299766 -1.0232777180355475 -2.159822814738383
P 8.785191412694692 1.8691896622754662 8.252034395928566 -0.8271567971061367 0.04939320572114719 0.13273422914264882
P 2.327536208671765 3.7764182374769626 10.507443570136369 -0.8584610065360571 -2.238546651102848 -0.7597244744950916
P 4.231023849764441 6.615449629578877 4.002343284961111 -0.2701923461235282 0.46443893284836146 -0.36033188052410203
P 7.1292167461629194 4.325331886224849 10.897961506602034 -0.042888057612777745 -0.12741873046700636 -0.6579722955562539
P 6.550704096807683 8.225867018048845 10.647289723776561 -0.9026788387038519 -0.24699379651987785 -0.44818364733176363
P 2.535550393581245 8.799297471553805 6.002033152565393 -1.3274952720645847 -0.026914307892340745 -1.2302690060205588
P 7.00168738997028 4.4752885986113435 1.7051214164921387 0.45669785545036184 0.38929124387092956 1.2610294271318667
Ni 2.7087191459014934 1.948999298006812 0.4927448917383789 1.7048699670035863 0.18911209371174528 1.1787764945682215
Ni 1.489475726000665 1.243559491608161 7.200495227280248 -0.1212938485161911 0.38099249419724707 -0.42515684741928716
Ni 7.013558012593633 0.901074236676796 9.474506880661375 0.7584430366795067 0.7986237226634504 -0.08200816354269103
Ni 2.850391057871381 1.8789069667288656 9.097303932354249 -0.052330433972600204 0.5848164401978703 0.937877755202488
Ni 6.7388548340222805 2.4827758499582773 2.6716610876503375 -0.24392364223498633 -1.0906102818439347 -0.5073827833997391
Ni 3.8942029165276018 7.28467536895824 10.74128936127873 1.1153723192799632 1.4132600744362305 -0.22548214770034716
Ni 7.609570934194522 6.803864969449952 12.034272979425081 -0.31400805775689794 -0.9499115464385706 -1.3520719329626842
Ni 7.6107662082634375 4.375779751316722 8.610755304892212 0.33964144205428604 -0.18681147060302666 -0.025937288691052104
Ni 3.397817457205273 8.892802575815246 12.706765192977512 -0.42272406960807846 -0.38411818431042233 -0.20803849830260301
Ni 0.29869807739909937 4.8969557422821355 10.611593000571833 -0.18771572758485092 0.7839440091640887 0.6501823671981899
Ni 8.906123950934461 2.5109879676765026 6.031372112631032 0.675851746939836 0.1609022069364326 -0.9075665058134563
Ni 3.9255446449758895 3.036826439933641 11.86152302924043 0.4742433205332929 0.1750551013980469 -0.175671137715491
Ni 1.3200387835597034 3.57865968656337 12.682354229283028 -1.1080739858463369 2.058375568634474 1.230953176571777
Ni 3.18177395030613 8.863449929405308 7.974186095436943 0.5788792487778289 -0.002577016698556852 1.8700286352235276
Ni 6.018953123812702 8.700390823408407 3.7172576456033517 -1.440521481255345 -2.057544845203063 -0.9981598399219971
Ni 3.047565658094816 8.912857632330338 3.7645713378503953 0.8837508914510973 -1.9189914382754758 -0.18555702937063526
Ni 3.7379869826809835 2.889369766439383 6.876040362330444 0.3286479191572598 0.1016094827133863 -0.13071925559514908
Ni 5.265109279737728 5.17185965390323 11.718792706644631 0.21508589206768763 -0.4843613828039013 0.13133477769196092
Ni 8.201733430932187 0.22197881821082047 2.4669142893368785 -0.09908157408521001 -0.8646923321577494 1.2458727739960864
Ni 4.720246788902808 0.7382687842609333 1.7907623473184775 0.021247339414550506 -0.16689647684665448 -0.22900867279636689
Ni 5.885146297700871 6.0895472877150025 0.5666693994204829 1.1725335989823034 -0.22061967740172325 0.3248077194755632
Ni 8.377174116406328 9.211092198869125 11.737835886104435 -0.8750736753920736 -1.084756394166319 -1.3320854625384284
Ni -0.05869525616739162 4.867402362822455 6.120551419670543 0.6013566039447386 1.538955651564543 0.10640150478539094
Ni 7.009698463500875 6.4139775172450655 3.0519097037758143 0.9598570876870565 0.45528117760849335 -1.5618240715222844
P 8.909363052418927 2.0146572537313765 3.515741736967778 -2.8129105285088265 -0.10103921203221308 2.6460287069501915
P 2.021272320143315 3.595503014282596 1.662134433889979 -0.5479684181315854 1.0999300165829637 0.2950649409954918
P 4.858469742108953 1.4866107179270807 8.211637782091026 0.3995746280748086 0.4709574506931696 0.8266510611143117
P 8.765437455754213 1.8722554033987924 12.635200211052824 0.3065639427740269 2.273189437987698 -0.1285304754739464
P 6.877442756409774 8.071247824370625 1.3257012804083226 -1.850950278435838 -0.6123262155823648 0.8641991945714149
P 1.9383878190591095 3.712950096840488 5.856605707719431 -0.6884810056680724 -1.1256562177044742 -0.9152775013044688
P 6.973356657268115 4.207373846813069 6.167932631216136 -0.38469205453602134 -0.6115818812171725 0.9961068140477103
P 2.65686614946143 9.172952919418224 10.383729966734725 -0.6298426271995734 -0.5435983140883477 0.43471518053168356
