# total energy = -340875.2475679822 ev
CRYSTAL
PRIMVEC
9.21642493497028 0.00000000000000 0.00000000000000
0.00000000000000 9.21642493497028 0.00000000000000
0.00000000000000 0.00000000000000 13.48916950283584
PRIMCOORD
 96 1
Ni 4.559457564087864 5.143115320386617 3.7653667078188655 -0.8638268988336607 1.0817726289476466 -0.323165812996766
Ni 3.007171983264629 7.323223765646926 6.016938390139637 -0.007619978439103007 -0.3923680830240404 1.8228555770821508
Ni 3.483126598139253 8.082472849210141 12.354083030707008 -1.2231295667623 0.23054696381776424 0.9837349227459189
Ni 7.000344751997131 3.9092203542850963 8.34317233060493 1.287660399455834 -0.9106878250512574 -0.8979210123038923
Ni 1.4213754814916992 7.422807236730934 1.1009978055607563 1.3323150620507314 -0.6305180560000431 0.174711344905383
Ni 1.6697857819199504 4.947865358802656 1.5937456682523332 0.684105759418512 -0.03453274366954698 0.5817640265247916
Ni 7.692802404283548 0.19056709609041328 12.006615517056748 -1.8498449611868013 -1.6738182399041044 0.7651297046710629
Ni 4.4418375494674 5.32065131330575 7.688246725453672 -0.4265138756678138 -0.45082776982283 1.5255936284353404
Ni 3.9019025129115934 1.2589636418394659 0.31891502929873244 0.24912189860647418 1.347514395498989 -1.0913769848066301
Ni 7.515478389137199 4.338613590546449 12.203975118301155 -1.0508381441523191 -1.5526372628166938 -0.7922497008163065
Ni 3.3668706144045313 5.025716499963841 10.119049301233359 0.15671747943112366 -2.088586030779584 -0.7307921077314575
Ni 0.8210203281949916 5.698690630003928 10.262911242482001 -0.3651961505949388 -1.0482238464579239 1.0607268640209409
Ni 0.2888409131956112 1.4236335055930949 3.1379724071398107 0.7925934573089705 0.6803519488030347 -1.1340737523442082
Ni 3.473661329763198 3.651206539107235 5.499723684256323 -0.5699732045374506 -1.008839174012714 0.6311788295124936
Ni 0.1631196610848341 4.712938688008454 7.761006713498077 -0.4809775539333329 0.25636546754276496 0.42452178493844955
Ni 0.1365671409374 7.675180599867757 12.279042899141437 0.7790357732291939 0.4798683800295542 -0.9054916255622987
Ni 2.469494970810217 6.715594088173764 8.69528031419418 0.18001244540332223 0.6609725158351584 -1.790188682976749
Ni 0.2900215372257696 8.312892688226455 3.077284092434214 -0.6517682236280711 0.0990041838800553 1.7670022175579565
Ni 8.916633034390276 6.0671172155275945 2.7719973906405184 0.21559239939046096 -0.7317688698224301 0.24989760043023412
Ni 7.242939488311176 1.7724475389217793 3.255165701287235 -0.33105370038527504 1.1222397358237577 -0.7110336941576076
Ni 8.864302173787316 3.4404729836851313 10.073293438156666 -0.36844216833606225 0.20717203653724964 0.002770106545969423
Ni 9.03470465383102 8.930476104595568 0.9747650418678263 -1.4432355377523982 2.7839385667565084 -1.7264212108118009
Ni 3.5872629831256666 1.0218711111929046 5.0000708760269275 -0.6133415442207565 -0.11015968627624254 -0.24730335734049666
Ni 8.879500058453445 2.1243122088935738 12.23440683169054 -0.20038818084619683 2.316156428467527 1.5455317621201639
P 7.359527263342429 4.195021690547482 3.4274492536537746 0.3471066400830796 -1.384234890848474 1.0144197534242851
P 7.879241463659614 6.118710762138263 9.55785934556474 0.7684302297992056 -0.16524685705837347 -1.7371810204314662
P 4.842254345831657 2.1482380479434657 6.514904592611663 -0.7200598089156179 1.0190261418480449 -0.6914046070727705
P 2.6426900275997287 8.785409576612016 7.61648395458384 -1.5008627013475635 -0.9933796449245343 0.21869932045055882
P 7.867647201130815 1.8785931045371902 1.1463868549262834 -0.39910771574071907 -1.4572387940100258 -0.7810173224355969
P 0.36033825102821615 0.5702506229914043 11.080529788245054 0.1224942965821955 -2.519867760149686 -0.34960780923837853
P 2.4948124900205615 5.1635297015482156 6.909462507664666 -1.5085137901349182 -0.11123723561113746 -0.07962063714712095
P 5.611042429170157 6.989128362889381 6.397265223498903 -0.5033767475641395 -0.2674438368441136 -0.1725189652397545
Ni 7.898605172382196 1.1127081950433424 9.726702406514743 -0.03739798103248398 0.5416987830727897 -0.601491586860706
Ni 4.139400566253915 5.028776353031855 1.2753928408727238 0.6391379364585702 0.12869039809057836 -0.7721773555464637
Ni 8.493000063693708 5.109180443891353 5.350142029712471 0.047307783947028205 0.9712193067774113 0.1789966025442982
Ni 0.5641078757931173 7.003782478486196 7.173135207733372 -0.1248921073904107 0.5632852509943137 -2.0516457061098086
Ni 7.294717363419917 6.1289041280817065 7.375445872436025 0.9704250930108899 -1.2010286210982024 0.7650875385792179
Ni 5.284780987580719 7.692940650657103 10.69662790366566 -0.33549605242734476 1.3497376284025528 2.4730230318820055
Ni 0.7269224732136403 3.002093733142714 6.13486070349694 0.8817204912846298 0.015412477900328294 -0.39010911178653457
Ni 5.642673199439505 4.743343673765616 5.946053022920634 1.6910392317680814 -0.5464478677220008 -1.3946087778836305
Ni 2.264816606549816 1.1637764054345023 11.8732483188459 -0.26171953276582666 -0.42358590338774144 0.6396529284217758
Ni 5.451358651289405 7.089725640712791 2.1053899669238767 -0.011246519448096761 -0.018506800554935872 0.6003711001030176
Ni 4.6184058177716505 5.628433822963356 11.999708728233948 0.42577622617084093 2.3250123361962607 -0.09822925338724374
Ni 4.846576849111472 8.939941372971623 7.214412809949378 -0.4894845629630796 0.45823897468523667 -0.27875874763630054
Ni 5.337646400828093 3.0075222074109678 3.810015678264629 -0.2103884865920183 0.0016179952193972134 0.9329785181286577
Ni 2.5857417381200354 8.033275573074423 3.830277066772827 0.028104214435383856 0.2717229238354418 -1.4098595333951138
Ni 3.7976094487018175 8.428088783097257 1.4334130540583647 -1.2946831106305703 -0.031036043370198163 0.32955757545572273
Ni 1.2318857854725234 1.4414396385069592 9.32027373618583 0.44081666544373116 -0.028589381601918505 1.2879861582263687
Ni 6.425295136558393 1.5346453435576364 7.664343927466038 1.6347618973325913 0.16944135475569527 0.2923976785759738
Ni 8.713281835316002 5.864429599046383 0.2164643284271974 -0.12398219398163163 1.9918109933403634 0.5995362629065482
Ni 6.022224009821883 0.28613312755891696 1.0860764136417367 1.1144153546833324 0.5970448639432622 1.3566392406183925
Ni 1.2020522180593876 9.09076816651996 5.302133672389324 -0.8364953008982432 0.7092403497026109 1.4155982356511039
Ni 6.097190409988224 2.078626390646149 12.738645732951994 1.1585635099554563 0.2717879727454222 -0.6490066017225339
Ni 6.65874717936801 6.134977752093216 3.9565890917199287 0.2483690796008497 0.3229184728726503 1.0919544545766549
Ni 7.679291125374788 7.645752555150382 5.636827221123116 0.7908533346894122 1.1477052270847137 -0.747448742451532
Ni 7.257833230955484 6.479082192296132 11.50400884464573 0.9046043378613389 0.9639690529729011 -0.19934354163176637
P 3.1443031694061325 3.1420359288798334 1.7118698213150263 0.5838340216799428 -0.19594505747317867 -0.36327296543029697
P 0.3620082672207587 4.386336238697582 12.520754701949711 2.8221765271917847 -0.8882377235778574 -0.7154840166194775
P 0.7482972058502003 6.857739009462856 4.737949300269507 -2.397082157579317 1.8609367002245885 0.540345611479005
P 6.526555996974866 3.0067388112941567 10.62179053344797 0.22177718804493415 -0.5614430555792524 -0.5158954488564406
P 5.878963901119448 0.2879662744722542 9.335058725016276 -0.4064615850026291 -1.4128417559518893 -0.30547148104079647
P 1.8583077533242423 2.364381644784016 4.352671403451995 0.6974374435304118 0.005117523732223444 0.24307029309575554
P 7.644167330066954 7.452981811865505 1.6313394654343478 -0.632073059191989 -0.6664492226790135 -0.37861885175874793
P 8.892753277464902 2.4409977850081117 7.947831941077606 -0.9532066722500745 1.0179136255101566 0.5069726924455139
Ni 3.101566607127878 3.964325358784058 12.451015857988724 -0.17670574962759247 -2.6232456476174044 -0.016220061403288195
Ni 0.4451100056495575 3.951228818995962 3.6035502492154086 0.003430108727471512 -1.161432603973135 0.07736629389530547
Ni 2.23508441981062 5.982777711234235 12.91091546068118 -1.1199761366005614 0.5532900874548149 -1.0795365405282762
Ni 3.0501020904658604 8.874873413151809 9.801014440512924 0.2532220368177768 0.03712313010454252 0.04703756100477705
Ni 4.694800763798058 1.2711293227122922 10.875454196071306 -0.210753840351237 0.20327784368916604 -0.17872612249173092
Ni 2.621326354673053 1.0678979371617647 2.658931211564952 0.5658820651872125 0.7007837342948253 -0.30796956487230187
Ni 8.864136278139048 3.745416834472411 1.180469194220005 -1.3330511688858075 0.24386219286943164 0.8456391721810403
Ni 5.471782248875908 2.8436080904994383 1.3902746556543106 0.19771294800687886 0.49329493784810524 0.6101140384223944
Ni 5.486233603124841 7.102398224955318 8.70340090617679 -0.052146342986252134 0.04893426380685766 -2.011825488789077
Ni 0.10526447539462135 7.7814644118567236 9.322297663094675 -0.1879388993392505 0.7718053169190255 1.1790973682427501
Ni 6.747768627512427 5.222468738807099 1.671375615215831 -0.12532482405245512 -0.7813345965656995 -1.6168958156854476
Ni 6.961350058229761 8.542363235477692 3.4083353100460814 0.6790088045115791 0.11478201553960232 -0.000569242239908697
Ni 7.393637251910862 8.471055755998103 7.9735291769939804 -0.15673393449135586 -0.035278877806952144 0.2460828546698343
Ni 5.982077262941556 0.8923139830372258 5.073748819991737 1.3383152454982243 0.05032754460995849 1.2285185989883554
Ni 2.194237224637615 5.501625032713948 4.567486913463929 1.3383383854266757 -1.4466551049569085 -0.4591499165352802
Ni 5.934271666966291 5.124083402960567 9.944512332977874 -0.8698193689716697 -0.04559851456540533 0.7606284743665997
Ni 2.017650523483558 3.5363606683827724 8.534003938090077 0.7714530757859295 0.9587777385799487 0.3523324072583932
Ni 4.8569821928277 3.035613870517312 8.913629401514175 -1.3324209915009764 0.020890470295764022 0.5181526203217334
Ni 1.4334950802400075 2.5877048366245146 0.45770332863791363 1.0740202386957374 -0.7695574014251133 -0.33938818839289936
Ni 6.265003074634 7.3956556489647625 13.281436017942955 0.27993656999448563 -0.9016241721870923 1.009908752927809
Ni 0.2319552954052631 0.37695454348701835 7.626547368936143 0.22909634741416673 -0.5631047595523915 -1.7764497361241018
Ni 2.826566920852578 1.637906168178203 7.36570687624033 0.15862703774901069 0.4089905220720698 -0.380024730967339
Ni 7.469967682962944 2.9812553964355466 5.90810807994979 -0.14408462115846152 -0.7008027604582189 -0.3087331825112038
Ni 4.803877152532832 7.913655594249867 4.583336399370747 0.6602891166148886 -2.1731192747369734 0.9292563320820642
P 5.300264581418862 9.073773078997618 12.542620670033635 0.851816504636346 2.002913788121744 -0.2730922933791426
P 5.616249709240722 4.2861813492695475 13.128765939413885 -0.4764680960987536 -1.1649136205432002 2.193552860000977
P 2.001411182803315 0.3774660550691713 0.49701138085200824 -1.0423000247743213 -1.3955505729716093 0.14578797700281343
P 2.6868827850127612 6.879102682389531 10.79102529245638 -0.35597797443078044 0.3569696489200885 0.9622919223807944
P 4.905644916319005 0.23186313115622653 3.276816005028414 -0.32547594918718137 2.0671522863858396 -2.2319414870815044
P 8.397140028270778 0.653586458612756 4.812409718708636 -1.139415990492728 -0.5989986452355233 0.6712762117540116
P 3.2238869984492053 6.555366541223695 2.518994545682775 -0.2939552528710808 -1.3053089657755326 -0.8529012530600925
P 2.814622434177439 2.527549231278349 10.391071160622287 1.9177729924873426 2.169625402651102 -0.9335354190733922
