# total energy = -381174.074833665 ev
CRYSTAL
PRIMVEC
9.19109219923206 0.00000000000000 0.00000000000000

0.00000000000000 9.19109219923206 0.00000000000000

0.00000000000000 0.00000000000000 13.45209248341939

PRIMCOORD
 96 1
Ni 6.381908350826025 1.108822545937402 7.649720246687037 1.1187499775029441 -0.7597926087288657 0.4559072412282664
Ni 1.9072527194736135 7.213306971840934 9.897740059840793 2.098300944074502 0.3837312332846488 -1.7521697805308147
Ni 9.214988971882189 5.808641552347833 0.2621244329590035 -1.4030288836265257 1.0905984547693928 0.5754902777009379
Ni 7.524103752295947 5.1114604497414575 1.8518819040315557 -0.6162646314048226 -1.3839243015865907 -0.2742050668273471
Ni 5.750305690583882 3.1785921564950175 8.870686065058738 0.7434925860172614 0.2810778826877804 0.49165071737646293
Ni 5.433029190175571 4.608404404062196 10.793851322341066 0.2416890964775128 1.6277247879801517 -0.023198292493334244
Ni 4.116267375836151 6.782961656020599 7.6806197793267454 0.7993125212003589 2.055119523591022 -0.8129442530511806
Ni 2.8403140105643137 0.3811205836871717 3.8866325344557504 -0.7816084190523764 -0.0041523316054767195 1.2961710080300064
Ni 7.171303680796148 1.3950515371226753 3.013443855733527 -0.14580031829798762 -0.976207504020622 -0.356840836651708
Ni 3.970956209223886 8.686142721679587 11.862848866069049 -0.08853696580014431 -0.3547304751769245 -0.3580639104255317
Ni 7.702677481335144 4.3148501124474485 9.446973975520828 1.1116007680526725 -0.017193223949834906 0.14542416590549148
Ni 6.132811371855397 0.6540234103897681 12.038721333130551 -0.5677327452427061 0.600309907847779 0.8441098800207076
Ni 8.239924389746703 1.8791647419171882 -0.22450345464291713 -0.26640536827727024 -0.14154874211048524 2.069414085836823
Ni 4.668927745753642 1.5697098609134963 2.7564682725870595 0.12607584328586674 -0.581737029941598 0.373170427049667
Ni 7.598395350001636 5.560629122248821 11.74925891573312 0.3059440498018408 -0.04909547197507028 -0.7490070880775874
Ni 7.299877868635426 9.16758131866359 9.874468214561713 -0.4020009781281141 -0.4357505637747334 0.04475802094198098
Ni 4.689083810799859 7.607338282646401 0.3607586381771899 -0.8624135634259017 0.886111421263474 -0.10128038150874169
Ni 2.51178761338602 7.307451328552474 5.866403889962725 0.7300264332100266 0.8680766752489502 0.12202969824095113
Ni 8.150154992890156 3.267736559086565 3.7741997426192846 -0.3503290036751192 0.9566342098743846 1.1318083533487993
Ni 3.7535501159255604 5.11587217396498 9.18794050684593 0.6889456040093166 0.7215407643365187 -0.4444059254568863
Ni 6.541309461677165 9.097462476785982 1.2854064035299477 -0.26271892056461854 0.29919387556220084 0.6983591840137328
Ni 4.8605528256207595 2.7743127779619936 6.834160634743788 -0.769554830321952 1.6950236703371258 -1.3369021672007813
Ni 0.9885846786621547 3.2011470965877753 9.580203451525136 -0.3630168835554329 0.795241950675411 0.6921751666902078
Ni 8.253720219037342 5.179704308824068 5.364896543307762 0.4755463556154327 -1.3807083657524544 -0.5930658246908561
P 2.61383630933137 8.344895852990136 0.4751803823510935 -0.3319052497522929 0.5361901945497347 -0.2450119902031587
Ni 2.0137682861952797 5.896710597159896 7.825525618775975 -1.2244966223131557 -1.820432826573271 -0.5044923492258215
P 8.857749602882471 2.1930037738680053 5.545208307869184 -0.3142543694397491 0.4388698261300054 0.026752585503495862
Ni 4.463598747517209 5.351807509002099 2.400324481769516 0.27195175201679617 1.2455184759804614 0.8044642406046274
P 2.7301403891739766 3.683808108825379 7.77582019252429 0.10568596677560509 1.2789034791988103 -0.5745975906833394
P 7.746031862923382 8.849937174569984 12.860779047211365 0.5586222983010056 -1.2312917908581182 -0.025698176097052515
P 0.46891113840762566 5.436043868394977 9.936105516619598 -0.41584765420321934 0.3129970999938803 -0.29720127061220425
Ni 1.8895506760267302 5.198711487353743 4.862581299654366 -0.00011467120099335088 -0.5779824479951723 -0.3623321987835824
Ni 8.688468067989067 1.0633082576980635 7.355254198732764 1.236086384033284 1.2643759750065968 2.9675058193906247
Ni 8.574342276981826 5.9034476676929 7.6281027979917795 -1.3849393731146666 -1.3817501767534075 0.5623041180279671
Ni 5.148445404481986 1.2918355724765185 10.034816927011697 0.5769385801116903 -1.1998248305980883 0.8238896963190907
Ni 6.343425248067925 8.34490504408227 3.868552737122228 0.12782470765617338 -0.2251013673221607 -0.7273810251673795
Ni 1.604112118764838 8.71717184871836 11.805771264818015 -1.2386914257562989 -0.3381658859500241 1.0206212542493067
Ni 9.325833542998186 7.15220459134515 5.251979380915921 0.18881024620061032 0.05750477908468807 -0.6473914347166141
Ni 6.724607412072383 7.029972257077185 0.5646326865290742 2.6831747198728695 -1.9617553116055633 -0.6924628731339558
Ni 6.100449536457435 7.384674884648377 11.732995278204948 -0.32023501250321623 0.07556523613082469 -0.3668069467254844
Ni 4.410970553967441 2.8346247245343967 12.151046589189068 0.19860126414910315 -1.2923048402063808 0.42179538714622195
Ni 3.9196882973097043 4.996636135732158 6.111702190555057 -1.1176251198698817 0.31276775759189357 1.605278028940861
Ni 6.978281554924916 6.796435797086606 9.523785770689205 -0.8087674959656717 -0.39222461546764065 -0.863339674784597
Ni 2.57652966636621 2.5001057352858185 5.870923149964195 -2.059387554838757 0.7079113464785421 1.466342813193823
Ni 2.33210176219881 1.709699385181138 2.069739279953579 1.1095390004276375 0.9695444901781496 -0.3560862178738706
Ni 7.906094732408051 9.19982366986383 5.562050065092481 -1.1904832414821884 -1.2535068935025766 -0.5989456805104008
Ni 2.7058115682996777 0.7002959637300243 10.21940622585151 0.6009927928474166 0.8304722346326149 -0.5664826748856889
Ni 0.27062435496298975 8.291523180977649 0.6233205671216927 0.8091804151333741 -0.5090156910174717 -0.8220073916947134
Ni 1.1911655403510188 2.340493229315635 3.9835948800150645 -0.35703469783006897 -0.05300637699370226 -0.04466083324248438
Ni 6.37768044844515 1.7538809650612874 5.198682075858919 -0.4285201074645652 0.6914840541604543 -0.4141070173630288
Ni 5.7917023695479335 4.8972620475973185 13.370196247755418 0.19031588421185933 -0.6725072559476354 0.04021231055282752
Ni 4.08654338388017 8.392275932932339 2.4683780852449875 0.13777539111098208 -1.0899232830792391 -0.6021405332986145
Ni 3.0842915512172286 4.532228632469378 11.400822774777756 -1.7327520381258352 -0.8677136354825765 1.1188250537152538
Ni 1.1030137757097642 0.3906480697915535 5.6076930286216715 0.5849866472271473 -0.10240575336243654 0.776840822460404
Ni 3.583248369805468 2.8874551221110756 9.638962103527174 -1.3119884346782371 -0.44816539249931847 0.42474778490632653
Ni 4.138702831731189 3.549792794443757 1.108462255125814 -0.8847667343101213 -1.5880002156970199 -0.21413329834643122
P 4.156110760229837 1.4735342728407104 5.137286499524114 2.344870251462452 -1.6036888300768704 -0.18706189605093593
Ni 7.156754181950657 3.586979953211197 6.853222040717044 1.1147133455397253 -1.1492702575789884 0.5672329227881522
P 2.171689631213113 3.990340222530987 2.820755366506698 0.43678877523126064 0.5776667165269664 -0.11059831647555791
Ni 3.929504383707042 3.437661470429232 4.313978796913303 0.12650804572727892 1.1984307784640393 -1.8348675139413626
P 2.320493412835667 8.756353474478518 7.6644241558803525 1.9133697212133238 0.4754926195593618 0.4335784958240791
P 3.9824910298499705 6.368480165220679 11.118961390573771 0.5254440117768241 2.0250990659695316 -0.04345472874952516
P 6.806582762800708 6.006507383772807 3.6795241407824966 -0.5877845216872586 0.6629221833623614 0.49243824627476485
Ni 5.941443642567986 4.644139370272727 5.2155780605257975 -0.062131736333738155 -0.6993009791017117 -1.2998726252513098
Ni 4.186652759385597 0.9338609161062137 7.905377827221729 -2.0617848514263395 -1.714113082868409 0.6957189181774083
Ni 1.4104925719050032 6.302828194119388 11.855652240929428 0.5237859073481108 -0.09150427595858435 1.4735704412905137
Ni 0.4231716684110451 3.690646281371839 7.157306566587811 0.4661595150838939 -0.15871291259459763 -0.5159818379226597
Ni 0.5916186521388321 7.688854078768108 7.439357287289723 -1.1415026978184277 1.6256789611947164 -0.18297281358322684
Ni 9.152167857157657 1.6293140933917092 11.286937790384382 0.8479976451108879 -0.7491667535839033 -2.0100807381838286
Ni 6.124833503884528 2.0553120226334483 0.8583753955325341 0.08093138553874449 2.1987290048852777 -0.47995245510292817
Ni 1.479287896515554 1.268012261669498 13.474557422481263 0.09203160921696409 0.20729184994456556 -0.8379752278778793
Ni 0.46203712060185 4.213987067387171 11.928104701099436 0.23448049454421555 -1.8879070581658455 -0.5101446624155924
Ni 6.034926240645997 5.405033123540469 7.836597208358589 -0.4275294614165218 0.034165847248431476 -0.23740640994175888
Ni 1.7136883191665728 4.474747542273735 0.6678495702844444 1.5443868498824433 -1.511292638431636 -0.41397743376369994
Ni 1.912813330213678 1.7303793424788987 8.05491138155959 -0.8363104385809469 -1.5115284085915257 -0.4358145842434494
Ni 0.632359087124634 -0.08041929883031874 9.332980536240292 -0.10188510497227615 1.8349634160892785 -0.04373420766315694
Ni 8.257938930326086 7.274703467284952 2.345910459018435 -0.9398189380892588 0.4543661219933916 0.34204336662755935
Ni 0.2995229868454872 5.517761868543596 3.1340015730149795 -1.1779164605607713 -1.841286787204145 1.158473264234495
Ni 1.8276762437918301 6.438130261399537 1.9724671945894052 2.2149218125950565 2.0057556284459133 -1.3845477941032025
Ni 8.878742057312731 7.502081895546865 10.58433486252914 -0.47399829440202235 -0.7269277396800449 1.5974209947902875
Ni 4.739147689644705 7.999742770144445 9.681174951472576 -0.16718598306261528 0.0015843137679843681 0.015314518869883305
Ni 6.585665672307829 6.797262995378516 5.880555414518886 0.49750229106123356 1.5718212919443122 1.1909385838520523
Ni 6.805672844679606 2.916131329563971 11.404078259611031 0.8661995128308952 -0.3366098543168138 0.22412049146613014
Ni 9.19384945997781 8.883567380682209 3.5768844576130365 0.64954679049672 0.09654389526502083 0.9004052121783267
Ni 4.134052139112226 0.9978217262551545 0.32862658008253587 -0.7855553195152665 -0.5089691540502526 0.5230456867479766
Ni 3.5767778409443016 5.699423804539259 0.18158840725860403 -0.44300416001335324 0.10191492976894705 -1.1431978261326634
Ni 0.24711537950689536 3.184033283037362 1.84245276261299 -0.7378078769276583 1.479207070751001 -0.6109177652706125
Ni 5.95227074909988 3.5176883096255 2.9035937607862485 0.18962528590273794 0.29106661846937615 -0.021989102676581485
P 7.773191540174442 1.9801380800830546 9.492118781856446 0.18960908795282186 1.5559102771410107 -0.4667261862206414
Ni 4.5654176661592505 6.730168022812449 4.509006419087812 -0.07623449428370742 0.16218467319328198 -0.29832072892862815
P 1.8807272275796858 7.610536782708455 3.799678369119339 -0.15302049019551064 -0.47947628679745813 0.26727568669736546
Ni 9.207268454491025 1.0507164614767603 1.9168960133388626 -0.578663533222597 -0.5793281633897893 -0.7054243183906302
P 2.0628027627213035 2.4520179412494256 11.73042636795396 0.43937299101866906 -0.04670331759380989 -0.9111138568450824
P 7.85447755899284 4.010900695631028 13.303473514420709 -0.319656771402243 -0.06414593855028952 0.43121693757043794
P 7.502063513362599 8.232038432697157 7.74726163105069 0.0058898831218737275 -0.723640841398657 -0.40291320552973836
Ni 5.088758452174583 8.836830677189269 6.029497062523425 -0.05129273673670521 -0.069793366644054 -0.4964324550358224
