# total energy = -340867.0253283413 ev
CRYSTAL
PRIMVEC
9.37846371526703 0.00000000000000 0.00000000000000
0.00000000000000 9.37846371526703 0.00000000000000
0.00000000000000 0.00000000000000 13.72632963693238
PRIMCOORD
 96 1
Ni 5.839688009170756 6.936790074471484 4.662257526351682 0.2705774973770888 -0.21344449980952274 -0.23233670872833534
Ni 5.413793214379837 5.392841726412715 2.7170722403342005 -1.6098931591153691 0.5404708242029596 0.0030485570183366854
Ni 4.169027237690421 3.166591385254565 13.363267926448533 -0.24868018308336526 0.24389381743831545 -0.7702294877914735
Ni 3.139750222066606 4.047698052448412 7.0919689488449755 -0.5582600298655805 0.022129484909187695 -0.425344537950061
Ni 9.053396796192025 1.327521540620426 -0.009883025075985903 -0.12095754822269493 -0.23802553158299655 -1.1876743112784836
Ni 4.012622598107752 2.0665069684885085 1.9079734176397083 0.2505102943135685 0.3466731520900868 0.5424711424624399
Ni 8.527349387255676 3.5573825903136433 2.2778844110559935 -0.34678422374665435 1.5138254321558187 1.3302460953368445
Ni 7.577198470100349 5.725270751695876 3.5358336942070836 0.36609886491486626 -0.1011860220227225 -0.02496695435798281
Ni 7.77653771662728 4.552071831710626 8.969717453583861 -0.7110727749256592 -1.5009981984841634 1.3195371935597726
Ni 4.135818097631525 3.5948683098322576 4.648146689827361 -0.27844738704346883 -0.30222829151315045 0.3473077003502922
Ni 0.28747804863749854 9.53902302646307 8.376780965650598 0.39827622097835924 -2.7048313789106966 -0.6827626151270564
Ni 3.6867866328249868 7.523488008333247 9.71350559272677 -0.13619570532868805 0.9863106538928949 0.31128423106783165
Ni 5.411214136854788 9.731844240699424 9.421395520854285 -0.2070997885384175 -2.1998399785612692 -0.31968145399259135
Ni 5.331881712184296 9.350806637916893 2.3296741634517133 -0.3226346230836444 -1.1197969307102198 -0.7576627068700564
Ni 5.831950776595611 2.2769690729961947 5.841390200337289 0.15119140740657186 -0.6557207805179158 -0.9838619352420862
Ni 5.794577598641726 4.997248747925182 0.4742060749901291 -0.7659087489289326 -1.05891320785097 -0.19555245002045032
Ni 4.422855358473832 7.990985668219132 12.29516782237857 -2.012346394289554 0.7152829563522649 -0.6214310060971104
Ni 4.554613395380765 7.190993333803993 1.457654289763392 -0.49597659844532643 0.5880619437183614 -0.8523893464206804
Ni 5.0543448350978935 5.6300230740799035 10.837308144259547 -0.5502474439737491 0.14309628910326322 0.5918607486391614
Ni 3.311807517610388 1.1656304997571987 5.53313885454349 -0.7120065995938383 1.4302100720270077 0.4978095378890072
Ni 7.372541634639954 8.73443524482148 4.371369468302882 0.5812804020201539 0.6216307808127423 -0.4039442178974141
Ni 6.558537875416006 2.27044166224189 8.548250231518669 1.2277120439266598 0.2180647721903535 0.2256189303885276
Ni 2.110407557196698 2.4308509058361802 8.955318698223108 1.0449778287168003 -0.41018762770396455 0.9197699898581836
Ni 7.3161958245654395 7.974676519797098 8.488924883517944 -0.7300601146614395 0.5993115484902517 -0.3630053135912071
P 2.97120047195689 0.46799659415618505 10.203645677589835 0.8642408464426277 -0.1896841641651314 -0.832165820284954
P 1.8418646268249192 1.293693421955517 7.196536005866916 0.4107676685771506 -2.1167542656836833 0.7242694761215913
P 0.9319707652196673 8.547672518153059 0.4652580827477699 -1.5048273424222665 -1.6835220974554297 -0.7218917199180341
P 4.367869425639798 0.21219805814363701 13.765724064691813 0.5178142631457082 -0.004098852659721972 0.5679299488551768
P 6.6853628404023 7.473810285968949 2.021984587635189 0.0687430710026687 -0.29891465375888515 0.284862032320561
P 1.2916864307178426 7.787651196144308 9.408204711621627 0.9574366511710221 -0.19150964740964438 0.6097299156100984
P 2.6672725979414453 3.119896014355596 3.1186224189814085 -0.3004642576341922 0.548023953959869 0.4217830458510478
P 9.331252541045162 0.39304391204641154 3.453160660756874 0.3367954879650587 -0.15664266032913024 1.79095435749818
Ni 8.579315454769471 7.029393025316318 11.718716797985417 1.0888503617300342 1.462925302871842 2.337582716662103
Ni 9.28004612909329 0.5009478264625776 11.493399206933452 -0.9868888949938681 -0.000832266093308244 -0.9667129342666254
Ni 2.3396547245504644 0.5928595845306974 1.0813274893111584 1.1567807070234206 -0.01115190285176144 -1.7378189111257811
Ni 2.1689291708559804 5.776749139095846 8.766458009218855 0.3717591485244372 -0.5465514831794006 -0.1135309167413206
Ni 0.23409208171536702 2.9792940861536783 11.610813821415624 0.613218388379331 0.2392727737265363 0.03049199794127007
Ni 0.27445511390556265 4.053794053871254 4.179790900510415 0.9189516077219464 0.6343204604652689 0.9345450912848292
Ni 3.2177321479603456 8.83058325495529 7.522907481428518 -1.0959412071385448 0.9360257895954137 0.3624394137854081
Ni 7.594248517156851 0.4902498128886764 6.748028797182743 -1.6786092335348448 0.6514928584794973 0.433726334255853
Ni 9.241753861694114 7.8720855050825325 2.615194926709293 -0.931289560462009 -0.606611938806407 -1.2796719819337186
Ni 6.360014555233362 3.322714670925411 3.1433571792161827 -0.16629355315533295 -0.006855846579568838 -0.17315454194122437
Ni 5.148298284719479 7.643025907003315 7.062594662604233 2.5541788747267304 1.2174636267257741 0.059818771929845374
Ni 1.2433216932753874 2.640328271652484 5.864766959024328 0.27045536997692776 0.7671279660480144 -2.5085798459406927
Ni 3.3756654771305885 5.006223937712352 1.2397016062765922 0.4948286008838123 -0.016229060264352696 -0.6293556602608258
Ni 1.8276187404229238 4.202048808474769 12.876299638018091 1.3817866864182977 0.2117753396372159 0.2331067541251405
Ni 7.44876978781666 2.364432625718385 11.086756522482238 -1.2473935815159871 -0.18245782162002125 -0.17007153214052645
Ni 7.833380585279349 1.2961787148432908 1.9295241894390136 -0.5251977000939729 -1.0314851935470042 1.6499260066675392
Ni 4.758866956900881 4.068471349604711 8.942099753599269 0.40082752664530324 0.07528781409972195 0.3033153539297421
Ni 4.012284973413564 6.194597212008615 5.887291215358543 -1.8547405987162058 -2.0355133193243202 -0.6016219417909832
Ni 3.0778148476105316 3.9522815624853442 10.773589923848885 -0.4453716318042652 0.7934537484267367 0.1792475422128397
Ni 6.317708305358839 7.81856261258998 10.866421709208666 0.35245787709266396 0.8085756916698397 -0.7108352049935563
Ni 8.30181609153798 2.2083749892936315 4.451092037064437 -0.5525920329465257 -1.5095342609796325 0.7182019297712727
Ni 1.6910683085512643 8.410578135385206 11.934672806544642 0.2653807836674978 -1.1384829371554972 -0.04890238212765772
Ni 4.586828418284553 2.162758141723319 10.524731450994649 0.22164606178370863 0.23233028097043212 0.3265946361726569
Ni 6.180182513259525 7.162088908595995 13.253004390558543 1.6012162001666617 -1.171013819903667 0.3141486970998203
P 1.2509370058220763 5.145925533396434 6.178029217987702 1.6296942530016965 0.9091623895456665 -1.1736003496839207
P 7.8332399083234385 2.685973254613979 6.742373583555091 0.7495467626311414 0.9754613698832169 0.20310249445356637
P 6.232270500801778 1.3076204405907788 3.5771092509179603 0.04565790704843105 -0.3515700751710719 1.8493482240560408
P 4.622588500477317 6.092784609783427 8.28106717838737 -1.1452773343695115 -1.3656386159035254 0.7899159104768073
P 1.5092198968760258 2.336991240851869 13.857553292279132 0.5172956716380769 0.42504886108651313 -0.9313216992515252
P 5.67820024224781 3.6135314526498816 11.758522749430202 -0.24366833169107066 0.12086833094299829 0.5387576981665947
P 7.2433439183306145 5.889525165418421 10.752712525745208 -0.6892420522038131 -1.3216917780089303 -1.4259790646647958
P 7.554727671009381 0.33532790842131677 9.869326891865592 0.3036783936961157 0.5562489129728226 0.725412588587099
Ni 4.311467344782919 1.9178020476260749 8.026801083347888 -1.195923181550837 0.24308083461871685 -0.9468791873701499
Ni 8.045990357980621 5.919583141664896 1.0849053732231804 -0.9176755692230002 0.25072498142753596 0.22716724871225394
Ni 8.8702541565224 6.582021548589538 9.386736470303125 1.4310649638281354 -0.5688887132240202 -0.3676713516083087
Ni 0.21229465632002975 3.917281135854504 7.443047049250171 -0.49174944773785634 -1.087172202696663 2.445795049403988
Ni 4.660468115472484 8.926553074278278 4.869992373607426 0.8468717590365609 -0.5279336109678971 -0.6398161934725174
Ni 1.3233199888705287 5.851523630394798 11.255040862068467 0.24096558804792692 0.474195498014493 -0.41429290812158975
Ni 7.56657267069715 8.75388617859221 0.39902549621177863 1.296280537024677 -0.25201567521450147 0.47744023020403586
Ni 6.324104417620959 0.47874994066607823 12.319985113094146 -0.34476385088251593 -0.43040164075799425 -0.5080096183504607
Ni 0.3022960213268681 0.0710681224338641 5.780102877724781 1.2962278294098708 0.3844362297714734 -1.302308488386312
Ni 2.13400377193496 7.012389870578453 1.9176913817540908 -0.44730278738870705 0.26202935069676164 0.5118888988002087
Ni 0.9603546856907921 1.9585139586669313 2.5109851891553694 0.022955066134276593 -0.16591097300493363 0.3698297927122082
Ni 0.6652791435876869 6.108549807309268 13.740467861873793 1.022095267691672 1.1472982214542822 -0.5830552345323895
Ni 2.325587028959291 8.086749161340116 5.285405797336548 0.8377852233542603 -0.28535157036246983 -1.0088743981260238
Ni 8.160210667717225 5.68080745516404 7.0267689311653765 0.7139580668932543 2.517390245143471 -0.859906737843648
Ni 9.177492628233633 2.0480313949454336 9.2449303473586 -1.6308257955029783 2.2763410962428026 0.6757841269266942
Ni 5.869183277593584 1.7623540113436054 0.5722672917243373 0.44718323109170727 -0.24142890083759064 0.09035447862485729
Ni 2.389444988479492 5.18395520381124 3.897166206851871 -0.040896223993729566 1.0978137415709095 0.11780743262948744
Ni 9.433233955617444 6.441391484996439 4.840850673267123 0.45422599687110166 1.0369379891314594 0.6294852438601547
Ni 1.1790417028874511 7.2870850731554375 7.097775155738639 -0.943944016001226 -0.3918564334949445 0.672516511919016
Ni 2.766618664206314 -0.0044163185692558 3.1807341085555585 -0.0470946394949576 -0.5404224874635273 1.2115336343945844
Ni 1.2024972406698013 4.009499569686512 1.4913379800868982 1.0749874877050132 1.798958715859895 -0.04304335224371942
Ni 3.0280339621452317 1.1018475679468172 12.213935320956894 -0.3970444054537871 0.6811111955665625 1.4086207758920064
Ni 6.3095771773071405 4.403545101659015 6.931151742078542 -1.1228969097917822 -0.18617537968092454 -0.09630092601627932
Ni 7.535154817210194 4.768976940799071 12.7231680822763 0.8662581339829726 -0.5447949054996101 -0.815148459791351
P 8.444218684775567 7.8611127025214165 6.620222844890558 -0.05097546260660253 -0.7776154958428995 -0.7591855712724861
P 5.970039276518572 4.74868194529287 4.7608261179735445 0.17110691538357628 0.13429411743060096 1.2707623381489146
P 5.301908142111368 0.400380684220395 6.8503309552145035 -0.3209821750818859 0.06462364951765645 0.1903094564539561
P 3.7947796426465636 7.031315610380444 3.660166801380995 -0.5829853005264024 0.8528043224709119 -0.20359228960579132
P 7.5490912143091835 3.0776272783359824 0.6460148412451336 -0.980026620656396 0.5817797102540755 -2.963455303470335
P 0.998815765437061 4.159958263265978 9.775987731618153 -0.6915298197967251 -0.2771384384240582 0.6267914990780754
P 0.2118716876059218 5.654135104323175 2.6685771422459337 1.2564112116335653 0.3334818502107934 -0.1101835975356425
P 3.2942322765851477 6.178588174425859 12.56501342136209 -0.9820256533642959 -0.9521028976629345 0.06352990223284542
