# total energy = -340865.60849498597 ev
CRYSTAL
PRIMVEC
9.31742029793393 0.00000000000000 0.00000000000000

0.00000000000000 9.31742029793393 0.00000000000000

0.00000000000000 0.00000000000000 13.63698642530370

PRIMCOORD
 96 1
Ni 5.29011456225437 8.365133529339838 2.173667548441639 -0.9422432312600354 -0.9331811210577672 -0.8261273274003579
Ni 1.8069459905790668 8.494254342498289 2.8595806387602387 0.29966747276450967 -0.5175607523740053 0.3125499851541327
Ni 5.718184811853064 2.582323088964113 3.839070740864214 -0.025975598128155267 0.8667564137756297 0.31024062029466565
Ni 6.989248680336941 1.8076261622748793 10.337531750796273 0.717506703476461 0.5710533249755069 -0.950524497432221
Ni 8.212225341668937 2.041800891464614 2.9194469288963103 -1.2007152036228417 -2.302770494078924 2.9253626103636714
Ni 0.7667724605619961 5.898467580925288 6.185573644179955 -0.35094349733066654 -1.7790000133497812 0.249603466228583
Ni 6.285699576513773 3.524379522505136 12.938758954193723 -2.5414151473031588 -2.3678525712902383 -0.16421867290417522
Ni 8.75121016478749 1.0601267859976469 7.821479746813455 -0.511605306121519 -0.6297662654356831 -0.21650102724765943
Ni 6.242876711939069 4.214800380857079 2.076203603141981 -0.8947331014942138 -0.9404555432319933 -1.5804666263241363
Ni 3.463956050623728 5.461918478680166 6.004515665722916 0.1887534248207459 1.2248208384217936 1.4916625229055345
Ni 1.4693572113643898 1.64943499718582 3.6307928501859963 -0.5124020909912014 0.4912619665784766 0.65711251865912
Ni 7.302453770127772 6.82892382595554 0.7492706179124915 -2.301118046077166 2.0612084100975787 1.062796602065776
Ni 3.3188931310058956 1.5448003650766122 13.377856370943016 -0.3576823587163969 -0.5364349635706891 -1.0817219782153693
Ni 2.7283829725744373 8.620840817283302 7.909206987700457 1.1033567828763255 -0.28747350180147907 -1.3570084510323532
Ni 8.133120441703916 8.026333485461384 9.078319641176412 -0.5801442315331816 0.9597789261509536 0.5782894377126299
Ni 0.9582501103536505 4.342989451966472 10.435117754304356 0.1089083303676447 0.9156788505079455 -0.09789603841754108
Ni 1.1961052206371643 -0.11590684741871109 13.452505680429441 -0.1377774479935111 0.5512404040146377 0.44371789825092617
Ni 8.462780096081111 3.845141040313827 5.781959759884934 -0.2297463222933398 -0.3422356851440235 -0.34934349983339835
Ni 5.453579387341097 5.333487154638017 11.42904985816873 -0.8852858400383851 -1.3623211214945183 -0.7158331724287801
Ni 3.4407929432841473 8.659107463238112 12.013735697051528 -0.8904509291790923 0.48425776734650156 -0.011836330513295744
Ni 5.268954700320264 3.450231490241104 10.000261627362374 -0.02192739620071062 0.3170386170531056 1.3156262885411407
Ni 1.7787235239131014 1.2550658575015514 11.383474627581109 0.9959695171388977 0.9655348547981243 -0.2454336511216096
Ni 7.6230941614700845 4.0392788136555415 10.651359244275872 0.1502400992368961 0.35671613814838565 0.5925204937103473
Ni 4.179273056526498 4.227239137212002 8.131857931227444 0.18409818543692164 1.1469930315090375 -1.3488853077045866
P 0.45130137410785665 7.148464761679964 4.553662851452818 0.2818080759855856 0.9901585668840754 -1.8083630398929307
P 4.594317552279364 7.400165558812478 6.731625730740614 -0.7938211590684844 -0.28324789375590576 0.3297025856740193
P 4.770230451141504 5.057933761049619 4.038279986178951 -0.5909310377360404 -0.5658434986397932 0.4431432566943787
P 4.55407561318055 2.4287254121769095 11.766797033531747 0.5406767695661785 -0.42135881382943563 1.3358487862356025
P 2.7638543923820738 1.2887390151545057 8.643231510464213 -1.0046976410405148 0.1422712220988066 -0.5938232716821709
P 9.12404674571803 1.6163767892852439 5.673641019713751 1.0792264654870252 0.9645611780309452 0.16509104820679954
P 8.480250259500947 5.898001709900759 9.878714945320715 0.37125829762861867 -0.9869493159181583 -0.9189942880344238
P 4.5641104750489045 7.0997719221961955 10.552232139418646 0.6957351161273244 1.6285521689774534 0.29751031721219084
Ni 5.172854825380427 8.469106624594215 8.908088505329426 -0.21936960704470607 -1.1639147469650406 0.07008364419096316
Ni 3.335617900786486 1.0670403120016567 2.3277795468399223 0.9923851422217491 -0.6018445993247505 -0.4488521341536979
Ni 6.505162098748882 6.120893042876402 3.028338690427664 -1.3395419188164737 1.9192986851032494 1.0661434070508218
Ni 0.9911126524239243 8.838626203830108 9.311689345235761 0.11544201772110442 0.9757416201277971 0.24354774695280634
Ni 7.169605988773088 6.852739152729461 11.073165392078751 -0.6173216119144271 0.008384110298637174 1.2421431317503253
Ni 6.694277782446175 9.032652168125935 10.93802273005724 -1.4114245638893885 -0.185026610788462 0.6381634883604429
Ni 8.69783998021745 3.109325709331781 13.043832436808035 1.1563387343899956 -0.8402208293789465 -1.9580570368183696
Ni 4.972278714479721 7.1563938865174475 12.817158231113218 0.4352399426869021 2.120970103537244 0.10680182554760316
Ni 7.139538672849988 1.3641821688667282 12.704012135385865 0.2533310515918153 -0.42513447882178396 0.036573685358975726
Ni 0.3204782682257768 8.122526534606127 6.824752416801907 -0.07524179135313494 1.5893713850129336 -0.0019756356691320812
Ni 7.218988317373161 8.51825601768202 5.745971223240071 -0.5834789523333693 -0.15250755511483413 0.0612084531885204
Ni 4.049332310364877 6.263701146735515 1.8056052137704723 0.31053783982011035 -0.6862554587716633 -0.05861806675352486
Ni 6.189758097722276 6.038312745068395 8.689323857889061 -0.7834472720333281 -0.7089829822761661 1.659425461517542
Ni 5.271433134170757 1.4952316880667291 8.344145107942758 0.4258289337856473 1.2128914339740595 -0.07897606158458656
Ni 6.915836724291665 1.6081401895715717 5.667177525119436 0.5669632140665333 0.10289760539719053 0.6014609907330868
Ni 5.536373985820386 0.12052549275589135 4.14294350229168 -0.321594097634272 1.9796836139492098 0.9834204768292933
Ni 7.554238424044701 5.204534055048397 12.863946589848712 2.0502657950431464 1.0175459577580928 -0.5717804329495185
Ni 9.029624006466497 0.2882157680350962 11.140900243819116 -2.394583559527179 0.2759655011618795 0.6263400133629536
Ni 7.738164304528742 6.42585221553307 4.963277154543772 1.0102327119261312 -1.1546996561246758 -0.40222594965472663
Ni 2.308838162724623 6.958715493389312 10.4492187384748 -0.30531721485111935 0.3431803084454799 -1.2407367383211019
Ni 8.427783864718494 3.6533605743562285 1.5240150634462273 1.083034783489522 3.1374495677040355 -1.2480582116831795
Ni 4.709946740567456 2.7825917249886296 1.094003995159345 -0.15754923130379964 -0.10442046979962018 -0.8884356985212764
Ni 1.7194647295930159 2.8112614278381427 0.8986838411573755 -0.3103558057162913 0.5252889742561986 0.751969513140021
Ni 4.856388638417894 0.3236601673233097 6.425856874243315 -0.7961611200555707 -0.8899112546255383 -0.6901884752774824
P 7.089364363508218 8.22337829399616 3.2515216586646623 1.9935452024226505 -0.6498748632601001 0.27337691449909696
P 7.498110283009451 8.577393685535728 13.147336865811736 -0.7935285675287301 0.8215283951757658 -0.8109231088560938
P 6.484728995613041 3.373837959638843 8.30856560605743 0.7583494485244359 0.43868470670239285 -1.4163669954963283
P 9.143967390726889 1.6673989838916574 1.0894263464723233 0.7637153408220395 -1.1571149504343878 -1.1780421875053582
P 9.210642851757475 6.164079286850238 0.36646905576727734 1.3750997613164253 -0.7728173031233078 -0.23761312663592626
P 1.4777894769083642 3.4300965445609624 12.402757569116252 0.17346153165868192 -0.8161897565716717 -0.6859867784913088
P 3.0386251226492638 8.584866256769175 0.7860641796877409 1.3061173206094407 0.3758672571555398 0.6178417460839554
P 2.208834288599233 4.923576557575462 1.5400792281140354 -0.09924149670184199 -0.6306370980764106 2.312643273107946
Ni 0.73479227821218 6.412099702888974 8.59359295280065 0.6434671599615435 0.26630123859923815 -0.3414769526011281
Ni 5.053722286987877 3.2244424394928908 6.333916295810472 1.0027418028657247 -0.725022552237532 -0.8181288825759135
Ni 2.7781939025170757 3.5182672946633162 5.266167859851532 -0.756116188318543 -1.5969229721079463 -0.005067901441210627
Ni 7.832149125017217 6.623288355728449 7.314484423465208 0.8251446517721144 -0.7298256300531302 -1.2022491237688648
Ni 8.953053444874914 8.900018687442536 1.790741132861851 -1.012120158756831 -0.312178717857643 -0.2166118417939108
Ni 0.2641507343920274 6.153820806890111 11.839809272237977 0.4444028401330927 0.6813467086161362 0.3604624925646953
Ni 4.536624084601695 7.303748891575963 4.334298162132859 -0.2863229331368037 -0.6102680475017555 0.4012301614003606
Ni -0.5356156438691597 5.97149752273045 2.45757587298394 1.5518124529225532 0.7616921397444237 0.8549964450262242
Ni 2.115101038464003 1.0973685156984931 6.054508285365121 -0.28425782307765884 -0.10627732050270083 0.6053680390969768
Ni 3.5377500209091175 3.496436578453888 2.958953723518417 -0.964974868529596 1.1051107894529548 0.2896224298236818
Ni 4.167346758298557 0.9137258847973672 10.312630012793148 -0.04841490096827791 -0.22649336257368088 0.5615602978834071
Ni 5.796143669097743 5.584470510392758 6.357412966803616 0.3890534168285106 0.15143411954499725 -0.44550018696232957
Ni 1.1652831936543273 2.903447986171936 7.641935849186135 0.7602759761231874 -1.5700809122144377 -0.6372815999761218
Ni 2.374889356582341 5.87069235044287 3.981658953599749 1.027813915343004 0.9054813411496534 -1.830871505408092
Ni 2.3231869902801154 7.763796528298326 5.493905183224325 1.0099414059379572 0.749881777373057 0.45964433967319546
Ni 2.9845188618604683 3.192819114347864 9.664055553348497 -1.5187742915206617 -0.8500445003375877 1.4490246336303496
Ni 3.357280903427083 4.712546300884326 13.298339640992314 0.5859801214886682 -1.6587140372728142 -0.7689524208512628
Ni 5.2992829040171 0.0064886516296395755 13.782902342767441 0.186988105390207 1.1305608540949434 -0.9157546980512036
Ni 0.23805450308201231 2.2850787404736455 9.751945849094085 -0.40092857099954177 -1.2215966750575413 0.6056387762598602
Ni 0.9021909182300296 4.283385913088234 3.9643537085225957 -1.8449033009108098 -1.638460429230101 -0.6988237823549771
Ni 8.883638662220097 9.324035859127829 4.235403061045847 0.4279701484983662 -0.6134171346536985 -0.1421516658018068
Ni 3.5878404734664735 6.448642626053027 8.654127301985897 0.4700776191913776 -0.45306694356599386 -1.6758625240276428
Ni 2.1490816709931466 6.585440993695715 0.21636820689018849 -1.3735169902103377 2.105670497065696 -0.3157224693448434
Ni 8.605532295417278 4.096618219354568 8.393906655556796 -1.0286459243259962 1.0188698187758387 -0.6288445249523622
P 1.9124750950553704 4.822212340058448 7.698637943323605 1.9824272381326178 0.41254970017823794 0.11874434262146001
P 5.835500453249951 1.3247135756686335 2.1003413126648764 0.1540255344212573 -0.5753190422303962 -0.03170735840560991
P 5.439696430810134 5.433295362933105 0.02851596541141861 1.0421784115947923 -2.256953692855126 2.567918850020642
P 6.7811161414183765 -0.1506757337213576 7.701461121732251 1.063322906882891 1.295134853456008 0.1895556090070671
P 1.2596500283829166 8.247081811724195 11.509098612829446 -1.0724004437041275 1.366959391597478 1.2568932934763062
P 3.306510279173916 0.1876258281608488 4.486541085980732 -0.14063600048822877 0.06687799276947193 -0.7569443406467932
P 7.892814849831381 4.251035829144942 3.5363020937648817 0.31925542219876635 0.043947609225543666 1.6837807504334548
P 3.102505357532677 5.213599905185731 11.053541041041493 0.33981139197324706 -3.2038051123111337 0.4094031841294562
