# total energy = -381162.8286246364 ev
CRYSTAL
PRIMVEC
9.33001334068787 0.00000000000000 0.00000000000000

0.00000000000000 9.33001334068787 0.00000000000000

0.00000000000000 0.00000000000000 13.65541761630707

PRIMCOORD
 96 1
Ni 1.7132796760763305 6.390303393536626 2.6816921406940324 0.6125501586677128 -0.8244154869155738 -0.6353476161782026
Ni 3.0640510145938076 2.949637061243208 2.7463370039885193 -1.6800089420958484 -1.1979988331329432 -0.5846786290684253
Ni 8.27387447274067 9.049487810096027 9.975801388608486 -0.15283794187105937 0.1767234902394053 0.5122349692857178
Ni 6.3410689132437845 6.546674416789995 7.428232854404836 -0.30679122829348454 0.9634383772804117 0.7732952712009907
Ni 5.225992371231474 4.84778162125404 8.851879060966908 0.4768288218722821 -0.48937117731366686 0.9841933504395759
Ni 0.7094728729255753 1.081572464178012 11.33926714324998 -0.20988969257872883 -0.6959194642239885 -0.06758607458009006
Ni 8.870052993914118 6.856598799273908 11.18035928937474 -0.4854695282664155 -0.029434503211033178 0.2387441549165759
Ni 9.009592673137112 2.284248501257499 13.061393537956912 -0.5227726355922481 -0.09174415988353232 0.8179221658817462
Ni 1.3273343450561135 6.699229464595234 7.547007655981488 1.2148323597505144 -0.8938545555440024 0.7231443613782126
Ni 8.41197732991229 4.657579969700151 8.048830819442308 -0.3327935658945172 -0.8923016092345858 -0.40253191093091967
Ni 5.364944259615269 1.9082023143704459 2.9969952758572753 1.254353043552956 0.5791718403175832 -0.3668714814148327
Ni 1.5430442530285404 7.799471285427781 11.973657666979305 0.431860741802024 0.802708177145469 -0.519955477858427
Ni 3.23601249010591 1.0289045389831872 7.067224782987936 -0.23595759331037425 1.2003202821772683 0.5831048568234021
Ni 5.6402449626664115 8.249467157893964 11.808017275491915 1.0660050817007447 0.053883380282016884 0.2519879073003596
Ni 1.272875057303732 7.122448198831276 5.43213901555028 0.2692973451130846 -0.42384995568240547 -1.896603557498579
Ni 6.498727478335397 3.0012880149860863 12.712592855968694 -0.5315367549381232 -0.024706758718060676 1.6048625386699973
Ni 3.353990508544982 1.693882578382789 9.792204453484255 0.181285655688791 -1.1100164542846884 -0.010973982513000455
Ni 6.550350442038313 4.6311200519229105 11.070815602977497 0.6121182133366168 1.1680675927911497 -0.5172751028127865
Ni 6.001540398493586 2.4890796136980993 5.490693246149075 1.1252335283447588 0.5954626070578067 -0.8547982129724893
Ni 4.130322256926025 3.7224793846423436 6.2783646927199825 0.3003994658345278 -0.2215874406316313 -0.5552112157369277
Ni 6.382447522320676 6.994552376232399 1.0888172195214632 1.9474797755231559 0.7943024695802772 0.18797900854856658
Ni 0.7071748906447098 5.139185927296548 0.7526288495400417 1.1891814919516295 -0.7789329291027424 1.8068599729848431
Ni 3.0543664607670182 5.516771566381502 4.468079935147973 -1.0257356926577366 1.6401025928192141 0.8401912616925916
Ni 0.33935497650243546 9.351472351244103 7.775667622442917 0.09430395019090855 -1.2221065248144243 -1.346720953063416
P 6.740328173272508 5.722787590513819 3.944203419201234 -0.9392381258851245 0.7178373473430024 -0.20233810548371606
Ni 5.589331079975861 5.298290644452855 13.394107410977739 -0.43487510314831557 -0.1904747783872268 -0.4060972596846748
P 8.434471992028273 2.3163344170670657 2.0871081187970755 -1.3182300447125748 1.136458450526301 -0.14170223696921402
Ni 8.94726818415546 8.7249339667254 5.538268850073512 -0.22581767666289496 1.1009828833275104 0.9594271992384897
P 3.135910777189121 0.6463786578449724 2.4277692971643963 0.5013964839093171 -0.8394507839821413 0.22066518592767803
P 8.404522649269126 3.250352720579683 10.998196377297885 -0.2511597549721094 -1.233199292293476 -0.3169118616672542
P 0.8246593513791216 3.3808516168950087 7.847317459738517 -0.17329955215952092 1.1114920103889503 1.6881994483264409
Ni 4.363563259927872 7.22154227030944 9.649641849945384 1.06897470585203 -2.4098664538281787 -0.36030796926470204
Ni 8.999973429403566 3.4878761996956884 5.290340540102366 -0.24405091184147001 2.8223274509473524 0.48566956009236356
Ni 0.7389715760413376 1.151174363549738 1.959921377210565 1.507917808422132 -0.6961940580416139 0.5836936394473368
Ni 3.9490680881465985 4.713018908851196 11.142752804683372 0.7909973164664442 -0.9725457388983185 -0.8538795578129617
Ni 1.1706927514164474 0.2631772837423458 -0.10582754209164572 -0.11505378114375023 -0.02943938830703962 -0.3845092491012539
Ni 3.6232267029377296 9.355484256971964 12.98111343833975 -0.591536275420207 0.34080640889666464 0.40325207692639586
Ni 3.0354265337261865 3.3890433685905013 8.270267489590923 -0.7304460372459485 0.5130518087600583 0.5722131496115628
Ni 0.5729281279784961 4.208880969085533 3.105446417694676 0.7609575755712443 -1.4064443370659776 -0.11271330593603168
Ni 3.963622908926745 6.054730804434365 7.372068040217448 -1.7641529210346196 0.14159347930549163 -0.49337927003179544
Ni 6.971292653024126 1.376942025881779 11.156476321276651 2.2832763899100548 -1.327279556509353 0.9216610362333095
Ni 4.515017366161281 4.139810880473082 3.8251421862156403 3.65211345814622 -0.2381538296307447 0.14282838015385724
Ni 3.474692890873671 8.781585807608126 10.888147004178666 -1.1102483677898363 1.5443084312360242 -1.417989618701416
Ni 8.516249558783391 6.272586615470531 6.208626575153776 -0.13227323034583024 0.16072222971514255 -0.03172972700311309
Ni 7.69548828696962 1.8218903611415131 6.943383784178195 1.913829948679194 -1.439718268627759 -3.2111841783840247
Ni 2.7614506925665703 8.32123362035607 8.492918927473882 -1.0233574222335473 1.2388724314188535 1.2844925432508136
Ni 3.739982489631802 3.794329817224336 13.29790471062763 1.734863170931567 0.7725272826867147 1.1370292354281064
Ni 0.9035810010568016 1.941342521685241 6.408501584518469 0.021270993563634336 -0.7077239130580844 0.15279757555142717
Ni 4.984158425961348 7.136555178972033 5.408036792139155 0.5084240801800598 -1.070022430390254 -0.8413369452612608
Ni 7.169406155873889 7.705611351422478 4.553822757564348 0.26363114796624276 -0.8104045173484623 -0.6655431659249764
Ni 5.428136439835739 2.5470656464856694 10.086752041014478 0.39471421465871376 3.0511090953345774 -2.329947054493716
Ni 7.736848236019868 2.225236167004662 8.960834956524954 1.0941866863412832 0.24517731213642935 4.120777999040155
Ni 6.783218244507337 7.020191252837426 9.637597735749814 -0.6671825013006122 -0.4284159777865332 1.629614805914013
Ni 6.231870437339404 -0.02763083444897677 5.967800271322276 -0.5421137591230212 0.31067102296386495 -0.4293672859562089
Ni 6.321391915150626 4.954405013481933 5.9927076748829675 -0.01984300286785615 -1.5456801147725703 -1.2016418292021693
Ni 5.51211588973452 1.5039981472818016 7.681540850056644 -1.22482109553211 0.1302590281292789 0.42167634506985446
P 7.362294851264112 6.489668035401087 12.702487518541144 -0.7228615400304712 -0.153724972461703 -0.28270667654045506
Ni 7.392328164143146 3.8112824514278785 3.3776672833486856 -0.3285877553432857 -0.9576269128049574 0.13189990616681155
P 5.763569078738191 3.5818201038208772 1.3477773372428947 -0.924189201971802 -0.8341190873565829 -0.23623630089305764
Ni 7.42945228714584 0.411040267848653 3.262374442743284 -1.4278001770339346 -2.8029089372114244 -3.026944582273232
P 1.9275527619973842 2.994318495035593 4.6154764185882495 -0.22272052579481 0.1356164357864503 0.10189538938492128
P 6.463646628249915 3.4782849460021046 7.770356045859495 -0.6177306744273877 0.6649754663469645 -0.8887576006370694
P 8.321504190742367 8.197032483032153 1.5082544993586622 -1.7900369878902331 2.503157389373541 3.147085291021587
Ni 1.8442730630976487 4.521734975752118 6.1859313177514 -0.6371630721203865 0.16427652272530419 0.6502011362512673
Ni 7.651907794749064 4.492466723965374 0.9642951297393179 0.5922677542695929 -0.24209867321110565 0.09428389558625054
Ni 8.332420306327478 1.5617322697097158 4.610150846984848 1.2628065736369476 0.7769364674980039 1.6751256458616184
Ni 8.875529711733314 6.767319901809023 8.819051409098353 -0.05567749606796217 0.9133368326383304 0.3044903480744498
Ni 1.6960751315131317 3.4842468245139724 11.053404865119914 -1.0927052166997504 -0.8600211519343254 -0.2732594150846262
Ni 7.91709476336067 9.160785538997544 12.826683990858399 0.4890513320804029 -0.39745166819453487 0.47191801483422596
Ni 2.8376955614225685 7.964388600882826 3.8982260465586163 0.9979600652063649 0.7113944199311361 -0.6871098363521586
Ni 9.246005880667965 7.215673691930778 0.1282578271157163 1.5684634312156729 -1.3603639977681474 -2.3886401974595506
Ni 0.8612749886558426 5.092909061226339 9.919117825680473 -0.742383926334115 1.05473516521388 -1.171155230577538
Ni 1.8652842530956548 0.4734048758875844 5.07466701918189 0.01667488955251967 -0.5765613992779296 -1.21978636132168
Ni 1.929596034914597 2.7302138079691796 0.5148478620563873 -1.1566647502708467 -0.1716635592179947 0.30116771145912
Ni 3.765845286556524 6.769381834752877 12.073655816748236 0.6896390305319156 0.9349978625515318 1.2857912074575792
Ni 4.3630034591286355 1.7858391896706889 0.8593781969477633 -1.0872588488731985 0.5802043953471556 -0.5259420344591652
Ni 5.826705278878737 -0.04859817338437623 9.523930183464863 -0.3369165869239552 0.20198355035777474 0.20121453340223408
Ni 0.47254464865942447 8.418191118783815 3.332550137934228 -0.7621796209038035 -0.33701865971945827 -0.48542941905709946
Ni 4.933412483510568 8.754174228472182 0.9732034264578331 0.05327608571532114 -0.4626461026139968 1.5427331163291043
Ni 8.727275800068874 6.160794395863022 2.676338579050668 -1.756369163324143 0.8051075306155812 -0.07342659252126708
Ni 5.029651570912626 8.726221508563645 3.621307519197681 0.5792451167576799 0.6950517169070545 -0.7362559590595062
Ni 2.5522531338919268 7.885811228696675 0.9091696790358451 0.10094356699461325 -0.5814765771913598 0.19648190381325514
Ni 6.575625448123837 1.1470131776087475 1.1205653888488236 1.9186415111352249 0.14998581713424494 -0.9878090928152924
Ni 3.2278487284503794 8.221766348345081 6.359355739352174 -0.493262284837957 -0.4720910500769805 -1.8943648979760472
Ni 8.891176144071972 4.630690871310162 12.507939013781185 -0.35253886684224445 1.155329833509507 -0.8763952224169745
Ni 4.704537926742765 6.345407369437867 2.576053997872795 -0.6474449136623688 0.1211020442203592 0.5747302596064618
Ni 7.600602051499049 8.36291078985922 7.7529723650405415 -0.6626339626979814 1.430690354097536 -0.7965820096430732
Ni 2.9709094916141914 2.187029762456777 12.11388496818403 0.3564849959741861 -2.8413728976145776 0.38586859134262574
P 3.0760214216841466 5.56301111239843 0.5237291017362729 0.6502438165637447 1.8318156144889162 2.5939888076348168
Ni 1.2264209209804313 1.4851048703075729 9.119606592205715 -0.0636204050641227 1.8045254113143954 -0.25917696884963104
P 2.9520162146399627 5.363134237031071 9.37183603831766 0.22983065447703 0.5884123850792446 -0.827089434203311
Ni 4.165403107011507 1.4170144330937853 4.774412262503453 -2.046296011762121 -0.49833867091959977 0.8751194410283445
P 4.966813931198341 8.442654413710446 7.69138681311388 0.5050101694025044 -0.3475941212424595 -0.4908631884781611
P 4.847119190308276 1.268275360736673 11.528968706089884 -0.6351627538609061 -1.984782882848988 1.3142823729187365
P 0.9605808514363843 8.428351503289957 9.669483056272986 0.5013692302158075 -0.20845167458062167 1.4217966511523321
Ni 1.987572737688847 5.428910830941349 12.49308190056945 -2.2304942131120167 -0.2044458958553382 -2.031528366534643
