# total energy = -381174.195400504 ev
CRYSTAL
PRIMVEC
9.18008991166798 0.00000000000000 0.00000000000000

0.00000000000000 9.18008991166798 0.00000000000000

0.00000000000000 0.00000000000000 13.43598952344438

PRIMCOORD
 96 1
Ni 6.247078791394004 5.901898226965623 6.794862106302995 0.14460655510020257 -0.724130893661198 0.9000421724119532
Ni 0.004116352360035255 3.7826010076680796 5.091514765313206 0.11146015025522094 0.9864595207659332 -0.472443805430709
Ni 4.668507233806532 6.316636333392191 11.656459681322815 -0.7706313512155825 -0.813871135740824 -1.9296607450638636
Ni 1.7389660902247066 5.503041676254625 12.061649576131021 0.6293877990503419 -0.02550457202900769 -0.13068403148183944
Ni 2.078253036867309 1.9536883955351985 5.354067175588586 -0.928540536961962 -1.2623502028258193 0.2645030090482348
Ni 5.386647315030524 4.043333924103676 11.093438335007885 -0.8548169820255666 -1.032480467580738 -0.12454886511837905
Ni 6.770509163527122 6.5968677610069015 2.4180210202263828 0.5280135722762133 -0.4718069431776585 0.1969958673351962
Ni 5.948303581961115 1.6946629758412761 12.237955958780855 -0.3776135504226852 -0.0823110394950905 -0.427442043909038
Ni 1.267045203132083 6.403672766767513 9.741696703443774 -0.5539632022624394 0.39442753665623037 0.3797030859618622
Ni 6.306960518522706 7.392350100556712 9.244484668376357 2.1898245033067965 -0.3428020991704548 0.15537587780156467
Ni 3.066425465706013 8.74576159049346 1.7281501081761035 -0.990313604404701 -0.9904969240601006 -0.4873549182145865
Ni 1.6429698890006015 5.602875155102492 5.7407151245966155 -0.3370762524302711 0.5583405053945288 -0.46140683089025697
Ni 2.722603554598965 0.49259261377488794 10.203210122493195 -0.5438960478344246 1.6997272464603825 1.046094973040379
Ni 0.6919199081402883 0.728385061674035 1.9619367064082842 0.599810085393225 -0.6900745754074373 -0.567916579118738
Ni 5.976587439278842 4.861977630746192 8.928752914687847 -2.1492671507097243 -0.3902448660334505 0.7130538099114301
Ni 3.4308566788832646 1.7589052457242527 2.156140592539662 0.1306284956535557 1.1329416956222942 1.715008598099485
Ni 7.7548167744720375 4.457704826929883 1.194192008820665 -1.1675870536103052 0.8183602818604293 0.5429123437649166
Ni 3.790238842555567 6.429239317442576 5.943127847214042 1.4868938978722974 -0.4670840837806924 -1.1188952448315568
Ni 8.334365036830167 6.789594570655832 0.2864702167848264 -1.0376193314692 -0.267982482956403 0.08139829787283401
Ni 5.1326250443915065 2.911584887524223 7.448093443109357 -0.6999213862945302 -1.2517834830535668 0.14370692610406863
Ni 7.000791721402868 7.059470856740391 11.567487166964595 0.2173191522735806 -2.389298142758524 1.0836063397222757
Ni 0.8426367898900359 4.3993653549226925 1.3684824437045218 -0.30738798133721895 -0.10836068539429079 -0.6454340538799271
Ni 7.732160312329827 -0.09338446561654468 12.987644337329773 -0.45702541399310964 1.1112408136100924 0.4672103249459115
Ni 7.161893120970796 8.913849038558237 4.55854903368774 -1.0726400705187593 0.7409057991266917 0.18910232351973238
P 1.4957946859763258 2.2613040316467536 8.608693666569092 0.2621854166586517 0.21606008305549887 -0.5004104658469639
Ni 2.433651041475705 7.626864679926607 11.627572692091496 0.6295783177945932 0.8196962270630335 -0.5784084797889975
P 8.946778021420517 5.771540948837835 2.4889904600679547 -2.393082035280988 1.555196538903438 0.014849149197690554
Ni 4.313448892528469 3.156674930584485 0.11604735382176108 0.971298753865095 -0.7989237704023725 -0.7008588105071348
P 3.479391814760844 5.118680487667836 13.344853573696945 0.03877866343009451 1.008355035287444 -1.300590991474573
P 6.51258535463428 2.5378358829878374 1.1631724846802567 -0.8828011259433183 -0.5756502003175699 -0.8337287938966996
P 6.270267698756736 2.1113105409897153 9.84327348138435 -0.5719850927611568 0.012946789968655122 0.5151804250672869
Ni 2.552900410692605 3.8484589733926398 4.368094296316038 0.4836286184029348 1.8616524953446907 -0.8068185997694168
Ni 7.039687762770998 3.960263289612241 12.542079488652986 0.6017103877397315 0.46503388611988294 0.07011321187731796
Ni 1.0483203785776674 3.8902467431136043 10.08341453792076 1.0272647277077533 0.09718384284186488 -0.05802002815820975
Ni 3.421116603383717 0.9696102868405079 12.510410932148941 -0.38536851177775566 0.45896839665209344 -0.3793174204876693
Ni 0.1684941260521746 0.9820125884426658 9.972594327350123 0.7806370562780427 -0.7319573316841522 -0.28565984563150804
Ni 0.6291207484067263 7.120123711429849 7.443001247181366 0.670619037785987 0.27948225606588645 0.5231045650103701
Ni 3.357223176921082 4.816627986101735 10.17331515937889 -0.43454085973734846 1.1624993546747528 -0.2646945562337506
Ni 0.9836007440142227 1.3198123605038106 12.247012117574732 -0.735601613304959 -0.8409073139230099 -1.6852951301954522
Ni 7.080520803131026 -0.10964515904948502 10.774522008095252 2.5011773828290345 3.2483062800473026 -1.645650776330953
Ni 1.217849100773856 2.7720658795674527 2.88150907663674 -0.4788453380816786 -0.7009115181219413 1.041113717775704
Ni 2.9459551445179164 4.166521551934436 1.7439242568385669 1.1534616699525166 -0.303279101375168 1.708130125812097
Ni 0.17121510473084195 9.191932325110841 5.378641358533676 0.6010712114938358 0.14417615243100332 1.383212877341863
Ni 8.115796273805906 5.478540016020607 8.904715767008282 1.1798031360605228 1.3545741305592478 0.2210462234161806
Ni 8.175705541204636 3.1552061161830447 9.408376815307022 -1.1736659128145335 -0.2592715854459664 -2.027713106553611
Ni 2.856880731160597 5.792453193878335 7.984645835901339 0.5027910502639986 0.8192437129066471 0.21809433987670826
Ni 2.4939091522947763 8.287353795894083 6.279336709676627 -0.6866177272070885 0.2991709927440654 -0.6376466966250245
Ni 5.718966573356296 5.769714110926044 0.15446327648242017 0.4308580115691224 0.054036875140745656 0.8157426417319241
Ni 2.65054902811833 3.0395828825196998 11.595286315529846 0.35211746303410973 0.12300440344939462 0.8477284506099014
Ni 8.683649101492572 6.889483130043752 4.993996505165609 -0.42496092935839713 -1.1937652546675699 0.4827639564097944
Ni 8.514102019116365 2.0896914290185222 0.5740301102537211 -0.2305536486859836 0.2991969608859944 -0.32045484182350614
Ni 6.880000097064456 4.7132877128704305 4.275237685875011 -0.470320588440119 0.5131435971429162 0.4008802342601096
Ni 4.2303966182170525 8.126151415336057 12.905455909488204 1.177267771233179 -0.5822497079119585 2.8983680840526986
Ni 4.3168638860118165 0.23415104780553797 5.019443714670555 0.7936612364518524 0.6799398009662806 0.5775109076753925
Ni 7.790518144517036 2.937803224589925 3.0111796840318563 0.8841617537362709 -0.4065325474498805 -0.24424014503414068
Ni 4.995171556686761 8.627852514417874 10.807211390608298 -2.7658999640872426 -0.28648388419470017 -0.026657968907160542
P 1.443477353015039 8.79115713558796 13.470519825830134 0.6728648963973701 -0.2430885479282007 0.15708514718318753
Ni 3.7504890528166004 6.4040675106378995 1.6284956410834124 0.03159011610145527 1.0454174873573803 -0.49922698706182417
P 6.272379119458805 7.9592114785224055 0.6681232788189605 -0.9735291858575105 -1.3654252143411387 -0.5985052505388725
Ni 3.074513125003942 3.7005493631676445 6.708508671624343 0.450181908708715 0.24506649759017793 -0.3681588327676885
P 8.538640399710419 4.850741200575176 11.064711997351724 -0.6664137414553878 0.24726479079307737 0.1928041978513518
P 3.5747362295943095 7.747711384805072 3.848349730321533 0.16106315799432905 -1.787860806174521 0.0032627299116718004
P 8.659432024048831 7.914559520718633 9.505922615724645 0.133078499855945 0.24791013768656012 -0.5625494012695538
Ni 0.2772937988118308 7.927494267541314 3.075242942159657 -0.8224799604557577 -0.30660353776271065 -0.687386487052313
Ni 8.093341773643894 2.243990381889781 11.417474398118538 -0.10027842260678858 -0.851506943815727 1.5460349270088278
Ni 1.8953764637980355 2.1884416572453267 0.5714679471322094 0.5128448349555749 1.6000993129533991 0.6022220372688273
Ni 7.500858764463083 7.82910206282486 7.172910146990595 0.5424300048118593 0.7935645629729882 -0.7950642874469662
Ni 2.8677407776412434 8.255076599422441 8.57584271447189 0.17083900643417027 -1.608618920388636 -0.1981667477148458
Ni 7.483306432365876 9.188627492707601 1.9165769636648182 0.7160118640984895 1.0007417417165603 0.8940047079686215
Ni 4.649660509018057 2.787800553842877 4.450671959973989 -1.457632944124651 0.9206037986133886 1.4833565741430002
Ni 6.116290049035792 6.995237766947424 4.855780151981116 -1.001642913374591 0.07018211744204042 -0.46199175685944954
Ni 5.018810288459934 8.153847746893208 7.5375763704720775 -0.44230893371854146 -1.4197335979757162 -2.9218846791174005
Ni 2.0516491360212292 0.012674950275425237 3.997032304125286 0.19032334041102705 0.535151468872575 -0.8133697706243734
Ni 1.564535199963712 5.94642166350927 3.407554856413422 2.1295028235986035 -0.26507559372225314 0.24229741948547306
Ni 3.9640271265159313 2.6731871300805223 9.58776128213687 -0.34774221678454953 0.2553321411822441 -0.07597918373979173
Ni 4.561641806011772 5.61656266930591 3.5682633481289643 -0.48624754408302073 0.3685007894881396 2.003087851805763
Ni 7.009365925471273 2.3919367124748128 5.1780022293059895 -0.1509684927624884 -1.2987487960595119 0.3536842933005973
Ni 0.4393572718127014 3.773200595498864 12.645106720814983 -0.8348274262775169 -0.90190725064515 -0.3382252784330498
Ni 1.375048962087959 6.763266072510023 0.9155322126154952 1.058195870068971 0.3868800633262756 0.10043808811310444
Ni 5.6867077370646735 1.587742467506462 3.063876154710514 1.7039934779359038 -0.6633227612348899 -0.8982436857506337
Ni 5.035040687595845 0.7344053647019366 0.8710822167919209 1.356447950543193 0.28027184184671733 -0.5790291440921318
Ni 7.526232533247957 0.7943779747217279 8.262864987786077 -0.5442470034159401 0.6227970332067015 -0.025758597021342738
Ni 7.158037483167015 3.6008994861199577 7.210880835285818 2.409019532446851 1.4857379298909832 -0.33751051175421226
Ni 4.842111915966717 0.7205755591033793 8.777127204027208 1.7937949122707686 0.7791381031350131 1.5170634794771423
Ni 0.9184312850403371 9.509930643022575 7.765329813550344 -0.10027148062825311 -0.22600485297303657 -0.22018053298177567
Ni 9.075078959386289 2.2981437328528678 6.8283850409888585 0.5590943528414177 -0.7549717903014546 0.6020148063540276
Ni 0.2020335849000533 8.163027836902206 11.736229155447012 -0.183968858947909 -0.7734546795969905 -1.055788031958427
Ni 3.343251079927385 1.2803196132850958 7.188348304358729 -1.0612259151445465 0.003697760566561373 0.2832499506384347
P 4.420002197262923 6.62293003654245 9.271854188729186 -1.2629263870442637 -0.5941251191933058 0.5990482675265361
Ni 1.063724569612768 4.455483245147705 7.579940649845606 -1.68150378147382 -1.6073788773339477 1.636561155324859
P 6.042013940772979 0.676420244169094 6.461595462688295 0.4073180194656533 -0.0025453921296730354 0.033800236378896634
Ni 5.320403785525586 3.9148034838876775 2.3048231663434153 0.7775779577367448 -0.1083444874443747 -0.5254542961894693
P 5.140519921799246 4.38489753306851 5.757146567703724 -0.2423223591861375 0.5413128604882808 0.01956815193991469
P 8.52385127470592 5.540450543041297 6.729106039577535 -0.6775083087066525 -0.7789442419566521 -1.3952672374032358
P 8.56917337908035 1.0484305396577753 3.7120143775798833 0.7372098383323433 0.9203675142328664 -0.35254092372477347
Ni 5.318127123203354 8.544295335155962 2.79029203027132 -0.6728085892381381 -1.7161326844015994 0.5060987744809929
