# total energy = -340856.5499399931 ev
CRYSTAL
PRIMVEC
9.44729212240994 0.00000000000000 0.00000000000000
0.00000000000000 9.44729212240994 0.00000000000000
0.00000000000000 0.00000000000000 13.82706696807101
PRIMCOORD
 96 1
Ni 3.565578134864551 7.026319667970332 1.6524731185577608 1.798315425848942 3.933473905071426 2.6106125322344265
Ni 9.084431172552817 8.724404313363396 12.213310114033675 0.1954462634598892 -1.1403611280148167 1.1513721344133399
Ni 0.930541278485699 9.672704611763137 10.351826991872173 0.11844738020633148 -3.596150826737671 -0.276424185965853
Ni 7.3363703513190845 2.5450249455707765 5.5218251558204905 -1.100320310042847 -1.446394395096354 -1.2114539301965848
Ni 7.8846439552724314 -0.08821598055716666 10.574207748154041 -0.4893372387519379 2.051696613952402 -0.06947634962426745
Ni 7.627970472963335 3.6766593967803516 11.331530089609227 1.29130339552506 -0.9662370230714713 -1.3145225139540007
Ni 7.619042781815993 7.487583710582931 2.5685156376743348 0.8124714271798201 -0.5004150938326543 -1.1007370858652912
Ni -0.07778522521771822 5.116436178310359 2.015114988233515 1.627371775516107 -1.7142832898976865 0.5124910511605819
Ni 0.3711774981959891 1.1955170411972125 2.3996178921049793 -1.2085169590554476 1.3272553881396367 -0.035375551285816494
Ni 2.3172601774530674 8.888192018571273 6.034117802627 -0.25734711472974386 -1.1984829718582133 -1.1094004179672443
Ni 6.144112625937567 4.2230907787509135 3.8230735315967372 0.4856957853446087 -1.3146616106350262 0.1444836563690931
Ni 7.1896066666905805 5.264087908407488 1.7977951463935835 -1.5182531289098693 -0.8631172743611458 -1.1388385207227032
Ni 4.58192727912069 5.15392303383697 1.0298190935025706 0.6936995737545344 -1.0863144826820583 -0.7464529541971661
Ni 4.234106321478744 7.966929870503476 4.142644251314988 -0.6034546241243478 -0.5769033559983806 -1.2128711222590853
Ni 4.939535631501943 2.7903994663854617 0.3185475779708888 1.2700164611218256 -0.965944174421401 -0.0997199790001573
Ni 4.764448964799653 2.7137252427327456 6.075710451352166 0.863253542828694 -1.6986437835882167 0.6190427083705919
Ni 1.6998701836225312 1.0243415534737577 7.7836712960313985 -0.3924706700401757 -0.7355540478964752 -1.3136144003174344
Ni 5.298872838359348 0.35907835105059316 10.368889746349646 -1.6890494550315622 -5.618501897648421 2.343641007041041
Ni 8.08034461359747 2.448492513672865 1.8657551877031173 -1.8696506830588189 1.573650117622935 -0.41775155609415154
Ni 4.2292315186935285 2.1541810191616455 11.73445143439165 -0.3125921512459778 -0.7479351951696473 -1.2379553189212227
Ni 6.74928727092841 0.4047512852853215 0.7438949050237417 -1.2145647079114243 0.0627364597972726 0.6100335628934461
Ni 3.525956191296354 6.68368527375684 13.168691157951864 0.5146680042072427 -0.46180149522551434 1.8277578994797747
Ni 9.369852765085573 6.493086153230283 3.9404514137767728 0.4411200556167629 -1.9112642448345467 0.11578705976534898
Ni 2.833942036224714 5.48366187417097 3.353575229085703 0.21173831575169338 -0.39895730620578385 0.32469767626026014
P 3.1455420754974495 9.275823865625805 9.388288211122527 -0.27592487773193125 -0.6176720532753104 -0.10093199703038747
P 3.4144498012306808 3.9198138039234762 10.016216659423812 -1.0958890137443709 1.7171711529684428 1.1278321423098705
P 5.376227267051862 0.7434027010991106 12.616728386386837 0.5190748750256867 -1.9995721253430208 1.1214339520930103
P 8.022810603981275 7.941280472127783 0.3408384639625821 -0.6062566123495172 0.14129703111099534 -0.2604517217969966
P 9.268662818123493 1.8942387737446325 11.941857287776534 -2.3490606353947157 -2.676839521683461 -2.1601884256079185
P 2.0436665947790096 5.94281917061864 1.142392082859815 -2.14658369034029 -1.6060185066513115 -0.9970882041243729
P 5.434715453182217 6.1135506356077824 2.8947240249059414 -1.077792561253976 0.5164986296580782 -0.6837650882496418
P 6.505764419388727 8.663129176028315 3.7380923038954963 -2.819683842676918 1.1219458587324227 1.6873982925813842
Ni 3.0825664255628755 9.184836994260685 11.595033019463735 0.10487066996316133 -0.024380742837209625 -0.23031119365787434
Ni 3.646598112938195 7.073045975287524 9.03084424162589 0.4138234246843389 0.8433418915064316 -1.8528166422206156
Ni 2.7818496669268975 2.544070769056616 0.8542251072080989 -1.9510469240491237 -0.4834776946473674 0.28974995654048163
Ni 2.7864316036533108 4.044612534141857 7.578656552307246 -0.6402743640558586 -0.5671046247404039 0.4022100088151267
Ni 6.6413614046138925 5.717444567432442 9.751179489312872 -1.0175744970031828 0.31851417315736763 0.41850540354104054
Ni 2.7120908611787886 2.147048313535992 9.33127947095373 2.7190953450288786 -0.43653423601829333 0.45499167139253255
Ni 6.601833933967888 8.141100149860483 9.302892247292853 -1.0431610872230357 -0.15882167025832003 -1.686462411030676
Ni 0.2470721992265132 6.463393313784683 6.3456280926236515 0.6196258345675716 0.2912288550788533 0.43846924825747713
Ni 3.1345265327696197 6.6694954408432885 11.094451236092404 -1.2357544546151622 -0.9486067115842179 -0.6900262386680052
Ni 8.217207535980034 1.1692441215350386 8.667925566288108 -0.5635626730254165 0.44531583886566534 -0.7251328525631512
Ni 5.2138661029691145 4.314833433493585 11.139638579507055 -0.9190210275073011 -0.3688604868204035 -2.33503732453243
Ni 8.643932278238477 7.119148761318235 9.777533655688133 1.6856766819045872 2.8281620553512585 -0.40206191327303664
Ni 1.1278649816140314 5.643963528549885 8.853858669187499 0.35349043212223635 -0.8677699426418086 0.18924244864202244
Ni 1.4419024222793748 7.819334824159664 8.155024513862667 -0.5329290072999595 1.508105756063222 0.27717700497147746
Ni 2.3358146593719846 0.5298022582059602 2.7340539261304686 3.370006362862977 -0.8776100686606821 1.1057833900399472
Ni 0.5884661639715965 2.2136139345139414 9.660114205422332 -3.288823009214426 3.659485068019943 -1.3065644354491885
Ni 4.771562775840867 1.1798534306974338 8.364476650742276 -0.8669070804208813 -0.3238445842313455 -2.1303122068737768
Ni 3.6017518167726648 8.965348054127178 0.1521155756707989 0.7669808989471888 0.678280925206619 -0.19566712122144367
Ni 8.988248290467023 0.5427705562355416 0.2509975491436772 1.5808126968096452 0.7776489201839962 0.13454737109198764
Ni 1.1749124968666835 4.483505388778896 4.775135741758247 -0.4124201165789091 -0.6883550216131694 0.3606859214294111
Ni 0.45034958591151647 5.474734183023629 13.509957584251985 0.21148249098714544 0.8846710892725216 -0.5658470981842191
Ni 1.2375858334502365 4.30677489323043 11.317619896545372 0.48644320503359445 0.6114610393685921 -0.9980176579171779
Ni 1.300202486280473 1.899737097816328 4.830043404137448 0.3967399868394909 0.1379535685600592 0.10162156689824432
Ni 8.061705106048578 8.031029748212159 5.0512489172672215 -0.029530148248633016 1.0719217042954958 1.1169126671838892
P 1.7963459317671264 0.5204900622652896 0.7002625859084056 -0.4557095233951635 0.04315210990744181 -0.681472178450407
P 3.6781426216587985 0.9359725267826368 6.352347951579317 0.6990009313627897 -0.35780680010940313 -0.1271107123082843
P 6.49520234668743 2.3704862218172122 7.674893283958689 0.6798184448970679 -0.5267066805393317 -0.676741605743957
P 3.915099605105991 4.489126527649445 5.69650275476968 -0.7482653248155564 2.3217894583835887 -0.5859626379871715
P 5.393194603877919 6.342609682759551 11.886244857397767 -0.28685592282213823 0.46478757443703184 -0.14350766560906897
P 8.043717461662824 3.981485727531772 -0.09291222951943438 2.0062312825307513 1.9269112073431847 2.2482471662200636
P 1.8745033802982893 7.002332993025254 4.936829927010304 0.014427745389555796 0.07812476932788481 -1.4118883908996847
P 0.7710804331143104 3.0163975908581415 7.160830214590264 0.39974946308977605 -0.20946288945395541 0.05698053115010186
Ni 6.9735470936327175 0.2801726769756532 6.6046095484219505 0.18691174362631682 1.0419470123102765 0.5578357978439684
Ni 0.5259477629804417 3.1316073194738228 13.311193169060191 1.3848203310382992 0.3434399898647698 2.453075642225801
Ni 6.023791912231187 2.163316550737813 10.120251186073157 3.2596021646760964 4.450216275309193 -0.6096584389422146
Ni 0.374084430011901 7.349256457906358 1.5059201085457494 0.04253298826620417 0.8066455645266625 -0.43191807740252064
Ni 9.50170862259185 0.24278123910045804 6.265624643192816 -0.08238354460423876 0.43444161515532276 -1.3572694180032236
Ni 5.061708014483329 3.8081373625978534 8.609105780200851 0.005809407592925479 0.6249544458693366 0.021080731929699177
Ni 3.4090742919578374 3.866464944760479 12.697561308074537 -1.8156865701375378 2.4415097917650725 0.790818881907051
Ni 6.279265588428419 4.596173795787558 12.96872410246054 -2.174969440571835 0.9386627129976286 3.015690606625968
Ni 7.871559455548551 5.955988695972495 11.961435856172036 0.48154139685660285 1.6728458486885063 0.8239105222546972
Ni 7.632212307169848 3.8230074005512016 8.766927520372171 0.7673087146002527 -0.7207810033523587 0.05492030618696348
Ni 4.7374580509288045 9.543938018812606 2.23467572778789 0.48299329881178105 -0.21381422444411563 0.5073611861331844
Ni 2.895510039618596 6.314740170712296 6.769786950315303 0.32978640363707723 -0.05532216961107246 -0.2590746389438119
Ni 6.439992370957208 6.339359814236074 4.811501203698416 -0.036949580641155715 0.4436646764154875 0.15949144263183498
Ni 5.375736007856452 8.184586035946417 6.085803938359382 -0.3217869303713684 -0.4099716550384165 1.4636583243831243
Ni 5.752040551539913 7.669907003125286 0.8664716321121175 0.13842536599015515 -0.9088849675145637 -0.20039023772872586
Ni 5.478805965970194 0.9874498773569693 4.526429160977777 -0.17811599971155775 -0.46763250008499463 -0.4495848985546644
Ni 0.45606047405814865 8.656827832117969 3.5673003762361497 0.5436440797246185 0.6626054234528911 1.0585820497637963
Ni 6.491602928351836 8.16397204432367 12.305509072990544 0.19041152924945917 0.6974364150891472 0.03527630670379086
Ni 8.539124018356363 4.157413203241589 6.339641343544213 1.846413566907749 0.9882037571505498 -0.0886853184525505
Ni 1.8590665048117765 1.9357218338800533 11.463758170428951 1.9189798683112498 1.0861859275239938 2.7236762795313414
Ni 4.210733720527927 3.406088947616505 2.542134074151637 0.9662712187435165 -0.1203109157776315 0.9988851481237958
Ni 6.083187038414606 4.560009561171664 6.514608974364538 0.09726174726765185 1.0657639122242162 0.17239786628085793
Ni 7.801687282293809 5.909120679272012 7.597268662708701 -0.7786408517836202 1.88671663740217 0.5547856981637349
Ni 7.056815527254582 2.238649258895373 13.1977699234032 0.49960108257179126 -1.2145248558124244 -0.7267428773627483
P 0.9721169220848701 7.292912807109808 11.484996628067401 1.1018768558966896 -0.6495434480626103 -0.6019479576718343
P 2.2173456149406077 3.102264029840341 3.0008879712215393 -1.6310695360826684 -0.38288739722711473 0.8343247756094856
P 8.889108405916554 5.181783098592005 10.220788325142875 0.48692014467001304 -2.7264217034869627 -0.567038804499475
P 8.548136735133678 8.67054530042055 7.786823857445015 -0.3161752406115458 -1.9099555533254524 1.2611219868456731
P 8.467976460652002 4.120086951682707 4.017052893279399 -0.33808026821475323 0.7358078157784941 -0.44443652158450553
P 8.711461523022805 1.1880914695127578 4.34287394153001 0.25579622530285623 -0.580167371461633 0.04929447535975381
P 5.573977987788511 6.769334425017993 7.9995390890572065 0.0739644673026081 -0.6971908747372445 -1.4105005094132224
P 5.881090563257028 1.9796800845769589 2.3609161147989517 0.2806701057264005 0.08114632976302798 0.05131073445883422
