# total energy = -340861.0869220527 ev
CRYSTAL
PRIMVEC
9.32024036034946 0.00000000000000 0.00000000000000
0.00000000000000 9.32024036034946 0.00000000000000
0.00000000000000 0.00000000000000 13.64111387170749
PRIMCOORD
 96 1
Ni 3.665836983989969 3.749281096970906 12.792472764626696 -0.06955836781511246 -2.6401033426046916 1.8727578612292326
Ni 7.771132626660175 7.377939641702419 4.993657159704934 -0.8618602620255931 0.45588590107202775 -0.4206306774141595
Ni 6.852622927757981 0.24153216788544507 1.4515510281530788 0.10672520667339683 -1.3289073219207628 0.119280160520272
Ni 0.8507273180169989 1.9020280751239524 11.413957004891042 -0.6851115749752071 -1.2592707925695474 -0.1253569628419712
Ni 0.7443470252488633 2.709589631400762 1.8840428070775639 -0.8587170884109211 0.3018382551635834 2.576624091104124
Ni 2.2235018096194827 4.517613761084556 1.0175232735981616 -0.6305982744186752 0.7521497474716272 -0.4174530510171262
Ni 7.022158102015016 6.424823889913122 13.72446139530517 -1.5156771406525769 0.0699481470543634 -2.419408074770027
Ni 0.04166520302356544 0.36538045535355523 4.9501968783657055 -0.3743942721544391 0.4242983560737338 1.865840308173793
Ni 2.191104653725175 6.9916249942158935 11.210745005722355 -0.34454916376854855 -0.08548815167149147 -0.32466322347789894
Ni 5.064301786440287 3.939516525324967 9.482865623891021 -0.004848329231236811 -0.4088925630416248 1.4393341458154632
Ni 8.164847545084584 1.102854735275473 12.059467540012982 -1.1078420723411888 -0.5217750475656692 0.9041975893412234
Ni 2.391825352614649 0.8165760928651224 4.90157970797115 0.6224692175536376 -0.16246980853386858 -0.2501182010814725
Ni 5.851041925493885 7.625131059604844 8.652121833478448 0.5373505334064229 -0.09077485399172755 -0.45442037227009485
Ni 4.596891726572756 5.01514683817027 1.0850642602550316 -0.5961421496233347 0.24276767425367224 -0.11929533002892358
Ni 7.614822873638473 3.5345520766461203 12.028188812975786 0.8431374888051092 2.3471994138162606 4.656003258573459
Ni 1.1565393204167886 5.077256920701819 12.19696997977832 -0.2754983317174739 0.640193117195962 2.2592270622703348
Ni 4.787080553724438 1.2638339287756122 4.425818712637192 0.6312245951487645 4.89371897222552 0.7346580184447671
Ni 2.5889204779589896 8.667180546015397 9.35719056928963 0.7891962587019634 0.13770802820815636 -0.19067481021317484
Ni 8.451733867173965 4.232815172861782 3.262286415791319 -0.21065845242395334 0.6197489904089971 0.4932052063477763
Ni 7.897701492323208 0.6600193534708085 9.67115405400966 0.30173026883080933 -0.6232508329146687 -0.17714669381975298
Ni 8.13936600762341 3.2041122708127516 9.983371857688553 1.487107042324368 1.1266165247352147 -2.986089753040399
Ni 8.318249383077797 7.431456462515167 9.457371038093182 -1.034109775654045 -0.5637369938197517 1.754803875719552
Ni 2.057759973236147 1.7786467317036858 0.40086633894158386 1.925126861749252 -0.02551691332418186 -1.6698122040685048
Ni 0.8401022438744469 7.434998153896019 5.587959497580011 -0.8027446868103595 0.6911402976677904 0.326275048049709
P 4.404484682187805 2.7927075359650417 1.1718823002882526 -0.9367297576409738 -0.5785727732810035 -0.2124489686654728
P 3.9388361477702247 5.555590302407131 3.2690109692946976 1.6676833306509602 1.557398431650763 0.4096245561116429
P 7.929930883888948 5.618977257883882 10.663354234234742 -1.6756457800311464 -0.3998479363408533 1.3098595612606927
P 8.962091595154547 2.1152938176940186 6.333351321786225 -0.1399338322148816 -1.5310567084324405 -1.2035884114055788
P 2.3784601277721755 0.7197947157631397 7.004002273567919 0.0620466328190996 1.0945998626193019 1.5881912486619036
P 6.529779117912488 4.320033983235469 0.5445313217096012 1.2894025789579213 -0.6105554968351872 -0.6343232886787462
P 2.794785949591173 2.7215941011337508 3.7589862633784845 0.8797520547043495 0.26253277269574143 0.43293751980597056
P 7.531350799936109 8.45265657098108 12.873255948951757 -0.7489451244914005 1.279976400548015 0.2337798689327651
Ni 0.09055359241597107 8.355269378248163 7.982834432878382 2.442087261535097 1.7091552246425017 -2.2340356506063714
Ni 5.647925924802099 5.129431626886035 12.048295367754493 -0.026319868841451443 -0.20629451902830281 -0.02659934775508322
Ni 2.4837136034667724 6.538269856986055 8.234676650778294 -0.08991430576364515 1.9866088803141333 2.9162009984690616
Ni 6.333345729641939 1.958956103950889 5.888295858700197 1.6123861007405522 2.562602580014051 0.512989073842923
Ni 3.803030923795553 6.771024222391276 13.260649880285394 -0.5367586654586949 -0.46651535576141595 -0.6080854380281399
Ni 1.180417776516103 1.3070146029005627 8.751401967052026 -0.39585064225600214 0.4860940492242919 0.1747905348827506
Ni 4.3138546637999315 5.7300465636354545 7.315688823539683 2.1185915760027383 -0.7641377730714388 -1.9317919324742536
Ni 5.959865053290759 2.0418130417818428 8.642546218413486 1.147997818624468 -1.2565536507487005 -0.41070827609412497
Ni 5.770440485858104 0.3704012688979349 11.490633691262413 1.1557962316229642 1.0839395546919783 0.5510593983520832
Ni 1.5315857971679234 9.145951979023076 12.647045324384681 -0.33430923120809525 -0.17732358571724943 -3.0840621532218306
Ni 8.7770382205051 7.5315092440242 1.0355737833278813 1.6589089268924397 -0.19866708439003203 0.38800723495218337
Ni 5.814301537537796 1.660988015935636 13.570152697913649 -0.3480188674847039 0.9598018089690888 -0.48828385778675903
Ni 7.083969936851338 5.455658684024286 8.550972991689447 -0.964044643405843 0.8378554144705634 1.4325106951357265
Ni 4.524221811581986 0.673329588894474 2.3529692700705267 -0.5733431494509481 -0.3105769205881619 -2.436857894815358
Ni 6.479794668240116 7.315065299451843 11.092817867028598 0.36106567336633305 -0.18623605771553087 0.5362557576803474
Ni 8.723530719932826 8.618771216983454 3.126911786926635 -0.24931987354989324 -0.12270512704142092 -1.2694665021556264
Ni 4.245910110730454 8.649928780894463 4.651019955160726 -0.7580090344658816 -4.124390398981762 0.2996659301026129
Ni 2.7708795327704303 4.082927065527992 8.662380622170296 -1.1469387812323344 0.9051362991054088 -0.8669376765485005
Ni 5.124100449333807 0.4040417448717308 7.072794968520705 -2.425329582460784 0.4768730448466562 0.5281215586089872
Ni 9.155645029118036 0.5413643039958826 0.7046847419035736 0.1384580190003035 0.24968419886784737 0.202567962106335
Ni 8.505660778567654 6.245362659549228 6.902499262640834 1.6580854025498801 0.6537909104850547 1.5226841680980294
Ni 2.0892251050828623 3.5859252421494063 10.823419112144192 1.7756997453319547 -0.12941750606459004 -0.7159162190608896
Ni 3.8924586311620324 9.338135337636604 13.441285460949254 0.9577562392939698 0.8871565746985366 -0.5308744387637759
Ni 0.5755267134363301 5.039509946774332 5.143723283631815 -0.6349629791452742 -0.38622314646856715 0.9848991182573489
P 0.5694862655838846 3.429475685520566 13.497964639355486 -0.5285241933640447 -0.7468959552718556 -0.5654367501196779
P 0.6408699873889776 3.488388925568874 9.152123842266233 2.219382676579887 -0.8817837404223976 -1.1752160309104727
P 6.430332152034392 3.2000300054842974 3.9681455079948593 -0.5767683730824131 1.0248969988065253 1.6750485127667798
P 3.077012151442592 1.7023885241296852 11.977866970598182 -0.16716772823017018 -0.40162354018403734 -0.3057707574487702
P 0.7335457985613163 -0.4293564500283848 10.419492006230316 -1.0524389129805358 0.19200432765787578 0.018583676539458315
P 3.528102470236781 5.123168425286215 11.359037487886669 0.003241646865749256 2.9599048671149153 -1.8470378307553093
P 1.5185933819444868 0.5362661324555528 2.958675854191943 -1.6280109517620027 0.13167056376482486 -0.9286549510526394
P 5.852924614070021 7.801768257104533 6.526086438635929 0.3390459745621322 -0.5847218236015349 -0.8484568441354936
Ni 2.0109630458065384 8.786675349157203 1.0764430378148029 -0.5072141190323587 -0.17797356059642253 2.455376522444836
Ni 8.699260813733524 5.031205612510285 0.9455570367633234 0.6582813421562405 -0.42644111344834945 0.1300620816271244
Ni 4.052906570955044 2.9906974043950707 7.157765736891599 1.6054736898914348 -1.3337947319200514 0.14157239625956908
Ni 2.8940931118621305 6.632022155933362 5.191453167133064 1.0515984193571115 -1.4441516218087644 0.05648430823997369
Ni 5.9658579679167785 5.010831566829918 2.8864328062149696 0.9823861220275081 -1.5146674684411399 1.3782655606389165
Ni 1.8480266018064555 7.6947159749980845 3.330587002046977 -0.9163542793084154 0.43678800390031225 0.7757126223932318
Ni 2.1164681679939847 4.822245821040095 3.420754736507245 -2.159040428046404 -1.0697879457819448 0.1542600190295666
Ni 5.361561536179369 6.516796022929529 4.8957545576736985 0.10143027682304466 -0.2586930872346771 -0.40867247661101874
Ni 3.6255921856149342 1.7110749882532452 9.50739276872746 -0.45140164004842903 -0.03002097184212249 0.3238857218819261
Ni 0.5588630554894277 5.54265380862655 9.951192795421381 0.8273154341711881 -0.06270560655933717 -0.9816201903957612
Ni 0.6809227888102083 2.527816981398839 4.3609824597664355 -1.2808413196514716 0.7882583202687263 -0.9288408418112002
Ni 9.13871947241376 7.182792446617547 12.355262147949249 0.7789645536716263 -0.6709944188475347 -1.431140297150761
Ni 7.882453578904598 2.525086150939394 0.8960572395956972 -0.44144632860793004 1.3062299349279052 -0.7996297953304616
Ni 7.693821231912396 1.8610003765489398 3.191147816310743 1.3376552433167221 -1.7547123444470103 -0.2717542912940094
Ni 3.373200073526944 8.221216359482966 6.990266103154504 -0.06884205847437821 -0.9024081015409684 -0.75442285977652
Ni 3.656768390006896 7.406282492989701 2.001751852144184 -0.6813546790359362 -1.4530080437581299 1.3789949826057735
Ni 8.301118781083051 3.745413197173398 7.4343932702891316 0.29170270939147824 -0.13707733660269295 0.3793485308359209
Ni 2.0203858089276965 2.98983062203081 6.1574485592360375 -0.35196293973411646 0.16040289870251084 0.676971462366576
Ni 4.445447139079486 6.044865646431176 9.591217147519815 -0.7961580347317772 1.504504411865209 1.884963145046173
Ni 7.210781128766743 4.99747566222792 5.536710291275054 -1.0981857801983474 -1.5338155021245006 -0.9656505544403821
Ni 6.731385239647176 6.977896279994859 2.2091234746372765 0.5355139944183165 1.5634690633248751 1.851492524092553
Ni 4.156529004566354 8.12935606935227 11.330977971909855 0.09591166099766063 0.05594900456179396 -1.1668596885259774
Ni 4.584849975877864 4.042328098014872 5.055560332897918 0.16241812936032674 -0.042396719798656016 -0.7477608743753121
Ni 7.303899651361688 9.47877776641828 7.093460737727969 2.8883796053814192 -0.550509182275568 0.19282836622106792
P 1.6256083830890329 6.745104633627735 0.46706521096992093 -0.5632572259698557 -0.7175537546643126 -0.8575346380670458
P 1.3334002036879002 5.363900916538826 7.264834795430905 -2.4157506805230975 -2.1187335008972417 -2.8438527266136373
P 6.11711615060053 8.706316235773796 3.4811573509836053 0.7572569867912056 0.5214806562537019 0.39920773165369317
P 9.405613878682287 6.433687438605725 3.3689863928077792 -0.8373463360446288 -0.7250402928493448 0.500880463504847
P 5.2313204957688235 7.952271500309736 0.9377988685911652 2.059409409215627 0.9258156818316313 -1.926252490713263
P 6.479636224152024 2.465520494057771 10.78759769989903 -3.747222677847243 -2.955535534402626 0.13762883823078878
P 6.023242688527035 3.9397122503749613 7.515271521067047 -0.3534932603357138 0.039128333460029384 -1.7706025333147057
P 5.121472141519597 9.402351794515713 9.453046446512355 -0.885685903690281 0.347383290783234 0.19629652727532645
