# total energy = -340889.4390056333 ev
CRYSTAL
PRIMVEC
9.10149471349895 0.00000000000000 0.00000000000000
0.00000000000000 9.10149471349895 0.00000000000000
0.00000000000000 0.00000000000000 13.32095750638873
PRIMCOORD
 96 1
Ni 6.484705608546412 1.789872602570025 11.387100926890986 -1.2368070642493925 0.9346505065144419 1.6594915388687872
Ni 4.825412147471845 0.39103023836424206 6.1115488850681245 -0.7146532931880659 0.25215322923363026 -0.35603093915590295
Ni 2.6469057300376653 1.3733154026004082 4.77356457394128 0.5374654617177325 -0.36742786813893497 0.1369032729186739
Ni 3.3383917741665683 4.048827129830533 4.753170855230129 0.3236831189528167 0.7739403609841574 -0.09118185962215909
Ni 5.23918429012651 4.373841498186481 2.864698122216326 -1.1035426736348866 0.1652265453433993 -1.1374871489011313
Ni 7.1952956896167635 6.2948211289325755 2.7307696307473326 0.3191703186841277 -0.5126648577342848 -1.34652477789221
Ni 5.095744736912012 4.362482833058835 11.87872361284359 0.48822729351721067 0.5306229848746022 -1.2221021539390502
Ni 5.783826822100417 7.905458000445931 12.246182800769068 -0.3035758066799804 -0.538038560612383 0.4566731728600135
Ni 1.9053978721735545 6.34830151057524 0.6165325065281821 0.5396755819951738 1.1050493400874002 -2.489642128495925
Ni 2.730211709134893 1.4535905840313645 0.35231976198531406 0.3899751573118316 -0.20675114694974714 -0.672792391288222
Ni 0.5541654256622539 -0.03017054409585916 4.823079434433211 1.150707247135831 0.5840844471278521 -1.0870670445773665
Ni 8.603742860961333 2.509864527451961 1.2849954101868188 0.045543750068069946 -0.09741729900890965 1.5601266292152034
Ni 6.808145418355019 0.7110041990697968 4.687405276320401 0.10657891090351966 0.004329480613289318 0.5180554326222369
Ni 0.49974394948898165 7.387673978721767 2.176804437963931 -0.3659098888325118 -0.14359919688161074 1.309372080101313
Ni 7.601331561952119 4.096391540052549 3.739525581567829 1.4894480317527188 -0.33903157638442905 -0.24618878412007922
Ni 7.413695151478128 3.977598833925923 12.778127837775365 1.1258716761493899 -0.8165556245515229 0.026099782410845374
Ni 8.211213606454043 9.048214344541917 6.607461105375425 -0.8347412943216139 1.3742746943119688 1.732280497806055
Ni 6.7614001426374 0.8433663233364929 0.4419776740894195 -0.504515489154273 -1.2677762589373973 0.6771501540362854
Ni 1.8653148904250358 6.523441569109922 9.233874820561411 0.8688593190512455 0.9308154490390679 -0.7435270387996227
Ni 0.18839456496528328 4.850996448492528 1.1975673642335734 -0.9779725663408448 0.14001327930256532 1.0899939884161745
Ni 6.278602265745504 2.149372533561108 7.192851028195863 1.1203363481534576 0.25419777046748476 -1.0778990049248534
Ni 3.55317794271409 4.22039940252384 0.48531535026874406 -0.5803638037431552 -0.08906429905852403 -0.10414459043041419
Ni 6.02526216652434 5.591503141962375 4.737944965092279 -0.009634694876286633 1.1722582338337295 1.2222672187620045
Ni 5.462926329255445 3.040017480192527 9.28765100077511 -0.08925070403771726 0.1322439197697916 0.645280044800566
P 0.1554253113127326 5.591949115192547 12.4581720800588 0.3945596913587205 1.1941792022765367 0.06104930190283679
P 4.118908637428987 6.1747360105879 12.664660416076773 -0.43651880939932564 0.5815472825282952 -0.06623958785452463
P 2.2258432902938625 8.424206780586383 1.3873380751662443 0.6966681694645551 -0.6514293522314135 -1.9337629401576957
P 6.502298797401973 7.927256079757397 5.876953313755922 -1.3304417562874182 -0.32050626388673187 -0.030379126512489616
P 4.78627572115063 0.7885698655900963 12.694232991984421 -0.7396050780373972 0.8949848124937038 -0.07758406633306639
P 4.137848847469557 5.939680813803785 8.271674834373073 0.9448855539788888 0.9503337215776536 1.0763997946715076
P 4.685540380098723 0.937362917865557 3.8922905260401683 0.47985603873438004 0.6265626708967209 -0.762566571929577
P 0.21691591825895545 5.691100796202619 3.569856431373073 0.1414600390514209 -0.5044326996324796 -0.78566664828215
Ni 1.5819762653539353 1.0164458035178905 2.45463938931493 -1.1800977844828064 1.3101416112774857 2.0059037239880033
Ni 1.914462960688887 6.6206819362764 4.7835689366883205 0.6719632105187072 -0.7800739846857211 -0.5487502906029322
Ni 6.125633447796514 5.5611496578272 9.441574565496447 -0.5676828658413772 0.9137669781972134 -1.1276076850038903
Ni 8.655366537727362 2.463710848876408 10.49302471683559 0.663607125244528 0.6437749210099494 -0.4971148258148278
Ni 2.697318908036086 5.269373947360806 6.990172577772785 -1.737429903217479 -0.7198746894880054 -0.9318287207949307
Ni 0.05386628500918063 0.2018210896418079 9.237165010820743 1.6251783674092137 0.005993755689589678 1.3455097063641341
Ni 1.3471577074266476 1.0790549841373407 11.654345379249573 -0.24916689291179667 -0.21090373566554 -0.600157698540631
Ni 4.13893192531426 6.431707606111893 1.5801049980861117 0.21028898489967657 1.235376502450453 0.877299993619431
Ni 5.769601186207381 8.141450651162854 7.942101527425428 0.2850461233069091 -0.4112235251676466 0.6946277419957585
Ni 5.472646725374296 2.9571392713364846 4.84599062652121 -0.23521377316581424 -0.597114540838933 0.6413912512691212
Ni 0.8422058827885963 7.571342137596677 6.832359034305008 0.47007093432315816 -1.0418413399703477 0.8984658290637688
Ni 5.242670162517446 4.695861474854131 6.890318261387829 -0.43334863920146016 -0.8405311615305137 0.5868278142009442
Ni 8.398931930378474 7.26169109194543 9.136152074186787 -0.3335299298399094 -1.0370076660271301 0.475071215751227
Ni 4.7403040724649435 0.010375703722368531 10.55958940696183 -0.6233351650983587 0.648632763322883 -1.6938350493456635
Ni 8.162183855618606 7.255802425008261 4.809638347365497 0.5395035751936837 -0.11306914661355366 -0.6911109870917518
Ni 7.368706464197718 6.158380624983429 7.0007494245234545 -0.14680716229594715 -0.1725387627340964 0.42547412154938985
Ni 2.318623925158621 5.024589252963348 2.4348181546074086 0.007305018301845484 -0.48582305495109235 2.188492414758934
Ni 2.4608438781110165 5.349558113846829 11.580494032631993 -1.6987797949454484 -0.8269415957715373 1.0211539868243251
Ni 1.0817854324853324 3.471118868362446 3.9940625273148638 0.09611657791961511 -0.28858730369094815 -1.1118841036210463
Ni 3.6273187168565584 2.492426064002787 2.584212815668877 0.5138941021556955 0.3424783972824489 0.3063238017387628
Ni 1.3870131518128332 3.711170785623384 8.369331139837895 -0.7774972250974803 -0.7797685376301604 -0.5452787871145641
Ni 3.690182739321821 2.760583396259054 7.497567243532839 -0.1535766198092968 0.45512536875691945 -0.8487224390920545
Ni 4.291354653593651 6.983676841152912 6.217037026544436 1.246277722743989 -0.862563972960837 -0.7270858625244639
Ni 0.9297904744471267 7.5929581870182785 11.368517495434554 -0.7277980581001401 -0.976917385603453 0.003141373842459106
P 0.20609424130641493 5.699601592059366 8.114567566877977 0.37611793971376517 -1.636323071172124 -2.0125094022299788
P 8.730071604528415 1.8385929025926904 8.13133889078079 -1.006921388164711 1.5443752799182178 -1.4869581754513295
P 1.7979274251966004 3.2664171557135067 10.664771738223168 -0.28817824117798757 -0.2518701507755727 -0.031872166118248335
P 4.097010441678094 6.077195294103142 3.8505956696168853 -1.5707609690005981 -0.24082392026374005 -0.0013719406468621533
P 6.996628267816887 3.987464853956666 10.674495774939816 -0.4217617056948091 -0.18531200323936473 -1.571250507042507
P 6.652928531266182 8.092812264590629 9.915707819630713 -0.5427123119389685 -1.0417066141646962 2.4368278129083714
P 2.7151760402319516 8.32103223901027 5.889874705488069 -2.098189872417935 2.0059019242157903 -1.1847427394539853
P 6.918064167350672 4.041646050675316 1.5593508601930268 0.3092782563813964 0.7908173392451542 0.726118099294556
Ni 5.463872884682749 2.8405764313607182 0.4808119307934564 -1.0327092957620925 -0.6267783864519528 0.06490827063761079
Ni 1.589139141520167 1.1384331342116671 7.186403529496804 -0.820317148476484 0.010171798326679256 -0.053840185748907275
Ni 6.892816621626241 1.0504762914283607 9.306393708385174 -0.08026418426839081 -0.3619205651674606 -1.3202007952857004
Ni 2.8962047657038026 1.6585107325481432 9.598482510262139 -0.31357662664643415 -0.9024906339524458 -0.8723868725885298
Ni 6.511682438224571 2.1627335274772808 2.785798176603308 -0.5301054218082354 -0.8982370008824143 -1.2197241406251769
Ni 3.980456703196821 6.550163556942267 10.360134705888282 1.279342623618758 1.5253162064042376 0.1738767648192296
Ni 7.996418336412027 7.311448962340332 0.2101717108394159 0.6034507674696059 -0.11500133063925999 0.4832519517898065
Ni 7.778655979165195 3.907499123338482 8.493602035500043 0.4628049967893642 -0.3895416693188388 -0.764677961845625
Ni 3.025646220387597 8.290906292237429 12.306952569351422 0.7655953314535717 -0.18425090896470203 0.7060501249000872
Ni 0.35141689373157814 5.012939340011916 10.225779354327553 -0.91842273180167 -0.6785601470099346 1.19354542534728
Ni 8.636380820214326 2.4475283916673103 5.472648545673194 -0.17996847953926426 -0.7070749666201758 1.1018416317833797
Ni 3.730620679355579 2.563599750940438 11.608348246379304 -0.05050546494871947 -0.7112964609006911 0.59732459996721
Ni 0.7590091216252888 3.3543466940133335 12.635580231021212 1.0689374248561914 0.37662496125717077 -0.2598637105040105
Ni 3.324830547371543 8.614391609518501 7.909531829381134 -0.8239334050728325 -0.9219806243562574 1.8301857921949767
Ni 5.4649741655164386 7.844559900791222 3.7137101025870165 0.28093390091074844 0.34336877030720214 0.12179624207390637
Ni 3.0939802410433366 8.380009923326892 3.3773152255166394 -0.393291109058942 -0.6988343238779383 1.2950885735991051
Ni 3.5030196065614825 4.253537943973966 9.675158050620992 -0.02755836923424286 0.16819025595741358 -0.5288484094726827
Ni 7.288931864963893 6.047588132516418 11.51444903784132 0.8233178829760206 0.7639038026837618 -0.9751631219165078
Ni 0.21389058148938062 0.23912174452372276 0.7080261900715873 0.10290531870667438 -0.4772628240859071 -1.2097305197475747
Ni 4.4115125838942735 0.17191903963350125 1.6241307472491302 0.7136176528347 0.18925119039277086 -0.609513171613602
Ni 6.071142800265093 5.820087176161747 0.23745708118089714 0.08965051057929722 -0.052644622778909335 1.331556843728468
Ni 7.993114493910958 -0.22954515201786646 11.698051665955877 0.22106936334463217 -0.009611040727202803 -1.0670502351358073
Ni 0.012906829340956855 5.083530531301995 5.643863129632914 0.3688959680440292 -0.6341391976923982 1.2241587793577626
Ni 7.63087501307739 8.773513037744964 2.608683093763579 0.05830207817500281 -0.4256690111690153 -0.27126012526641025
P 8.548906356639165 1.4524893031976749 3.372147396943341 0.6478298078056134 0.6514437504091167 0.8297386989007001
P 1.7615851576848307 3.032299412862203 1.5059341890118152 -0.10944671936961796 1.2170885027745426 -0.08023075992729409
P 4.712808457600667 1.0653754379139022 8.434523324594545 1.316288861825804 0.7336619730800849 -0.1355220763004311
P 8.336304546770037 1.720073241300863 12.602291514911947 0.9698203695473556 -0.4498674627920897 -0.637119877587277
P 6.07757755687186 7.813041425360903 1.3253751006558188 0.7121616371144638 -0.4893002148664154 0.36087541173239784
P 1.947956460424252 2.986000110374757 6.058957719437456 -0.6379092062577917 1.1967479914449775 0.40652483414039664
P 7.063014568651059 4.040435551907706 5.959169843962301 0.8469769171558573 -0.35183309902447146 0.5484219607292362
P 2.0816938205088866 8.696887555605823 9.870389658249646 0.42880961368052606 -0.23181683166912334 0.7750819307877684
