# total energy = -381167.8935944834 ev
CRYSTAL
PRIMVEC
9.26304461074120 0.00000000000000 0.00000000000000

0.00000000000000 9.26304461074120 0.00000000000000

0.00000000000000 0.00000000000000 13.55740211072310

PRIMCOORD
 96 1
Ni 7.972137232672182 7.36416657932135 11.837265689269735 -0.16212759470310142 -0.5864909996868158 -0.24842024455375927
Ni 5.139794685611558 0.8555079140169431 10.206188081430975 -1.2125165671331442 1.4462074758965286 2.148027107655036
Ni 5.656376143332697 5.39039708765552 7.317254817477947 0.47914975669597476 1.679510148082559 1.7433059023822817
Ni 2.9036494625235645 3.5014492931700167 0.38492858718331646 1.6356589552255638 -0.8583064832360637 -0.4972814332996791
Ni 4.004673440927844 6.986484471738795 7.7849172116434415 0.5698533911301347 0.24961940706818297 1.3640301337658252
Ni 0.6595250530261425 1.8767576281112206 6.05233609004119 0.8982290304626145 2.20710411632285 0.154442824464334
Ni 2.527958909477841 4.036306737408221 11.008949441963816 -0.19525240228152824 -0.709352706910759 -0.9021980424126913
Ni 3.7251147622227814 1.661873525109231 7.61672441002915 0.020080572799958965 -0.5634796263933071 -1.147419834633811
Ni 0.44238725133200774 5.351371881777971 11.293383260914156 0.648373081903593 0.029479240406039556 0.4978277927214524
Ni 5.977525891202296 4.357336065701175 5.539378335272651 2.3148230543680843 -3.548539652617611 0.44215929551455463
Ni 1.1532860746684932 7.538126552352532 10.889521937368835 0.36473258069495895 -1.6060545020955694 0.45988448070845955
Ni 1.0861938443881496 8.867623519831046 8.056417968062037 -0.2991010587380784 0.17311340429064379 1.1990213608601867
Ni 2.109936243718992 8.023584181032946 3.4191360284016623 0.6462166976822225 0.547617719660386 0.9415680595698817
Ni 2.078441892903975 3.649092957181945 4.492068898487818 0.7339388808905554 0.6481918191307224 -0.9632373170131991
Ni 0.45109636563679567 1.0040306409383846 3.5115024752110573 0.44966383142171595 0.8573695732440911 -0.5977598877324157
Ni 8.265192167005914 3.3644210779916204 1.5570538414658042 -0.9375591955208047 -0.036749291704891544 0.720127686039076
Ni 7.77661289237707 0.687627276997495 1.6588834143906757 0.7069063022527954 1.0463353711859593 -1.153476325240536
Ni 8.990618222808044 9.082072259748239 13.11819651518262 0.7749315212528332 -0.030396867124302486 -0.03387402703962553
Ni 3.6608848126488613 7.342741157722781 1.688574250469315 -1.323161163465605 0.43584363770917195 -0.7298433706649431
Ni 0.9398747957193235 6.614638082101375 7.12254377247741 1.0507360713568163 -0.8746389018475 0.6063841390663169
Ni 8.478955441640663 7.917207379633049 9.506748570268979 -0.06447478264461799 0.46947212439689473 -0.4507282681304883
Ni 6.5143378377999035 8.276780235496968 4.792758433980886 1.6680286298055207 0.6578933626892025 -0.15732348844623872
Ni 2.8820295169934913 7.293165344322202 5.832611120058045 0.20994831373080614 -0.32097626154461495 -1.992812438021684
Ni 6.810495891993352 4.545950174905697 3.4943250857547725 0.395636469362667 0.3386070872525007 -1.2536218218138862
P 3.0068212505758174 8.863501465092021 7.085532352443152 0.9939051784107011 2.1958185161067023 1.197832482758408
Ni 3.317253656123954 4.650696680498702 2.2584728652069694 0.03738383996509691 0.3710325547710578 2.1675114416318926
P 9.263970661793676 8.275511198420011 4.14043076642041 -1.1869276629204462 -1.360224901087122 -0.16206948777165636
Ni 4.612866407343252 4.687035603512617 12.087738408692694 1.1153579211022597 -0.9323943634904135 -1.011172193021265
P 4.45243974211817 1.9348739684092842 0.5372176679404597 -1.2184861544530177 -2.0797406645738112 1.7850269362701516
P 5.924698749232284 6.569128745173676 11.447978839716281 0.1698568450265591 -0.8142920253283266 2.6795993438167853
P 1.0032988604341533 3.8307227309410194 2.2479796885589542 1.6703019992207297 -0.3130860601632608 -0.7012372768924762
Ni 3.1622551348922836 8.859110782066635 9.431043561345163 1.0103646095183052 -0.4725096256716379 -2.9477103819312522
Ni 1.350449973814857 2.4686198473246064 8.348119571615161 -2.116292752666233 -1.0262771669835034 -2.1897532837492286
Ni 6.984196499782527 3.074589683094248 10.926452768917187 -0.8472173153014377 -1.220811974372717 1.1802669630708191
Ni 4.910154552948297 5.397242477435607 0.6767691364018 -2.0074492140982527 0.088444406086338 -0.45207552618700203
Ni 0.7805476538594597 3.8245720694877336 13.479202364008625 -1.313105579001816 0.9561318163166695 -0.7765520875753915
Ni 6.015504373067463 3.208181308816064 0.48234524577634275 1.3451217268970963 0.09977011551180237 -0.894967071881891
Ni 7.061237239702674 2.237497627564168 3.5265104596788484 1.7342903291472325 -0.5266400889674543 -0.4840551644173921
Ni 5.906858125800012 0.8462078174821558 6.467043512224541 -0.1282121729025792 -0.05298297995493456 0.038724413153391375
Ni 3.5336754244892647 5.157607519910758 6.236120447917786 0.14689869356848895 -0.14199405717801997 -0.266632910907044
Ni 8.279762935780038 2.339557850293538 12.954789002283341 -0.151781475582087 -1.097199247915362 -0.8804459954475804
Ni 8.011588538590168 0.9106239542476586 5.153060291435731 -0.2601570733747133 -0.32234305998515456 0.6889157792126457
Ni 0.7312367635275006 4.557390034687035 8.43889925892614 -0.023265398285843803 1.713826404865926 0.9635155103752504
Ni 8.119317744466242 0.8814889008304606 10.54531276687603 -0.40737046997014364 0.1444072946052029 -0.3115320854125796
Ni 3.201354445124691 8.605460838429101 11.53206134595689 0.09576099435240926 0.9631452715200252 1.2251761648786836
Ni 1.4561505729766684 5.968735262107163 4.573806001897145 -1.649019692803186 -0.42739910648624463 0.4961984846481455
Ni 6.35314233989316 9.222963164423653 8.825475741700632 1.678443911601574 -1.230830020730351 -2.474798635725189
Ni 2.8223199330659616 2.041621291583477 9.72696077638532 1.2096837256700392 -3.180563368174374 3.5965346924396515
Ni 8.622106529139273 6.560560429143119 0.775290876186659 0.044653119933000515 -0.05795935012360341 -0.40488935541950277
Ni 3.507099750228005 3.812863581420033 8.757092243036873 0.8510127777881279 2.962101617655918 -1.865616107978129
Ni 9.280736772080497 3.3595301905709354 4.079449366502616 -3.187474236361594 -0.7022250947270422 -0.14555606349766545
Ni 7.64927382159647 4.746152352601276 12.909426021456486 0.0336426277551098 0.07256218763844277 -0.4201177423334829
Ni 2.692915203393671 1.320771179693882 4.482172261896417 0.48850908642368773 -0.38826665926115717 0.056496906645463994
Ni 7.712095788428072 5.170622097232846 10.444743894288193 0.29884034887752403 1.375606782859831 0.0031922816850525667
Ni 3.982414345337113 6.229656695565222 10.163116777778134 -1.4600274124987564 -0.1054882489425022 1.0660385060418416
Ni 4.64968700866375 8.9585866154203 0.10144608288847697 0.8333714105572809 1.60547137589859 0.263613664464746
P 4.74697676354908 2.9938715145642307 10.478786508605921 0.49503480335734745 0.8729226904873418 -1.047704226509028
Ni 2.3755077254444443 5.4681510819911825 12.633166839151516 -0.8643195221993631 0.6536114474843969 1.0147018034410782
P 6.749795162319584 5.120814707723333 1.37408370518822 2.9207994164730215 0.8282163487189027 0.8179319360737591
Ni 5.735074968192809 9.171608846506462 2.4322253460445467 -0.31006655661064664 -0.02743109962775921 -0.3145585309437292
P 7.9403094122603 2.770724775995478 6.770023798587182 -0.4936433223264595 -0.2207538889867424 -1.0494376642603667
P 1.569900757685024 7.440299540894475 13.210671339610997 -0.6662165378429171 0.3152236753315539 -0.09703806129261996
P 3.409485788790167 6.258372133073031 3.856402668812923 0.7968853998161051 0.17046902468926126 -1.1110605792784864
Ni 1.1950438786314626 0.3608150301122423 10.286854376912594 -1.2534752689336928 2.4901188110220276 0.9327106091792516
Ni 4.218603450361026 3.2218350361988097 4.913107611489423 0.836143059765147 -1.6830700975196755 0.421045653464391
Ni 6.837516192383764 0.463254111355828 12.50061545331103 -0.9811514782894586 -0.1427391628741606 0.09341177739394235
Ni 3.8182917254134447 1.978058281203287 12.043853809745276 -0.9518424449126962 -1.0726076746189268 1.0210282598797382
Ni 3.4919546727037245 0.5682414561021228 2.195702771423769 -0.6643164926067269 0.32589940987784516 0.058971593438201665
Ni 4.373750180302413 8.61419588925809 4.453701368759641 -2.7975810972406077 -0.9393877640891112 -0.6049381506484097
Ni 9.043417575644984 5.475181732658418 2.959038762562822 -0.749226146066929 0.6878073766398155 -0.49621956769406805
Ni 5.321229935439129 6.243375264258469 4.874929974170572 -1.0779252301770985 1.686983573641469 0.4086315960707543
Ni 1.2147093218021336 8.99309145565146 5.76432210444673 0.006112283545324957 -0.45665517513788445 -0.9447737109913729
Ni 7.826846381927022 6.295804095321114 4.820808784903837 0.48082457329523637 -0.07210735948921129 0.2260753011996558
Ni 0.3153760923216586 3.041363142984405 10.683558146082982 -0.01869886196108393 -0.735507768039572 0.19530819522012816
Ni 5.021802026587532 2.6263972818634835 2.771037866894757 -1.561777277444749 0.18886809602173926 -1.4710823847613375
Ni 7.654961330831887 7.860786176452382 2.6709571567445543 0.9892219140024188 -1.0245653264987193 0.3030003937924846
Ni 8.337786645634528 0.7657869926760098 7.664839441334574 -0.3204720682146868 0.9732887877119302 0.8770655090111217
Ni 5.5471648503594455 6.605087883368939 2.5853833003624103 1.1623949678864047 0.05412146443475196 0.7334254315892466
Ni 9.07078060867662 4.614385546617858 6.142275619228958 -0.2238584960539951 -0.3464263261866034 0.33883154455848097
Ni 7.959465387991315 3.2480123995527035 8.828240760441302 1.8495122604377308 0.3113873323045992 0.5846079237314901
Ni 0.8336749184666504 1.5759495256503786 1.0322310531799253 -0.5171547751848384 1.5838908215143368 0.804103257720783
Ni 3.9846189498941644 6.941614284871753 12.723377775538953 1.8262034105084615 0.3943102943520757 0.08023127414792634
Ni 5.96324227680325 2.921693872931698 7.9525273677676545 -1.4423441362863805 -0.7289288292704736 -1.4110296424438151
Ni 7.957557200853699 6.068174043283401 8.155726140312836 -0.41011435126386786 -0.4343310577193875 -0.6635073664418701
Ni 1.511858521741819 5.893982494143285 1.311125571604565 0.7970862029730015 0.42757702682500554 0.040047759950505225
Ni 5.969457779567037 7.018951442211335 9.507494245339746 1.4734750533632301 1.5099878035772833 -2.7223549896167567
Ni 5.770089275863622 4.685294151173433 9.502735819453372 -0.879301340320176 -0.925347226835645 0.33141082661437765
Ni 8.486653031501628 7.942245388530987 6.5676661104696485 -1.0795031161871795 0.1813746158581715 -0.35603119626621904
P 2.25204060720522 6.070712117437316 8.97883655668992 -0.9264800548885075 0.044550275806549085 -0.13525519579228965
Ni 0.6245487238371946 8.583192479794013 1.8175732587987532 -0.39315046971601963 -0.871369744177925 -1.2742091590469347
P 1.4014615590908273 1.9450077389362337 12.333521248757524 -0.2684465670770151 -0.10108652033038075 -0.04220851504724989
Ni 6.6015308743357135 7.575067573249675 0.3387124799711505 -0.9207809476212012 0.01418451903049815 -0.019370176996495674
P 6.331596498717945 7.592519148818938 6.798738309790557 -0.2718525074347705 -0.3768093093538349 1.4193682442164974
P 2.5128694102197047 3.3995835943721513 6.511321790557147 -0.5301339610533257 -2.4198451623074457 1.874903961037958
P 5.430042917505012 1.0837669267665218 4.291812068830533 -0.017188081743512332 1.6043660586495532 0.725332370168467
Ni 2.3506827665667247 0.2152018254234469 0.040316474260964706 -0.21599863368994413 -0.48665943480945867 -0.7096105885578359
