# total energy = -340864.9296957227 ev
CRYSTAL
PRIMVEC
9.29455582464611 0.00000000000000 0.00000000000000
0.00000000000000 9.29455582464611 0.00000000000000
0.00000000000000 0.00000000000000 13.60352195747040
PRIMCOORD
 96 1
Ni 5.7877384868681645 2.4189081474082945 3.775889128620313 1.010294675512318 0.021348126658472914 0.4933705282810471
Ni 7.471214906462121 3.705981056612948 7.713822331455267 -0.9681319261013392 0.14609213850679356 -4.126995954925409
Ni 0.5757270932949993 9.060249344554386 1.7055547074454602 -0.5157157287454667 0.822978497358731 -0.014971276597851635
Ni 7.395678051461211 0.8100763054582798 4.910055441419035 -0.1282006029383534 -0.3112672617869672 1.8310656236967688
Ni 5.822825435019812 5.149248976066195 3.8177192770061383 -0.3256934645146262 -2.2400106372428845 0.4183002295087699
Ni 9.087119905377277 6.03556852276632 2.019306380367605 -0.1704461418711258 0.2895668939953981 0.3484731814133031
Ni 7.101328763775242 5.51900499497185 0.29680305041763333 0.8350328574201037 1.5990281913764075 2.657281397045875
Ni 1.6666625681485716 8.049066735213405 10.483363878662674 -0.9126336359237186 0.958811934251994 0.057067434436953335
Ni 0.5498148011752698 4.511865517404633 10.726948161470585 2.1700612046369403 -1.776327865834257 -2.301633552261004
Ni 5.1045700463271295 7.1824516468130115 1.1157537977554346 0.5838913572804395 -0.3243726888206736 0.1090119458250445
Ni 5.608697458458843 7.327214353425439 4.207895435008262 0.5971541358276167 1.8770125227405283 0.6917794739136861
Ni 3.270057094954556 8.41233515416943 2.0383379128272905 -0.2645986540858346 0.9283513037692914 -1.0404496018291434
Ni 0.5421412159053359 2.1948535852510442 13.355679047192472 -1.1249869595515916 0.139156844839541 -1.2615405624403306
Ni 8.10820799378001 6.0363957382326765 7.684466406410985 0.6592694171011226 0.6409477359737994 -0.2102131373564186
Ni 5.763609820006794 4.537202476520234 12.56041733422662 -0.25595666214012047 -1.277894835428638 -2.2236792470727123
Ni 2.0740057707165485 0.9807150554228096 3.145256305837571 0.15536302228575824 0.11185558592142672 1.219932914201873
Ni 2.5494037108650187 3.904317582866726 9.324194281301633 -0.33781467325819237 3.7096709448457146 3.6359293921871894
Ni 5.4077305729131675 9.098338434230003 10.587036283531097 -0.731844974476004 -0.9501830549324022 -1.5800177117121756
Ni 3.178635844088435 7.134956466666013 13.10167463787521 -1.8305945975976217 4.57445120873158 -0.23575061950589077
Ni 1.568846662890839 2.0362419904939935 10.914364514112872 -0.3012389310166877 -0.7567767047206773 -1.1543530714185344
Ni 7.854085543604062 1.0140825107511315 2.676478877786695 0.3100362175933435 1.7738297820027513 -1.9643107310375654
Ni 6.8326324501021345 3.2741745831747364 9.587123323099748 -0.411704064348491 -0.047537383459331034 4.3892124819323115
Ni 7.483074759665169 2.3771384136351807 13.234553325439503 -0.5064692704465342 -0.14894452035392414 -0.4789623232755171
Ni 5.707675183191795 6.957309621626956 8.266615108309422 2.479018844454124 0.6018880509681763 0.23617947951319324
P 0.07605549121464975 0.33461144450803665 10.513876046448695 2.130313235315041 -0.25961894148305614 -0.023905088752371732
P 3.0278223816490617 4.762418858152704 11.401601859441627 -0.6053230447916543 0.022078577066594236 0.5201915051286331
P 3.8292175719884964 3.3655400667060467 5.837869603040542 -0.4400738737404356 -0.06631389273588578 -0.10977736323615933
P 6.800780007369499 6.446136936197507 2.418910006319455 0.6020569724458729 -1.5645859505381376 0.7844260910068297
P 8.337039957619364 0.19459174972124801 0.167029673946706 1.2852723588396318 2.0704332711299567 -1.5183238342468046
P 1.252478572510499 7.255794986644707 0.905747027236966 1.420918876533069 -0.3943524604439208 -0.8385665816049752
P 3.856060249143982 6.5575043038142065 3.001861757839163 0.13174949663187635 -0.6858021732843286 0.5210255709941543
P 3.380253348540234 2.1016570742267873 9.465399031953147 0.5800457582821044 -3.1558568665666296 -0.6453173257964047
Ni 3.976118026435329 5.3325840892559295 0.07950377141710306 -0.49418428243159407 -3.433392026208474 0.20768702850045523
Ni 5.773982544281559 1.8086554971320739 6.468284003761943 0.5453368940460092 1.501855918498768 -1.7998465177814873
Ni 8.211489097849176 5.9731276968900895 4.52915617956265 0.18574009191571883 -1.2305322869842743 -0.4524259675478853
Ni 1.4730941490210974 7.473027344843466 3.2837544818396114 -0.6735418678597368 -1.4984895731296966 0.23613114277376104
Ni 5.838505350657383 9.08613468246229 2.5493683915529717 -1.2808875995083746 0.9358386132852721 1.290649821101461
Ni 8.759170798467942 7.9645699284195945 8.866558237290329 -0.7427909319645466 1.5674380752749522 0.07400457651192417
Ni 3.3262426847762017 7.962497242475802 4.652894600951494 0.7899218240140784 1.3467278950419517 0.3659034610746085
Ni 0.7124555858723842 2.8086660503993395 2.014695351234351 0.0606860050261471 0.145641167012304 0.9709118028393214
Ni 6.953340846299604 7.3129100320465295 10.239575115627124 -0.05332390823412107 -1.48948711252077 -0.01116064460250981
Ni 8.10873778346071 4.864779801197498 11.914617655286564 -1.459430659455022 -0.7269012573174836 0.31780352024358816
Ni 1.7267797550743615 4.980636439266448 0.9898395208533984 -0.27026407990172807 -0.32365766503152 0.04543550662497982
Ni 8.12536574379006 8.24665969700304 3.735771966868752 0.6745263432601931 -1.065653611898597 0.20214527274661961
Ni 1.3965999547726047 0.04326615725719736 8.185715294610894 0.31976887150007505 0.28469593905634194 -0.07861893535548395
Ni 2.3538927295749765 5.326180140308516 7.5329233213411735 -0.3583081652258539 -0.7771393275374293 -2.679726099202637
Ni 1.0351625633095254 8.85083370778491 12.647683918649353 -0.741358056172762 0.39636332022636256 0.7951427060933854
Ni 7.447541672835037 0.5876455021995973 9.757302922007671 -1.5483769448784432 -1.2771641279102006 -1.7808571211631783
Ni 0.8566169347244376 6.555162075752164 6.015532248824464 -1.0984896845920114 -0.04484955221452276 -0.3467351156762738
Ni 1.275696372903298 8.969106930362317 5.174915891912757 -0.9995076121991431 -0.09722986558845191 -0.4872325337041093
Ni 3.8144578173753003 3.7363649595289044 3.377019772576802 -0.642222746031481 -0.2806127701259038 0.20999433647739318
Ni 7.829352730615576 7.215819102141333 12.384863623154118 0.895567167359735 0.8316269170623485 1.0672160712897103
Ni 7.519927673419152 8.106321198952251 1.428818603003829 0.7213024230734675 -0.7024043006173838 -1.1411239743227701
Ni 6.37631623301468 5.900258379404283 6.073591621095743 -0.7594411389267179 -0.3986531447018038 0.9901120299168561
Ni 1.0480634067623698 6.40836386141915 8.985697712468461 0.18609156171786662 -1.388241955125338 -0.7919884767351199
Ni 0.4860216174298833 1.4291401946345699 6.358925189654004 -1.0510726287606287 0.8092760601709741 -0.011249604771890303
P 3.193897504714927 3.3626959326307078 1.3034870947505632 -0.3536102455295523 -0.34786922928071706 -0.37320590827329275
P 9.011945538052634 4.415499562851976 0.26292439452021454 0.32309613610109517 -1.1832453289728526 0.38134062156528514
P 0.04803240547234038 4.304067133344663 8.489645410417317 1.5515810536380377 0.6692823212524344 0.8331983753145263
P 6.997285506130329 3.829598648776369 5.5317087938416964 0.20007733447399736 -0.0938681482050706 -0.5294510760536881
P 7.715745375050651 0.26220499590115826 7.6246103965032255 0.22104776607807736 0.8805167007845157 -1.2583698780218329
P 4.609374702320908 9.180381478292146 0.07835961159790628 -2.312942806626236 0.020469323597945392 2.134178374697402
P 6.200398175354749 1.6024000093351962 11.344629950199153 0.6095319406666793 1.8310694803515108 0.4665420952342933
P 2.349403459122726 7.8542900238317 6.770065218267 0.6394539250370923 0.7247991233728162 0.9415575180469203
Ni 1.3862737032768482 6.031004895867655 12.352188612233027 -1.1742575236519452 0.11682784232503751 0.23134374868744675
Ni 5.106828623386957 8.72928880156528 6.694075718398542 1.2552675849474253 0.48567367385742166 -0.4608861825000966
Ni 4.5838146738660654 3.1001897931215723 11.054766215143113 0.4159774949128643 -0.30076327693184973 -0.6994056230003761
Ni 3.5603632508667586 0.6089727899423181 11.845144568490722 -0.799026614528824 -0.038672219759217266 0.3490714771189343
Ni 2.7214924115346233 2.8883761609552416 12.631618278946009 0.29593885896001293 1.3574828195656106 1.1179863598640425
Ni 3.758077041881818 8.719659641754657 8.74484695852185 -0.4772270857519652 0.2449243155853588 -0.31243608528408773
Ni 2.1585769339567715 2.828166028471434 7.5853650640858685 -0.3742957989033618 -1.8343329815941312 -2.821840741118921
Ni 3.880309745230777 6.118503844185433 8.945430908368492 -0.7321254818309004 -0.570889802814449 2.42725251051511
Ni 3.04633713680617 5.490749545334496 4.901240484696646 -0.5720491132298728 -0.6228679956539531 -0.6568906324563009
Ni 3.2149868518291225 1.0173170161701444 6.100254913324255 -1.0409059726402718 0.4250974549362614 0.48626142804009154
Ni 2.3280352753344777 1.1679074092702757 0.723469634497471 1.452382494358989 -0.228854920827322 -0.10206148264914035
Ni 7.849438265703182 4.113166251732295 2.713658030449319 -0.5068685627674818 -0.8370316330176873 -0.2585593898702902
Ni 4.40776649242491 1.5518190366620128 1.894725872223121 -0.5859690657450747 -0.570554016741585 2.092613406771422
Ni 1.795401460558763 3.136717397422493 4.9046822587100385 0.05959302907228447 -0.13117974017133538 -0.7045678839276059
Ni 0.14263332387824382 4.072102904200114 6.338765298119983 -0.4326426142733711 0.37977199152658464 -0.6261816334082183
Ni 4.794689555896418 4.0029514090350125 7.720951255755218 -0.509998109535399 1.0983973819885213 -0.5697703444980251
Ni 5.287496199061587 6.85139815826589 12.307106298772165 1.259013939363735 0.5408654885382169 -1.5820475976580108
Ni 9.062191906716954 2.118703289567217 8.593181185315453 0.5432139341657354 -0.5173830891455605 0.24384882313299291
Ni 4.928373151993147 2.3994360530036056 13.564997091126031 0.8829042271800858 0.3040383481386957 -2.45677623100584
Ni 5.42542740715972 1.971319518218693 8.566273446269356 -1.4770288321527596 -2.7160560439819226 2.221369882213245
Ni 8.396302045411392 2.1670814525153825 10.954548596666207 0.8441718436068945 2.7499118161891025 2.029885945835214
Ni 6.3992366076218214 9.139188006978742 12.660131187779072 1.2883965062909102 -0.18519784625900362 0.647827236702452
Ni 4.1819552592211275 6.670256560245369 6.580132829369175 -0.8463652517137876 -0.6818593865864966 0.2756561974515769
Ni 5.452056309531765 4.317999672491503 1.5776002755449374 -0.31865635516218666 0.29721026947326873 0.4542733051692693
P 6.601551203758753 2.5786908561963675 1.5654522911120359 -0.034291317082702236 -1.1740322950150168 1.1018172063033476
P 3.676229183491511 7.772693118448041 10.723996210547945 1.6462123052613777 -0.7205701728931332 0.866050903068173
P 7.6439728151494535 7.6738919902753215 5.865961468495785 0.20216327046874863 0.247783896521341 0.21143286869613265
P 0.9194620737780443 5.17028255584558 4.157630477232339 0.11791130519720337 -0.08148520115968547 -0.0928528195666788
P 5.967848389194689 5.084140612674859 10.140242338862546 -0.4988341224987796 1.6974297086754573 0.5710163010899844
P 9.161476351791364 6.5892638009888245 10.797958567796037 -0.5308708392193502 0.41193520652269056 -0.1207973684957468
P 0.05560189171729452 1.5977713205459192 4.121036881585225 1.5761093777967048 -0.026252763048941884 0.2559265802331334
P 4.853579861456375 0.644990123129722 4.864265812261661 0.8691292848831806 -1.033232515255414 -2.0910028677511927
