# total energy = -340872.2347446494 ev
CRYSTAL
PRIMVEC
9.21647692044940 0.00000000000000 0.00000000000000

0.00000000000000 9.21647692044940 0.00000000000000

0.00000000000000 0.00000000000000 13.48924558884465

PRIMCOORD
 96 1
Ni 5.45760123056131 8.60708331945176 3.6794341110026445 1.0023342830146609 0.7979536931796194 -0.5926076541075149
Ni 0.02475637823315562 3.6605818077838808 4.666509555845626 -0.8085916325094397 -0.7136827017446805 0.6813845038326072
Ni 8.890720391833787 8.444034629037123 2.7996522803963924 -0.6448172462315347 0.7353149353024756 -0.7392716059573784
Ni 9.270669646389404 4.78609795008423 10.995205166016362 -0.07509446714199325 0.3338546601691799 0.3498217250213975
Ni 3.851796051186316 0.44592263852068614 5.833086945420594 -0.035352925577997185 1.4209114203339013 -1.8882610990711544
Ni 2.718307656485953 -0.0328641128415868 0.9214154210878548 -0.14393318318226178 0.521187036272683 0.4023033398598813
Ni 2.251926282846709 2.829384634433904 4.643510759731179 1.0687538480904755 -0.9324046479030588 0.5608709851258663
Ni 5.563701311057228 7.7766326807195885 10.739287569146802 0.07092388070407141 -1.6192077516480758 0.12932288946825468
Ni 3.83653356566675 6.090662586459821 6.256015396065214 -1.481700783707132 -0.15291147542147215 1.049541536828083
Ni 8.629414842648563 2.5336094621549754 2.373891606442495 0.3601583310607152 0.19481454341316126 -0.17742154474769445
Ni 6.886781849249734 5.870803533277911 11.597770121953708 0.3074761701756511 -2.610059487944434 -2.031025972976928
Ni 1.6797397559679628 2.3034279549984804 13.359802877291026 0.8298263735185 -1.1923004971965854 0.8343687414735437
Ni 1.7361261608041365 3.3292402516764477 1.981907476529724 2.5387106038878016 -1.2365715511998188 1.1547001703453081
Ni 2.27187073856189 2.457859239639691 7.170869607345473 0.7923412320888483 1.7046555369999352 -0.6128106114179511
Ni 0.9856008085608984 5.212553546386058 6.250187817807954 1.1858249167745707 -2.375266861476438 0.4801154630433538
Ni 4.691822609275269 2.833605780791369 5.803491916886851 -1.912977885091544 0.8697990572566955 -0.1899451311360019
Ni 1.8709539993703972 0.13487668589310498 7.203054465849625 -0.8093681056641481 -1.1902073621129825 -0.3983106737607205
Ni 7.0798762539118245 5.862923445645527 9.088244235228187 -0.7265472164121745 0.8480714357716168 -1.4155509273529363
Ni 5.722003515938908 2.586963646136115 3.408961854028919 -1.1226516265501956 -0.14494362672464717 -0.04175908621465711
Ni 7.222409067051973 4.438102220466013 13.684164795545822 -2.2803864699567695 1.1680853334029624 -1.1455727541227432
Ni 4.598542647956714 3.324420034329387 0.9587578199885942 -0.12708422994572305 -0.8173133286531536 -0.7441191638576669
Ni 7.708928442418421 8.35953797007373 5.739633714338894 -2.716055272650974 -0.7429757942818431 -0.5628903295487403
Ni 7.182418774377217 4.562957831174684 2.8155829604812777 0.12238733869068598 -0.07345975975204767 1.1342017932816404
Ni 3.956163434050786 8.483001892791183 7.786424265632623 0.0012223024428753143 -0.9888763577375421 0.4908037959951354
P 3.8112896358128308 1.5101565835283426 12.94955445537697 -0.19921292959117304 -0.439956631436281 0.7208445096004424
P 5.668317538794301 4.598321452514401 10.152248689964445 0.716012892539754 -0.21726310222466452 0.8648126597856975
P 2.8482046799839966 0.7319089908296083 9.00380103183002 -0.9503635463743245 0.4175862341608808 1.8457934168252468
P 6.117805110526923 1.406968909689539 5.305427982727039 1.479711521191245 -2.3975436705967677 0.10275490917173916
P 0.5895476041572524 4.738798991336396 2.985048162018331 -1.4783845748497055 0.7973605396803106 -0.8860299172932611
P 3.531348370612775 1.5004608499736427 3.2919153640815573 0.12647076473144025 -1.2940436772743584 -0.0342604638447668
P 6.03214717549139 1.9699389598052623 9.215609492559429 0.7613152160209792 0.24201536946868 0.24399769000603141
P 8.825006912513434 6.043087133409098 12.960615149140276 0.15537844890472596 1.0962199147212282 -0.8842728253928382
Ni 3.626840286354455 5.170148536799391 2.0525102967728603 -0.0647221227687337 -0.6677026354701404 0.26567131832472307
Ni 1.1891651308257836 7.479189326146551 11.781763255812315 0.30001971389760584 -0.8648064891381106 -0.9351413301079314
Ni 3.0001935982830066 8.422735351237776 3.9553708170491664 -0.7636436070438397 -0.48481801072534564 -0.21437523915390824
Ni 6.27006130665206 5.747754352014795 6.336397819801594 0.691501280551635 1.0107430759036462 -0.6759391644473198
Ni 6.038220833678222 3.770783220439345 7.616729573824171 -1.4030661646223643 -0.4456899343756324 0.6706882004610256
Ni 2.4982458408152572 5.575784112093551 10.849818010022705 0.35777826086431286 -0.28243799626010063 0.30262449851030465
Ni 8.125273563711215 1.2471552026187231 4.261967976343236 -0.8868457283263371 0.3322749743868858 0.9497516238219385
Ni 4.228786816701001 5.875273524507978 8.914097985143194 0.8920509266763604 1.4905795742540007 -0.6576259679604287
Ni 2.43584107665283 0.6855455044732218 11.30950453494129 -0.1481474783739255 0.6897565299463863 0.2967137894528245
Ni 4.389817098704536 1.6549935158592464 7.904914055841074 0.3994702412864604 0.8933179663142421 0.29434091834527376
Ni 5.488218366368071 0.8829181976487084 1.596870726800919 -0.7543516402189524 0.3712331008176381 0.5612173127216916
Ni 8.753735897704978 0.10954612115761304 7.76420702674768 0.16329950352401554 -0.1097681072647787 -0.235329215697756
Ni 6.421285257379739 0.3866745176495939 7.546625364973914 -0.05644934123698019 -0.1149249688753698 -0.19910879991314095
Ni 7.76837471753992 3.667964205671063 9.100276345642314 0.9410839208446115 0.37892327037304424 2.555431001966277
Ni 1.945920821360825 6.996826581800226 8.2507236371711 0.9883793634964654 1.0796003038866762 -0.13665233325013237
Ni 2.338247804209181 3.181288150199642 11.405251747089306 -0.9788901930591076 1.1270998921295363 -1.2881661354476588
Ni 4.711048179802934 5.591581153265372 13.115566243070921 0.5417247512147186 -0.2934950254052107 -0.2982834479327895
Ni 7.116401151323684 3.1582285253385587 11.338493119304026 -0.4527342428169235 0.4030613010718284 -0.1604157542183173
Ni 0.8532964413323529 2.159061062982491 8.91823894815282 0.20526710620505295 -0.27553664115457704 1.9559744432577282
Ni 0.4747278149958377 8.923024142888183 5.151852908777113 2.3750164360285293 -0.631573493847751 -0.21648637195964007
Ni 8.319510811491922 2.477591716389323 7.44126168097136 0.07586296987690161 -1.057089781488986 -3.5436301311311356
Ni 5.828324791877139 6.42116544318182 1.738656083675586 -0.9571479162860096 -0.2844609402274004 0.409988624319281
Ni 6.021944535714724 1.4693552408984407 12.851676393801347 1.0390419228483394 1.1426859194932513 0.6600572031097407
Ni 1.8578020870295637 4.814383317269947 8.650950062253044 -0.48568087294627327 -2.1294375175783067 -0.188115791236747
P 2.6428984436109006 4.467760842689421 13.404775597303871 0.483205157712271 -2.2951767408920665 0.19596202675404314
P 7.354518044973142 6.309959434559187 4.385596873994748 -2.4860559538065634 0.0703258421087563 0.14840973089637666
P 3.7072171802047764 4.183644513515715 7.369552883516661 -0.13312709370569328 0.05997432367110316 -0.179926056337103
P 0.12811363524439884 6.035050365671742 9.157282097716962 -0.2975062034471328 1.097007186509214 0.34253907531705524
P 0.6093270849383757 0.9501818883606015 1.3103295425908632 0.17959875490467134 -0.46394579526202684 -0.2964381671939346
P 0.20401316468324446 2.563203569041042 11.082615153284546 -0.1958167594254305 -0.6243805756437376 -0.9524451114937017
P 3.5897347509065245 7.316297315836886 2.001237193244812 1.0909800064785276 1.205686174474872 0.7405833827902665
P 6.943278851807063 9.137841783280718 11.597176580850169 1.0875684096938172 0.006916524614175185 0.5651019924880784
Ni 7.920428151176269 1.099654708503306 9.859559194105776 0.35197476680865836 0.39401924547421824 0.40135485990368297
Ni 9.346429085381452 7.08854895854583 6.9481350134135 -3.2570048362625648 1.305863295617106 1.2754972817307386
Ni 3.205942225540728 7.9720035551421455 10.074065317583722 -0.24193977903573816 -0.04753249836332459 -0.6011874253567259
Ni 3.8310405455159886 3.6807474589413753 9.496077940230329 -0.24706475896712932 -1.426721342147459 -0.2036910199671847
Ni 0.17841624376930115 6.6910054498496025 4.40566851708926 0.6663875162031426 -0.7279883197340753 -0.5634798835036231
Ni 2.3010777534239097 5.116296663073048 4.232034703112291 -0.3360740364180018 1.6882048476430798 0.13068223170962653
Ni 6.949960797460255 7.286850672579028 13.15589938868126 0.17825072551720914 1.2482595290607081 1.1587458011695912
Ni 4.610791345574771 6.38326729073227 4.1079071940678995 0.5634292327713458 -0.5212068337670249 -0.7923911114901773
Ni 0.21698719902255167 0.4329329361708818 11.907523002891438 -0.5654298081411423 0.40350378792588576 -0.5090385738356071
Ni 1.5258522434557706 6.608840559507255 2.329673715876541 -0.3329894839554071 0.479532079736058 0.976959037474666
Ni 0.6539348324714062 7.860530268693385 0.5112545557030498 -1.2635115701237722 0.9075032566756888 0.07610182536058507
Ni 4.763784859840951 8.469158744693123 13.245994135630514 -0.19143585674891547 -0.31701624845560245 0.11823680685742219
Ni 6.869980212110743 3.561421734290519 5.253400049752099 1.1960915888079013 0.3979010970271276 0.3931802945126906
Ni 4.721167871288733 0.7088604257406408 11.075573765037598 0.5317817810693939 1.0986040986826886 -1.5957346082268
Ni 8.085845476119003 7.847369139875788 9.90714939351932 -0.5258348194573396 -0.06620384952058277 0.22058419617809752
Ni 4.5860911878498705 3.370742046540339 11.701529217351819 1.121574591435933 -0.14462995213897029 1.2384744246494865
Ni 0.17200157594223725 4.408710876068733 0.7390591335023613 1.9350703461152092 -0.08294198821087007 -0.6036124898584507
Ni 2.499075323723929 6.506998491275852 0.208597440225172 0.38167795030004587 1.0635468499682394 -1.0587399154978991
Ni 8.055938009022993 0.16835645938246172 0.15883030900020131 -1.3936564412726902 0.37270171494336457 1.2297756113239078
Ni 0.9541081074616493 8.91292288435591 9.773659787379051 0.24115867789533954 0.04198662884443091 -1.3510324359545764
Ni 5.304460252666922 7.941109925032492 5.958280800826467 0.8377281448640798 -0.3355078795018867 -0.19340583599109273
Ni 1.3090899264662366 1.0382637567848108 3.3856248132172686 0.24873031959501035 0.1294496448541061 -0.8776411790089337
Ni 8.336128119095651 6.228882088474875 1.711718165392623 0.020926979960654284 1.5162479255543824 0.20973465505810332
Ni 8.606428949601584 2.465886790900284 13.045867559198237 -0.9539985720237506 -0.14457338786942198 1.278114921859244
P 5.691957801691454 7.660735485424576 8.563566802767472 1.696999563116574 -0.4576134252860958 -0.2453950845741903
P 1.8937739958356419 7.248602294012484 5.82346955191838 1.663826418798715 0.5316485979256392 -0.5614417700276718
P 6.764377821360028 8.324496925420716 1.5889657546812745 0.32985402365021904 0.3309691110912687 1.5837506963920467
P 6.712479840707446 2.873319579163234 1.4599406098850127 -0.42775546138439874 -1.59903333358273 -0.4979997995229423
P 4.15066795965762 4.139285610855287 4.142223823647339 0.9453154424274558 0.8336843138120094 -1.0410368417911813
P 8.143568270085815 4.746384151712364 6.866053071362019 -0.22754777198012424 -0.8994289643079866 0.2883186234105938
P 0.6654121109843986 1.5657595878396595 6.019562076471481 -0.8516182725826108 1.479581166260968 -0.27433387909572754
P 3.6680010715781144 7.080521407285236 11.872721586634263 0.15109499103802365 0.20440758641823506 0.9521453208650957
