# total energy = -340866.1948857502 ev
CRYSTAL
PRIMVEC
9.28815984887195 0.00000000000000 0.00000000000000
0.00000000000000 9.28815984887195 0.00000000000000
0.00000000000000 0.00000000000000 13.59416080040960
PRIMCOORD
 96 1
Ni 0.9540611815773019 6.9956746515971435 8.839113342224804 0.7703703842447119 -1.3701475595174726 3.7718924126797813
Ni 6.628578718270174 8.959646718648088 2.3476705857287725 -1.2394131344136718 -1.3968947457043297 -1.1767846609491732
Ni 9.396552459805575 0.9670460287496092 3.916681311726252 0.022384538342787256 -0.28159930240888925 0.7463642511381018
Ni 2.647014038584787 0.8743687718931836 0.38679890636460634 0.38200936549753567 -0.5446306120076039 -0.9858671385975729
Ni 3.9972709576312897 8.087776461697215 6.51211912866361 -2.320581039897784 -0.9390131543585118 -1.6964933129041169
Ni 9.287444448551572 3.66610162577963 13.559400652834984 0.6807684675151631 0.2360172429037161 -0.8330873036579587
Ni 5.80864785000853 8.75262292850248 7.358301122506864 2.8022502205815027 1.7230893182250906 0.48511394469920976
Ni 7.824410695194515 2.0475190629843527 0.8888675890862966 0.16182883251576 0.1958715239227659 1.6762474181708873
Ni 7.821131974842708 2.7446511726872864 4.129076444589846 -0.6021449041739888 -1.0653085698543525 0.25194548409819834
Ni 1.616669201910088 5.8330385572148815 12.684344557128675 -1.4469690366529016 -1.067336656027975 -0.03450111910066316
Ni 1.7738434392847557 5.086744218554134 3.551012039719501 -0.31588084929957855 0.7609987132218248 0.2102195651143218
Ni 1.5697175549458438 7.87633150756447 0.6143978277377494 -2.122547218216377 -1.4314444586547412 4.038428650107961
Ni 8.479746086531652 9.193624748059815 7.652954983562236 -0.008868506134223436 0.6461465065659195 -0.3073406730390513
Ni 6.060570603838639 1.246963295725165 11.25032329921326 -0.1599547554214987 -1.3633099677703489 -1.2539768911604599
Ni 4.871667594003384 2.5608013408356043 4.39353728511373 -0.45106868218904245 -0.6894305140655352 -0.1379679667377624
Ni 3.8918317694338405 4.525897275202606 5.7072499400690715 -0.4929411540531123 1.7054435801188694 -0.6397508874522208
Ni 4.748525173538111 9.111842502457407 9.693479133524082 -0.8719328157702466 -0.08664257699090885 1.8395345803997285
Ni 4.887894008888949 8.637867716189279 3.734233991979733 -1.3370428065437037 -0.7355198522244301 1.6612360323637196
Ni 4.3958537521271595 8.635016251180765 1.2876036382161742 0.09817577444148898 -0.8619589923869865 -1.0656520692367002
Ni 4.490843760733159 7.153805569414406 8.525591513683148 -0.9592276816331738 -1.5334012974052174 0.6963326405020073
Ni 7.507610146301053 5.209450095516475 12.186811282757654 -0.08235397691788397 -0.30322587953972935 0.326996756707082
Ni 7.433174834971388 7.639399843388227 5.770871047133559 -0.1997384630773399 0.43461336484649665 -0.12840269164683046
Ni 1.9808300767918157 8.26349915386666 12.237952818534078 0.13687293390137073 2.3112301948105034 -4.434320430014544
Ni 2.349049877434844 1.729223120389359 9.877612254244687 0.30217224146423444 -0.5294677882242366 0.9039602765194368
P 4.025107572062909 9.252372357762852 12.52277794906174 0.8715440649722602 -0.6361505716954722 0.3529849532407276
P 4.9027271998289885 6.458029531018451 5.145240119131011 0.4116449289757814 0.44511837814287863 -1.0895304185161947
P 9.131319773215868 6.305889476166953 10.964465325333979 -0.2618470594826265 -0.5916445188632972 -0.031034243597985258
P -0.1176298977208059 2.6344935993943213 10.056443693444585 1.1182786942934804 -3.518949854775636 -1.1133092661033472
P 6.4697419003205106 7.098067323433708 0.8083020923963151 -1.483318521816213 1.8140786022204696 0.21264642938825956
P 5.007172554945295 5.719091414790084 11.747244483864211 -0.35260417286254114 -0.2351240416654854 -0.15346709081462603
P 8.092169761205442 8.317853464061468 3.7278047278791098 0.4054516556808759 0.618431042928522 1.0510425468536415
P 4.490165725079669 0.7563227646206473 5.767839391828094 0.24986983251609227 0.28484326326748366 -0.12934525806575786
Ni 2.718059171647003 7.00283582267715 4.772161682181951 1.6567476575750628 0.5129062843211295 -1.1081814579584786
Ni 1.6788905833173033 5.642900641289056 6.063471296093226 -1.540445091625876 0.9882474659042916 2.179835253304568
Ni 5.456561582654699 1.5727083423489072 0.49295049640620087 -0.18491039692557187 0.27639924626518847 -0.3234990279664687
Ni 3.5108500374497895 6.928186883675838 13.442314112452932 3.035577832468198 -0.23818802530278976 -1.4903841704137428
Ni 0.3448015637506543 6.860550505200343 2.895434227415842 -0.7433509182330745 -0.4665240975121643 -1.1407411370620548
Ni 1.7205201148096365 0.15368653343103278 2.3965420952899525 1.1693675425494958 0.813768805835005 0.646207698821158
Ni 2.7671470953277217 3.0759319624545873 1.2195279297898565 -0.5044962058805633 0.5589794245301083 -0.2042890585624998
Ni 8.743762024208932 9.179497457252175 1.7719310072155297 1.5272951845074794 -0.04752298528162783 -0.09752271423852236
Ni 6.611089113673996 6.414328739927102 10.21446222453024 -1.1751460969044858 -2.1582858092685666 0.6806460830046858
Ni 2.4709105318702314 2.2012566812933883 3.6690636198878197 -1.210599038395457 0.45549895004625424 -0.5107005349190624
Ni 0.340591240987273 7.6535085578765925 5.07854741767462 1.7807861587159266 0.5865961578061123 0.9142652579898706
Ni 0.32760732263092934 4.169529166256191 11.240195489945245 2.2826572682688173 1.2118822759832548 1.926263546456857
Ni 8.201797909399106 4.413334068563699 9.44413477280916 -1.2785926328266108 1.7468936197335398 -1.4034821691138604
Ni 5.359816111877336 2.267583429260088 7.2000522450622135 1.288364367501394 1.198785847810613 0.16636657248511347
Ni 1.8407924939471243 8.831460827500008 7.709629476034329 -0.7171560050052617 0.6753249279020886 -0.9870040804154938
Ni 6.909554835444329 0.5365946297237654 5.0386074024202285 -0.5994164494992321 0.8168762411157352 -0.3813938434007238
Ni 6.213537304897816 6.142742952145795 6.823942152807687 -1.9656387058203693 -1.523719808451395 0.33385671705170894
Ni 4.082109007754219 2.091396329108802 12.071315804121395 -1.959099619150271 0.6953098556644477 -0.10452999879429095
Ni 6.939657760827339 6.5372296682418165 3.3350418942116864 -0.46739878680763375 -0.6377960777186952 0.41451659409662156
Ni 6.195954818705272 3.8883022687718403 2.6508342586434206 -0.8001069920771963 0.2224621299271007 -0.10929271029025693
Ni 1.6206538223942941 3.6307787546807138 5.170402672403185 -2.149738691029504 -1.8635401992857068 1.1163097434925677
Ni 7.948091828918724 8.156480978530947 10.942796048901224 -0.31165241304052776 0.26773977081797756 0.5339463928208804
Ni 7.499417989501357 5.376869172970582 1.1221285725740595 0.4782017909604086 -1.2057918468148008 0.2493458416918222
Ni 6.161198525344203 4.246546585964898 5.3536385569028715 1.987555560498119 0.47712938383183634 0.18643017600420794
P 0.044684407196890916 0.0006074456402495721 13.343986868089415 0.6722678862433196 0.07934115823348917 -1.8137592712078379
P 6.797530342064358 2.6268865966517465 12.714931395628762 -1.3458861158669466 2.4367535080270097 0.6398182503550465
P 0.7101698993851714 1.9390054939471086 1.812767329874876 0.048822420819341725 0.3328663281139816 -0.22086264665046476
P 2.486932607243787 3.7511811680531175 12.613695099666987 0.11733614942002372 -0.16492649760447725 -0.09505136987989436
P 8.137774625022343 4.7817489205591 4.111866413598738 -0.08084088270746723 0.8306468125372662 -0.2707890991672627
P 2.4137976382632806 7.56220594864642 2.7474069696515384 1.8801112162705105 -1.6418753684489207 -0.4403770068031513
P 9.26390825203181 7.114442348873463 7.150161824388872 -0.5816915214156434 0.01774729668109202 -3.205726497703563
P 3.0169335724413573 5.200904988650579 7.663177532058546 0.952647457312495 0.05564612860939449 0.7878238038344689
Ni 5.03843650028291 4.79063768933156 8.681149611281004 -2.010401611858357 0.26156655212773017 1.3035331048220324
Ni 0.23028784358800938 -0.022188484556455695 9.920039638649826 2.145106077353499 1.7357075212097335 -0.9360905813950782
Ni 3.7095423484011483 0.9459247537354268 8.04399114835317 -0.6892852467369226 -0.24690406501954898 -0.1082544988337297
Ni 1.4650957247964371 4.50929004577193 8.924172450547092 -0.7023060844766228 -0.2179976663978439 -0.5998054574075348
Ni 4.748005036598448 6.374789044353059 2.1675341600999 0.11499181755756326 -0.3146102101172711 0.05555613999874948
Ni 8.329863054471907 7.302815514468287 13.031171868496124 1.6032843955496 -1.603104161217994 1.0800548749255916
Ni 7.25937479184677 2.130527345658824 9.107503074275074 -0.385215274029343 -0.9413304896377788 0.43916730276576627
Ni 7.764074810193578 2.2205574770187493 6.829420309361497 0.794435909834348 0.03769725744045766 -1.2303607944034167
Ni 9.13463564620622 4.222062997162179 6.774881164789915 -0.8279252998410451 0.2722250602828408 0.29153944434073664
Ni 7.077531202476646 9.15767957026523 13.49575261010755 -0.8756609153541113 0.23112957579411159 0.07442778009227183
Ni 4.804746403819926 4.184548120388967 13.505309197557898 0.16534353053723783 0.33841374029477206 -0.4166022729810567
Ni 3.980097150462765 1.3336311132965526 2.243376627614546 1.0550331560702733 0.1261159524951828 1.7941960043639293
Ni 7.458884460846171 7.083447760165315 8.323296325608657 1.3699488132431052 0.6248842547530334 0.2622617784225419
Ni 5.7480704728570355 7.833410921882616 11.81011696526197 -1.4574575948890514 0.6975976232573599 1.4822623126375567
Ni 2.6523547303759716 5.459719556931226 1.3982135448834538 -0.34038629064011056 0.15128859510606849 -0.03183462801209356
Ni 3.1565903407409377 4.0280704949870625 10.46433601034446 1.0535647990548629 0.0656772875931514 0.5568862894465054
Ni 3.1150908434835203 2.626208560998257 6.484291802391627 -0.7809630721588937 -1.990880511106294 0.25101577319507734
Ni 0.9943996588801137 2.1753891567047785 8.044861448911142 -0.8500504138748586 -0.36254714300786595 -0.8218616101454684
Ni 1.331364802345163 1.8426501258744932 12.332065096054396 -0.06409991580370251 0.18068504599031462 -0.8818169076531781
Ni 3.081216925287951 6.621872667012372 10.860782528123858 0.7646100847221671 -0.34368990109204683 -0.732914296280783
Ni 2.6127407295248335 0.04236422491960739 4.742213869064876 -0.5010550414094983 0.6578434832878736 0.7071919518140143
Ni 9.314352247019508 3.8806859778696285 2.29521106009988 -0.6169608861408987 -0.182689220904537 2.1577366216333163
Ni 8.263842815773222 1.394319948363689 11.968706718165294 2.4432033774174116 -0.5629744046221143 -1.2658800703559487
Ni 6.071335580857741 3.8248920029311084 10.990226036086764 -1.2090139532965243 -0.25173413941834066 -0.39270823997227855
P 6.676468469357739 4.084384606865245 7.7823845592856875 3.044987555817872 -0.938725447914764 -1.9790128131344304
P 6.171944926044031 1.6207281276713887 2.757208764516299 -0.057941095291158276 2.0773981324835646 0.4116523851749491
P 4.936610406184195 2.444290666351038 9.56058321662416 -1.4106113239594738 -0.3808037752252087 0.17766425688611984
P 6.809688543028987 8.960222584545573 9.366267486493681 0.9157801519725002 0.9482220745512894 -0.44319750697108184
P 0.37297719600901935 5.53798159003127 1.0456182863815242 0.5960894420085282 1.6376073372011861 -1.2977452944956618
P 2.4880936271983924 8.467522868449565 9.7517028910236 0.06319025950523956 0.808154287861705 0.04192826480266973
P 0.5816960752883504 1.5649991698503272 5.917388978956876 0.1188459011963308 0.7966755977981441 0.6076807463905535
P 3.6015489163035674 4.153952922545204 3.1123146125680674 1.5641601758546289 -0.6152091935571147 -0.4388286884794249
