# total energy = -381161.4019494677 ev
CRYSTAL
PRIMVEC
9.34296643343801 0.00000000000000 0.00000000000000
0.00000000000000 9.34296643343801 0.00000000000000
0.00000000000000 0.00000000000000 13.67437577686521
PRIMCOORD
 96 1
Ni 7.638454394279962 8.493485318352906 11.336098765201156 -0.3909287794743525 -0.055160447222227585 0.6528455158526499
Ni 7.847092179645066 1.633421493779764 5.9313290405114065 0.5842654527904068 0.018766224863909615 0.6426071259540932
Ni 0.46602436714324563 -0.3505910814881291 12.313529090766764 -0.858761054274979 -0.25802151508894916 0.023292394869037305
Ni 3.076909821168089 5.927495621348122 11.074234099569829 -0.6036585126050378 0.836290898196921 -4.819873289888964
Ni 4.301651273416331 5.274338174879576 6.540645550880036 0.04468551583283272 0.5703357300831919 0.2438323680727607
Ni 8.833074122466714 3.253996408594098 11.537618144374434 -0.7075727321922008 0.804423102954047 -0.13817262654940074
Ni 6.40806044728693 4.630925442491715 7.831205399373926 1.3395966833138089 -0.7230636287389482 -1.6175326779384982
Ni 2.893086954880935 4.057351384843193 3.8853828744770116 -0.9221850270575795 -0.6466586703156476 -0.7970044418924725
Ni 1.8234761187359667 1.9469527642684203 5.232431232849364 0.873886854172824 -2.409696761019534 -0.8429971065725032
Ni 4.751814086298042 5.387033037047588 3.5384084553288955 0.7699412671270933 0.7017692381365462 0.5210014026244383
Ni 0.3419609833133162 4.893995350804161 7.641692666475902 -1.1697789190553016 0.014739620203019778 1.585699078367669
Ni 4.860351328364516 7.975025420207709 3.4531081052950916 0.14558923072844604 -0.1493083314512461 0.2090214310411626
Ni 0.821191633633024 5.0040554964134465 12.921314288922714 -0.7270493528595737 -0.22871428148439965 0.1940828074534593
Ni 4.6367647965669105 7.728959710962232 10.798764206091622 -4.851376245593252 1.8627796669705985 1.1709765389078284
Ni 8.141003220441066 1.4151230810326556 12.931405627061304 0.22290744499463547 -0.3686314015287329 -0.9212887404955552
Ni 1.0204107744490014 8.471024826838073 8.206184426370028 -0.706739437657628 -0.5539832568670975 -0.5652081790486394
Ni 5.900363646573133 2.4541357018236 0.880782942692883 0.3035362116912966 0.7191666076773873 -0.4547119353685846
Ni 0.7666931756233875 6.383245528208979 9.887571775968425 1.0426964888817913 1.2990938381037564 -0.7067931737136989
Ni 1.575084010826931 4.832677461531349 1.4107169380216762 -0.23855723571675044 -1.2654000453957368 0.46682645924393157
Ni 7.8403278718843605 6.503330676894559 0.053330587194597406 -0.41732732407253936 0.5079319710349898 -0.8687351347685555
Ni 8.09690441846519 1.2213966702339702 1.4536684237088582 -0.910466710179387 0.8308756407186205 1.9278180354281702
Ni 3.283417410166563 6.707521210195995 8.711725804707589 -1.056382471009316 2.0080837623584578 -0.0001681501467480975
Ni 4.72099163974753 2.4460166639174483 4.041585128840165 1.2541170162827497 1.0740400361900793 -1.6482619887015548
Ni 3.3826116857127237 2.5666343616946863 10.02553282249732 0.19888125728336717 0.6075203095532892 2.434576297870033
P 4.397640911446025 7.807758290594549 5.697141978899854 3.2250010296624585 1.5139491022178764 1.1023010879183017
Ni 0.46297856005762367 7.280973809279754 5.373373619994891 0.2420742477310734 0.8525608390015382 0.4178641704126158
P 1.1669178324540261 1.949596823793669 11.984359562916406 0.8956738681409284 -1.0070386304688654 0.06957122333091889
Ni 5.81066182501161 0.8783248082013887 2.252306136161847 -1.3421914406241788 -1.7348917101766572 1.5938420191897775
P 7.539194717968159 8.728647785669178 -0.033252552142445234 -0.06579658677983506 0.03935536186917093 0.49796920339532297
P 8.626921566196014 8.75975986418182 9.437945249364981 -0.5852203605045082 0.1831707885266458 0.4321060250436106
P 4.701960016945653 6.167964893647932 1.2924032157883474 -0.36226483588075675 0.9105885804692317 0.05027175167135858
Ni 7.315290525308863 2.2264476077235775 8.336747712008139 1.0489776939048128 0.225049945258935 0.39600902221073736
Ni 0.8658706338298118 2.6791610504653334 0.2258512668821291 -1.0776508934697893 0.3193600660974306 1.2182922932746567
Ni 7.6561406299029136 4.063031908487543 0.03953756572065965 1.5947421624065439 -1.2393629979020269 0.025823388821007143
Ni 5.958065807802585 7.011952431293867 8.253566346781142 -0.24787619912483116 0.4393963880574368 -2.2309765520650737
Ni 2.7026492682974 -0.15017417236424757 12.745229267507682 1.623929068383145 0.2507578915480004 0.9295193559354636
Ni 7.248647145119471 8.330590697071253 2.3685251653013215 0.37552170089066295 1.6908571976642621 -1.7971849117889243
Ni 3.575712117754548 3.08469251227951 5.980118945977131 2.202455561807246 -0.31948630726264976 1.0997754932829704
Ni 6.392990242289666 9.571402051734434 4.6607192284283405 0.05988896304614847 -1.825407139859411 -0.24048427753613422
Ni 3.3340282598070976 5.797292039921043 13.04088277155972 -0.5921381706702641 -0.597860417866022 4.641345142340652
Ni 7.782943371516598 8.362011093479065 6.695753743863661 1.2192852533155452 0.36661848486376214 0.8088633981135875
Ni 4.848812764711929 8.41568643613826 0.8035437041728052 0.4181529052976282 -1.6612751131317711 0.18979112205664087
Ni 6.560051826639379 6.618286536960488 5.667345390073272 -3.033014699726712 1.2531448821774676 0.33834637739194634
Ni 1.5279487447319529 4.128862450589667 10.579057808289903 0.12178647188189348 0.11577703246301997 -0.6065438045726327
Ni 6.324048492336277 6.818945428917246 10.34135592267341 4.084196600371695 -3.567991847804952 0.7581206203430815
Ni 6.989417196046873 4.5472778632353545 4.267047728315049 -1.371028162350213 -2.8265268337406804 -1.084446319125068
Ni 2.7542878442551686 3.436595346267091 12.568488369842925 -0.03505673449381705 0.2154820990648418 -0.24255118736749195
Ni 4.268707973465709 0.6524072062569654 5.277269997773649 -0.6770586227637437 -0.022555773813328895 0.1894460800123963
Ni 4.440142066146928 8.907659024198372 8.318752224193364 -4.049473852178529 -0.7576246545432693 -1.3279886667612355
Ni 5.473334018795717 6.466659533302332 12.638637231070739 1.2114757845734554 0.7016651084585142 0.3134817529397827
Ni 2.6981833303006906 6.607700955892974 2.6495877585385874 0.37124981298818643 -0.2197781553370344 0.25222727700467534
Ni 0.5372990558367557 1.2268436197153125 10.023440932293422 -0.8144529763862232 -0.09871981987041709 0.320968291124815
Ni 2.344150299946478 8.797122387296552 4.304146779773907 -0.7399696604656676 0.9586633244892714 -0.5715629176220738
Ni 0.9615687713040715 1.970655870330454 2.4843200237607745 0.19053314242898797 0.7791794978959097 1.2312282846100342
Ni 6.045207656537542 2.4833978729652193 12.24284674615064 0.27275522175469796 2.3703187734425435 -1.6829567118702629
Ni 2.107978792246011 8.754845463792137 10.533439839957826 -0.00420143967585728 -1.6936794976044058 -0.684967336087859
P 0.7486743303923123 7.87709244514179 3.112343021696376 0.2126579993524854 0.8946294860368141 0.6141151891619875
Ni 3.0606717453557857 8.979730667936066 2.0152610610917314 -0.9102322255710775 0.8737850384876371 -0.3040599454052505
P 0.5243833389190754 0.40014243872526 6.240656910362574 -0.26776625318053887 -0.48329437499196765 -0.16054636625891058
Ni 4.545895104190349 4.173661975054566 11.200558481297673 -1.849434870232576 0.9606615858662229 1.2767182986220336
P 5.921833783636812 2.6426393943374307 6.733454482366428 0.1522635574248281 1.4276916764805283 -1.324780701346899
P 1.2776787005523345 6.757132362418856 11.91637079554809 0.18880998909029417 2.1636360178368865 0.3614713934451839
P 6.888298269397528 4.843664790159237 11.956641784140595 -0.19542672307586342 0.7303295662727423 -1.8058950379684127
Ni 0.7897235880959586 5.3899386996354055 3.8487210738513045 -0.2213205601234898 0.1693338826435535 -0.41955929872685166
Ni 1.7999598720043393 4.447177319936723 5.887680569521809 0.1384438779329164 1.8294242314386042 0.2852214725425088
Ni 6.261142298755011 4.6948126475576135 1.6993006193077933 0.508326378259931 0.7535651397619152 1.7689961080595342
Ni 8.23463843090764 5.1920640117017 9.849160972010116 -1.1593291844768874 -1.2336880590044366 -0.25467342455232267
Ni 9.51693255692101 3.270580174167653 4.900568127751202 -3.1406112532614685 0.5103583210882953 -1.562940958735547
Ni 4.341321509261579 2.170492581233424 8.084646446390538 0.7891787752004666 0.18508343216832643 -0.5302221498917578
Ni 4.609838367055369 5.079462579198891 9.016993221309027 -0.6034474250354963 -1.1135856596931852 0.8125027946383877
Ni 0.6775323118233905 9.488062790373244 1.0522310498238827 1.1164706945504643 -1.459754361343028 -0.2257927369622305
Ni 2.439168269458059 1.0331265518831472 8.771646920485615 -0.08794766895557757 -0.8101162966840822 -1.4960261991908688
Ni 3.0094536028914307 6.64523165240507 5.0027428096173425 -2.5284246485807618 -2.7985419184919804 -0.40323022254952495
Ni 3.807071997697054 4.196019693937675 1.6099659763305187 -0.5056735140181162 -0.6813919600317748 0.41590139025929024
Ni 9.34192010806251 6.510898479776013 1.7913568684324352 -0.6835809972632938 -0.5738540276490955 -0.06559475518167412
Ni 5.0403996361774634 4.253077190477225 13.375563715360409 0.5320969983169676 -0.3000371973991026 0.2062904052632447
Ni 2.4963659104954137 3.905089059461655 8.099565295330175 0.5167413417965037 -0.14476107840019586 0.8133250334293669
Ni 5.975182122467799 0.5786071137130147 7.115638805142995 0.6404337724518583 -0.8148414700738933 -0.3990349535212547
Ni 0.4992292701564373 2.530757370256685 7.255651567119751 0.3599629272204575 -1.0392905485240358 -0.40499682753164445
Ni 6.152007106831238 3.717005800441239 10.005089477454225 3.1658165488825025 -1.3844156394007125 -0.683655559254971
Ni 5.965633610684038 9.178885342283053 9.638000585684527 3.5425142723591376 1.4703164531295905 1.6001656474149601
Ni 8.61691524905276 0.38955779195439766 3.9088206402898678 2.041958817839348 -1.1748699604249637 0.1387138437648514
Ni 8.290397255100867 5.318763980683663 5.742389965757729 2.8316394723768976 -0.5428313540153361 0.48645966009382674
Ni 5.605013788933005 0.5675964276688261 12.985570541166165 -0.032835558472782155 -1.9864908666790304 -0.17446194789873826
Ni 1.9986567409918314 7.216264423160068 0.5634145158543341 -1.148839597799473 0.7385840929720506 -1.266437742631632
Ni 8.59215638777393 3.8540297474281457 2.3932616034605023 0.12582644627922202 -0.0003208736745284796 0.10412607848765291
Ni 7.171679786925135 2.120535739249312 3.7585530382604175 0.27393767209857334 2.4080687384978074 -1.3015991210241131
Ni 7.180630348851595 6.538647090341342 3.4651960353790723 0.3870093898152883 -0.6568798338230236 -0.2955112845042911
P 3.036323974603851 1.583567424427375 3.0030985170643145 0.030692801098166494 0.07179959844080537 0.3483379413870194
Ni 7.423239160484556 1.5796433784888435 10.592923704902699 -0.0035697196291293357 -0.7900629775776329 -0.3834049602934816
P 9.425932063013162 3.200507925265307 9.218224837113482 -1.080997698454835 0.9749795451507919 0.10571913400638568
Ni 3.4002044916704723 1.8298573648693404 0.3161996217268578 0.6629720627636905 -0.6101325503651556 1.4445910233390282
P 3.9799542501889213 0.4572718761070166 10.690312919317137 0.27951130953160896 0.7615075345374434 -0.12815355175050186
P 1.8160951751849195 6.335428225558019 7.283041407770699 0.49575059847744946 0.5809824111637608 -1.1911239603899808
P 7.966719522971151 6.255349659512418 7.661178357450666 -0.9428731515345503 0.6816845515715292 0.20901731727610454
Ni 2.7577167129681235 9.020054911437736 6.652420130845798 -1.0103298996256276 -0.39813558163543694 0.6906954968208879
