# total energy = -340888.61719925515 ev
CRYSTAL
PRIMVEC
9.10888306936857 0.00000000000000 0.00000000000000

0.00000000000000 9.10888306936857 0.00000000000000

0.00000000000000 0.00000000000000 13.33177111203061

PRIMCOORD
 96 1
Ni 6.222177687703853 2.1223879254246127 11.484787397049084 0.3898645998758963 -2.161918006704515 -0.8593297822942555
Ni 5.091082157881787 0.5765303449819533 5.8941895879247665 -1.6391073187854803 -1.372009809537192 0.39994435270940154
Ni 2.8884267566464867 1.6670348709788296 4.768254240245999 -0.6699909172836848 0.8776494065390498 -0.40312506443022833
Ni 3.4959528082431253 3.9688313533221087 4.916610615476214 -0.37935110193908217 2.073649464074409 -0.3098349002158148
Ni 4.284080680413809 3.1112118137706104 2.6966574456793517 -1.9766615392934348 -0.2620110958643165 -0.5652068934970589
Ni 5.770905412781809 4.920837137125802 2.8560383018416684 -0.9634826002547858 -0.6798022469471519 -1.8187351271558743
Ni 5.223816798997689 4.701048902464422 11.71494700574111 0.4280675933081789 -0.15726795261795495 -0.8681108709209953
Ni 5.85815029286746 7.967421426965769 12.3356745612747 -1.1856531670833967 0.2779136260271859 1.2128320414910339
Ni 1.8120300684316795 6.589183687237261 0.33299798535510544 1.0213432200169958 0.5424459456514594 -0.21091273452660453
Ni 2.858075958938678 1.6081641610191757 0.14022851904933986 -0.6023480213237303 -0.07787357254902717 1.7539371568438824
Ni 8.410231549705776 9.181662839584018 6.659365807939279 -0.6714127373318759 -0.6929488116314388 -0.5870435297561761
Ni -0.19447829273133127 2.5514071995062677 0.9462917815821714 -0.1637432759296535 0.5129093696449232 0.7384822772868637
Ni 6.997653321574374 0.9529075632073759 4.567864282534965 0.41556894662053595 -0.3171962256768924 0.3419263814337208
Ni 0.8562750684405519 8.177481374726806 2.6107606802577927 -0.16885051524923178 -2.81240556384795 -2.221035124581646
Ni 7.7175738788482775 3.967966009449887 3.7827432525981792 0.9325033782644521 0.11326866421886944 -0.34380302963114334
Ni 7.702398479994374 3.769301274153577 12.45820634269297 1.019319761829064 0.6201063737484159 0.34339910932450535
Ni 8.194751816639773 7.376218493464087 9.052898760509182 -0.42232066352207276 -0.05176067751205924 -0.1252078388586166
Ni 7.118983641342684 0.7725398409229733 0.17358798076761936 -0.5658504406183287 0.09415816864166365 0.655323287969181
Ni 1.982621226736553 6.614588361549109 8.904836602195521 0.4362673555101519 0.1688173480184512 0.375931791844888
Ni -0.09560592366788351 5.250496716910705 0.9460440199682301 -0.43837977386746435 -1.5328670221683018 1.0130442132329973
Ni 6.628042181541437 1.9806172725061455 6.900377739677246 1.09515187846803 0.4343953352984196 1.6707948796967482
Ni 3.731809112279226 4.538464452198315 13.784650974448308 0.19000632339124052 0.45763990764865703 -0.6935062267968056
Ni 6.092977293139761 5.711342427724378 4.9447270042171185 -0.12880275529872656 0.9595117885324959 0.5025329115066055
Ni 5.402232487684016 2.9376238330029913 9.103973177624265 0.14825135094164144 0.8329314948063848 0.6730448736186603
P 0.2822952106609353 5.823399904735622 12.284959945032806 0.02109487299708625 -0.36374013487470264 -0.6827775275253919
P 4.072900340060318 6.4087276087890634 12.453047071437956 1.1514343551098427 0.33535464175347407 1.5675625166679583
P 2.5423347521722413 8.59230900930403 1.2060106260609929 -0.4692533235178693 0.01385876025996323 0.636913932224058
P 6.689017043443018 7.987133049486688 5.755005857740099 -0.37727082237128573 -0.3166763486176804 -0.4708960013276148
P 4.600505053395158 0.9732385897631468 12.52061221009272 1.540392898231702 -0.3801576570007776 0.2814571204040701
P 4.247581386771796 6.477226407937539 7.917604946574412 -0.7563545295815942 -1.2415072979385393 -0.2686447991307503
P 4.728238917817907 1.1808937924476943 3.759732392703382 1.511906617866551 0.31409470393343325 -0.823556224239072
P 0.49506231840959497 5.675808675666106 3.2288211548883687 -0.22581793377321108 0.9179943860149997 -0.0697817966798282
Ni 0.741578748063177 0.22556417728638478 4.4196017287982645 -0.7179201368647958 1.5781325788743208 2.0344098018474965
Ni 1.9865471552515788 6.926312550971867 4.515417156772054 -0.039272829457693656 -1.0388169513217271 -1.3132896699881642
Ni 5.870283324844291 5.521622615401979 9.225371814014066 0.2161809249040793 0.6749932555942827 -0.15545995287493872
Ni 9.143223353891656 2.236148763531702 10.010040132472438 -0.6487397212143924 0.4205651142835467 0.3501392562618163
Ni 2.4904869909018794 5.439241878766498 6.702627536220631 0.2669926082393079 -0.563863492095287 0.5070027743525011
Ni 0.7837237273052204 8.891818186804166 8.576154405542084 0.29082750587537654 0.6162142377828612 1.3811487957239825
Ni 1.8828425238279891 1.2828039739467825 11.287676637169627 -1.2987482818388794 -0.17262643735189623 0.6020939963313954
Ni 4.099516495793276 6.963185308811364 1.6013452513060706 0.32329488237546256 -0.3313087538188746 -0.248121739476734
Ni 5.891734743992518 8.118665318064345 7.862304918698029 -0.4954376952227209 0.003813974429451496 0.2826524262637519
Ni 5.461130524292268 2.8868691376764883 5.109547685226706 -0.2253044844719023 -0.3445453071138066 -1.6448300802018707
Ni 1.1004259212139664 7.513079458518055 6.5849744724651185 -0.7366058861997572 -0.27219574970680216 0.6376670083399986
Ni 5.127672540352455 4.317473844998691 6.965783162204602 0.2458072324109444 1.448909191098408 0.7034898203720787
Ni 0.6802932732558821 7.480997973065803 10.981499757411955 1.0481927361096723 0.19101830959552263 -0.06558601343092577
Ni 4.708855215080146 0.13760971522551182 10.520526522238164 -0.014620063906019982 1.77568946091931 -1.2014230283231437
Ni 8.474194125187237 7.334381394462897 4.621698691158291 -0.5862210338548807 0.34494202833159304 0.04732552455884108
Ni 7.288536387000892 6.0818553471609995 7.003646055611578 0.211737544420745 0.49236137029024235 -0.28899559487296034
Ni 2.5393470385923607 5.181278316015856 2.4220628845929006 0.03394601792814154 1.465709036264566 0.2964685062112378
Ni 2.754006972200469 5.259141046750054 11.39254447293514 -1.5976991881523386 -0.4103089837731772 -1.063338590612175
Ni 1.3863628632445242 3.5790895821564415 3.6375066697493934 -1.4677934295974204 -1.0998271724565123 0.29545086358000083
Ni 1.4283548132544275 1.3322652079063864 2.281985572999128 0.6862685713977859 1.1684254903512006 0.7422710549053345
Ni 0.8644849045672168 3.6641574392372407 8.008741141420199 0.3268684586593338 -0.08117229790495697 -0.41680281902763705
Ni 3.510955138322585 2.596532605221899 6.99768611355269 0.9981531550537777 0.43037387284385237 0.26292409459688915
Ni 3.9664812615428127 7.337068514908216 5.743953139271114 1.1141806129647072 -0.3394110712110348 0.46326933802029246
Ni 0.739202240523571 9.35965041077567 13.580008079327378 -0.7811204236723645 -0.4098891226269392 -1.0827018256301353
P 0.17476302665726742 5.849342003136533 7.906820029261673 0.348526917469374 -0.546090227272266 -0.20075867681173812
P 8.540761841168228 1.72714438900819 8.01838016126846 0.41450065325702157 0.13883340006185121 -0.4263809496343754
P 1.8918512089819575 3.444606035530365 10.008226553893918 1.4536906716474511 0.022909043387689575 1.166858660084713
P 4.1544886038865005 5.853604960317582 3.8504022127464568 -1.642471607272023 1.2353420496680918 0.5992711821706195
P 6.898011251908792 3.7877923063705197 10.486091301453472 0.3654193223493384 2.3706242204981045 -1.8133473804813995
P 6.460602696708022 7.927424322303408 10.291953680941308 0.08286202690255406 -1.2602200438566942 -1.2038300951027396
P 2.4950869767489507 8.96833280287427 5.74140720651021 0.22427578609707183 -1.2125798162709116 0.3739312164750915
P 6.959687497791017 4.021799507184926 1.2811689294724273 0.6678353043932628 -0.2648344242457245 -0.015682443732263313
Ni 5.420969459738328 2.8763939223811756 0.16338238840512576 -0.3788818756121475 -0.11005607081884271 1.5978753087188868
Ni 1.5239980833420594 1.3973299582145728 6.9686497276423705 -0.6863796430543535 -0.6134161062124338 0.13670324109272586
Ni 7.09197580364651 0.6814027351888985 9.388566559432162 -0.5546311748637416 0.977107390127072 -0.7929809225553762
Ni 2.961543759407765 1.7422742434477667 9.24328989749877 0.5126699999406075 -0.3415083200596957 -0.738648884771715
Ni 6.351059271367654 2.074985298992609 2.3725087400280684 1.3113397453506448 0.06346716731571005 0.05994012799905807
Ni 4.262128272707982 6.967931036784284 10.199924815574704 -0.5492501130574864 -0.07635893567671366 0.11536591306753036
Ni 8.279628387180397 7.5177978598423785 0.37311350549471795 -0.029434503211033178 0.28485226212854814 -0.40199352192894633
Ni 7.537755422200664 4.123099393532026 8.356113854825333 0.7905442880894256 -1.0732543070639904 -0.16571685471625652
Ni 2.995064448352764 8.329545065283275 12.206823036924357 0.39123371230928106 -0.03495928968400431 0.502975655470979
Ni 9.562414143361448 5.00394658439052 10.119040668394023 -1.0160680876609856 0.38204099006641945 0.28750924013542095
Ni 8.758682754842182 2.4295212378831628 5.6983322103276 -0.4773340436434747 0.8934508923476807 -0.5605220864268798
Ni 3.758990018749844 2.8341560325339046 11.660193510836656 -0.12465325190672726 0.44773139028569336 -1.4559640410626604
Ni 1.392101459449782 3.474829308878057 12.304544954081893 -0.896514618874669 0.37192704156086914 0.5486731575080938
Ni 3.2829780179651324 8.543576485973665 8.084506096430475 0.8461119980524008 0.43919249957674683 -0.9452730192252947
Ni 5.676947286024292 7.71005905048425 3.58142054528172 -0.4696171346151912 0.6853537728930003 0.36479480139146203
Ni 3.1356054020843898 8.785144059566425 3.4790986422771115 0.22676461395719655 -0.7382246527501028 0.1128457177488379
Ni 3.5794175019395986 4.498339823175836 9.013409931510715 -0.5106010332267207 0.17883539437608556 0.00014089645323846702
Ni 7.46535802118576 6.147029404063571 11.150119753464738 0.027831420389971426 -0.5136873854615283 0.6190648198577791
Ni 7.682349828807433 9.077903554863235 2.58472384947508 0.5983990639783113 -0.686300967297618 -0.8693989936047994
Ni 4.521275990231136 0.3340746553098062 1.6951749428151839 1.3929758702658979 0.44793579298701564 -1.2896640601494243
Ni 6.38089086275213 5.863670275883948 0.14744639783195315 -0.379322819804308 -0.13096119640262607 0.8938946647533186
Ni 8.020043443279699 8.929401437507172 11.484480427696518 0.5601652173080934 0.37460638816524516 0.14735043639392686
Ni 0.3549695217149509 5.278023760930212 5.377663097930934 -0.3891557467343298 -1.2743030043123216 1.0436573101331639
Ni 7.523281407327403 6.338753170616379 2.5243574609489126 1.2341135765776294 0.44509806642790445 0.12627484667055028
P 8.594941476452156 2.0160508268528967 3.285548544709773 0.22660571978182908 -1.310132098195789 -0.03181560184870005
P 2.1798467585401156 3.312171987549024 1.4354315043526256 -0.542135613499892 -0.5879974090290132 -0.26706099958339813
P 4.910908454802419 1.1905309905193815 8.195839417253913 -0.1652928798049605 -1.8340586448868221 -0.7693596835920106
P 8.845116944352805 1.771914548292067 12.178372352182288 -0.3381306618367145 -0.46061595955784546 0.6950895121235254
P 6.264852803928668 7.765258880649111 1.352748352806011 0.3760194664626879 0.869140083516458 -0.053274543053424384
P 1.626436580047346 3.303600528772599 5.897175479728074 1.0368749971040079 1.1922349340659726 -0.2749167481823911
P 7.072182201179803 4.069530053400087 5.867792045380581 1.0080272196343802 -0.2580654809530072 1.5720411212646024
P 2.4760403026772138 8.743470920456815 10.097336933190421 -0.5964015739323083 -1.166796953608842 -0.6590519017736778
