# total energy = -340871.32243973925 ev
CRYSTAL
PRIMVEC
9.24931152050003 0.00000000000000 0.00000000000000
0.00000000000000 9.24931152050003 0.00000000000000
0.00000000000000 0.00000000000000 13.53730234499176
PRIMCOORD
 96 1
Ni 6.965971102521911 3.3120675207331844 8.003700401210825 -0.6205637730008087 0.511723319756622 -0.5163073395828786
Ni 3.843421978104222 8.720389791224664 11.037707714781812 0.5434214221908511 -0.4171113514069913 0.9806855943966336
Ni 5.128317858014223 8.290824008887887 4.413431158846743 -0.7367190147388537 -0.3312100234574812 0.22188157483328239
Ni 6.821635593761379 4.600404144588006 0.8193807978680312 0.07063925958411706 0.635942569449724 -0.9697812887793039
Ni 1.1163826704189324 4.816810289956168 8.842836803895365 0.6485887974588249 1.712668637112399 1.656260433525999
Ni 8.277403257640753 2.4464336899488575 4.576122851566657 0.4851383701792419 0.5058540054600384 0.08975849691207122
Ni 6.275870708793487 6.8883971254649055 2.632653781719399 0.9226892203875077 0.1858629906468283 -0.3404235716359492
Ni 5.3717504921102455 1.7459925657626147 0.2585811567649111 1.4766531939808956 1.034078408195477 1.360189419863496
Ni 1.5412313037990997 7.391411691849575 1.3577369841805436 0.8703819263433591 -1.276165254332041 -0.819681314664698
Ni 3.3269589125373793 3.2609743230149415 1.2099274339531452 -0.34582108850243665 1.9517532060875291 -0.9046848133902871
Ni 6.207601539286183 8.27280634973598 11.968437276236163 -1.7464981840673341 0.8179741021656043 0.5620390372920384
Ni 0.5343345855942121 6.422074578513303 12.4430416568657 1.3379318940168765 0.8362345910376888 -1.5260597694384817
Ni 3.8824078268338362 7.775091638943736 8.939086991095868 0.21272356248309818 -0.5336337466764681 -1.6722830342065005
Ni 3.403876188465132 5.068946526342717 4.170653376017638 1.6174969396045562 -0.641772802978256 -0.3736779628137048
Ni 8.051322332255705 6.752201010982442 4.522636856916896 -0.33771208624205706 0.5288952035502181 0.09437465552784392
Ni 3.3765352231401633 1.079838639972738 1.8529183085037395 -0.046969683881319106 -2.555447971247141 1.7909008785524254
Ni 8.856641401577203 7.920453821300706 13.6755179877626 -1.4397524642998043 0.7351781526142951 0.18555137294368043
Ni 1.0473365587305394 6.482592824833083 3.6581443911938343 -0.47706922001786223 0.6656537233609117 -0.8606932383006854
Ni 6.899274316000143 9.137413506923869 0.44410755015948034 -0.0130329219245582 0.14230361799863878 1.5949054274572856
Ni -0.17308051959846724 4.615961486833133 0.029846603858978554 0.8338892307339638 0.1543160690784826 1.3700472864941824
Ni 1.2984646201440095 8.107937369046683 10.515072583531154 -0.3056599429025187 0.15606467633847315 -0.6075696747339859
Ni 2.7695398948531613 0.7046995072835417 4.498215899289184 0.5938782932898224 -0.8748700440216997 1.0255469736856984
Ni 3.8327297738025767 2.7026026262277227 3.392678046814611 0.4440883942164674 1.006287611235454 1.382433318863361
Ni 2.918472311518466 7.159059733145741 4.716693890473582 0.8883110000179539 2.921089436909614 1.202483094156542
P 3.119718835043724 7.0699333658008845 12.425713996365092 -0.47629840329010875 1.0167815687882424 -0.8919773931259477
P 2.124187671030759 6.366023749734783 7.466959144717575 1.8958260559026057 0.22133572963214138 1.5338437842592745
P 1.8845010081649838 8.725301175726544 2.945392433162012 0.30657139897319463 0.23872410031191793 -0.5433306622492579
P 9.128460173217993 0.7394547208508967 12.717483533298829 -1.1300101237977958 0.3683182411636882 -0.6130687501753441
P 3.1470505510570135 5.535213577424241 2.0739685332662408 -0.9710542419544567 -0.11635887310841896 -1.1543715833612957
P -0.3856380263767375 6.540262283155538 10.43100651460622 0.6466854097885251 0.20510872625031773 0.246278258510092
P 6.173804554408838 2.931957807947358 2.492487862664041 0.24247893936865983 -2.074469388872543 0.17178568661815577
P 8.972193052390745 5.929816961612038 2.0822670157051992 -0.4264951066147364 0.5440641979811727 -1.020053811781611
Ni 7.238381830110196 5.275030439876418 11.79216851890173 0.4154092811142201 -0.13223157847461742 0.47476448314408554
Ni 0.5561583365022849 8.937036418696495 4.609343604326362 -1.0864309536552645 -0.545326352523048 0.5176967637312375
Ni 3.8706519516890348 3.0054898358003688 8.667474479105534 1.084360958500113 -0.3365237223609107 0.34123475468333486
Ni 7.107911039557421 1.3728198367365065 6.384015510813987 -1.5837398977587693 0.6613198718722482 -0.4011941659561026
Ni 1.0179422462126946 1.5484642655325656 10.954940249216696 -0.06498771772529453 -0.3015762597514484 -0.6536608126650936
Ni 5.764115542871574 4.343837487906916 10.099924628240577 0.1263491515519114 -1.3206995892989901 -0.716176928921444
Ni 9.312854450862975 6.030079500219161 7.138747319766119 -2.183210854645021 1.6011758338470294 0.48880476328723566
Ni 1.4437343093841835 2.7568868364754358 13.028232657799157 0.4958920091513202 -0.11878496605140833 0.7650047490574244
Ni 2.5580266353635204 0.5582015094523137 9.34634343366139 1.7270202778483805 0.06556441616437096 0.2778670890599666
Ni 8.2496923198486 8.043858137730249 8.335959724953284 0.6358973180340854 -0.2919153396229166 -0.5637763316981194
Ni 3.942112133725809 7.6355565229449285 2.384054482119138 -0.7739480742936413 0.4134608991385976 0.16306733290855144
Ni 4.811686171285656 1.427437022204686 5.148831906388461 1.130856016737859 -0.5726011290786011 1.0599223658417745
Ni 3.4665310257829045 3.8817048791461852 6.224654495229906 -1.0086774516238692 -1.1951526219333997 0.4246701375908557
Ni 1.621681816788469 5.462245757583687 5.671750991507682 0.25879670269207683 -2.1471138518121475 -1.3037076827266838
Ni 8.339401393829272 8.860220885197219 11.093440367238552 0.17380374548944905 0.4919191405465012 -0.5854021374980112
Ni 2.466032981397981 6.119511094849445 10.439155158195968 -0.10598704295579166 -0.4479681888868479 1.9518681343988384
Ni 7.204649590414608 0.08608149393992427 4.169759892509386 0.16925777798997949 0.3106250002172779 0.5874199392589884
Ni 8.16728095278315 2.4357322363355327 13.785035387636356 -1.087953303837062 -0.585193878141947 -0.016134186557701245
Ni 4.347518713955407 8.91895401436283 0.09732588214884312 -0.40668707074987376 -1.8963256212468438 -0.35167729017289756
Ni 7.378203674771072 1.1477100890778187 8.717738938497284 0.8148910923649063 -0.7905376032212063 1.4408680659614863
Ni 3.742271505575854 5.31162996619269 8.77845327022467 0.6770344543940275 0.314398094106465 -1.457638857661922
Ni 1.5837503895903309 2.621800639394528 8.75095876632582 -0.2819392022468112 -0.7090151210656822 1.3229246219747668
Ni 7.695797289914319 4.404836698434036 3.1301085868534457 0.7733333235277778 0.9419570674781841 0.4999931758038873
Ni 6.834325649385823 7.342991545206743 10.105055221429264 -0.12396702447298005 -0.5249794134355799 -1.441747383242646
P 8.559081795532022 4.819520338278297 5.436662161477846 0.8883935324294313 -1.3317411918251323 -0.28539502200589556
P 3.384683866729912 1.5669351409567747 13.351069707733583 -2.552044859102863 0.13138362865202532 -2.1115899478739246
P 6.747465363402474 6.741203579395369 13.392128327210601 0.5941983956334024 0.3762488088646746 0.7149399711905494
P 0.4114833780031107 2.9619995722827768 1.6404634690851132 0.7462156413753794 0.6448774100455088 -0.38416446416732547
P 5.711172482817406 9.272619945056613 2.386747881680244 -0.10153672049392191 -0.824912224046334 -0.29891028288351107
P 5.265670136456639 2.893018205776141 6.672820643354406 0.3671944119718902 -0.909762999244143 1.7050437735772894
P 0.5970171708470237 0.25385753329012717 8.777952882462802 -1.5083284135969892 0.8799335745875362 0.8641156337186731
P 5.8784185366083666 0.6812451027263513 10.304919897789587 0.781743401968344 -1.4217169469543323 -0.32266059122557333
Ni 8.046096471156718 2.379033955739438 11.518985473788195 -0.4230395439659682 0.565555020865097 -2.005419071042101
Ni 4.858256455592562 0.8155728562495299 8.31109110064028 0.2378848922400742 -0.0027749916419758662 -0.18328211729352953
Ni 0.9495435863418753 0.6827740139469931 0.998427123499856 -0.16224200879377865 0.5148083864398488 2.023853880708521
Ni 1.8263135883884691 9.049619040460879 12.62978895940198 1.8874594291054654 -0.7831066008644578 -0.5683333549411825
Ni 4.6056670029337115 6.395593799174541 0.27390819114921594 1.022185513412633 -0.65440154748586 0.4830290371457229
Ni 1.1407823546297804 1.7726213340882524 3.2082319730242217 0.1054532819395087 -0.38971059079653525 0.754068818871211
Ni 6.002868025257707 8.428832988459558 6.716451496409528 -0.0968611693951235 -0.9727524555924861 0.5330408502874755
Ni 2.7111304915963363 1.432237414966411 7.173700468603418 0.8316112333330646 0.1323313372772753 -2.5604125143412677
Ni 6.003644967438795 3.543235567542026 4.738191140679364 -0.0641942752897217 0.7675056611024073 -0.441780057798265
Ni 4.408295941002216 4.221515340943889 12.188770679343493 0.08307105758956661 -0.21132873901810056 0.09486882155544306
Ni 9.392306038190947 3.553123081727544 7.290635816444231 -1.6570582468369461 -0.07416629890076905 -2.9696879146436084
Ni 4.645457541779454 5.855165767045792 6.2807534204291615 -1.2932103827397858 1.5018487194099166 0.5756378590223957
Ni 1.656163250730107 8.55494735321123 7.200342185965407 -0.03479216797852073 -1.3832061924736436 -0.6899717312809859
Ni 0.6792195034685137 4.43572939944398 11.315195389551041 0.32601356685820626 -1.4595995809327187 -1.2544741425118524
Ni 0.15315750224055721 1.2784398603576237 6.450199885468704 1.6815541750957814 0.18302037899171059 0.7253717080468346
Ni 7.759765529490599 5.355591944605943 8.97043938289629 0.6091557882741832 -0.1266013767720336 0.2774649685255415
Ni 6.916995997178303 5.866838398385477 6.517331389639415 1.1591507499174938 -0.2498405219400536 0.6697011539574079
Ni 4.929809130746134 6.278978477517842 10.806828246497373 -1.2554871571573991 1.0877054494923137 1.169508181892418
Ni 4.331730138918289 1.8791919032608793 11.0864552870581 -1.1153872316782985 1.051453923359447 0.5708579211352491
Ni 5.16969927846886 4.7233829926802855 2.381902167291289 -1.4791718466376913 1.313055442490171 1.2163973902447889
Ni 1.4823224377115745 4.150582369672854 3.263992373416003 -0.6234166690685715 -0.40621887286420366 -0.48030418201539216
Ni 8.113015241158797 1.302904289750229 2.2764461401760565 -1.0637278556307939 0.38535128538657504 0.9713072385055272
Ni 2.537409919629639 5.213272785791569 13.363415688963544 -1.1882535808207213 -0.26196661577962627 0.4014103957319668
Ni 8.565186341240574 8.212676574506744 2.5439843303715155 0.4293932540981379 -0.8821089849723001 -0.4850555806574484
P 8.180951435445634 8.680996972781145 6.193289154393134 -0.08796103869201626 -0.5870245035927826 -0.5674769204781581
P 8.72269286983289 3.1750019709528368 9.406218852819437 -0.46987347360037146 -0.024934815568466735 0.6811996415153108
P 6.330626633936862 3.2389702105291165 12.698883167511106 0.8763188606530844 0.9955090325627113 -1.8396623642268446
P 1.8670753049605722 2.648632892577117 5.2189148659161395 -0.5371024219513588 -0.17577243918004568 -0.11669825872570869
P 5.87735486576521 5.800752066434565 4.570247688787759 -0.3073509574516965 0.6116901246602627 -1.5752488295686224
P 2.8837226475381192 3.6995304363043116 10.577534110234822 -0.4362593850903519 0.5909618909739758 -0.39763473073961836
P 5.869455953590811 6.386732958585461 8.37363402128673 -1.594064933833861 -0.2936572620146878 0.07154840166194774
P 3.7579028423144183 8.686861036386027 6.366417770412335 0.6852576136347682 0.5344171618097119 -0.44519525412740096
