# total energy = -381173.0349060039 ev
CRYSTAL
PRIMVEC
9.19989475712323 0.00000000000000 0.00000000000000
0.00000000000000 9.19989475712323 0.00000000000000
0.00000000000000 0.00000000000000 13.46497591665895
PRIMCOORD
 96 1
Ni 3.667298731623499 6.7015619249344995 5.24692429139724 1.0089561592065528 -0.8868729820198469 0.7128244675094433
Ni 6.188640208770384 1.2645806937215012 9.704678875530783 -0.4007424231306647 -1.1276799330027223 1.5579856716128007
Ni 1.3412710139902595 7.30809256729039 5.635509433853071 -1.5046962161610407 0.07987749035293341 -0.9421637841723515
Ni 0.8874990993059835 3.0177033832721616 6.117232467904015 -0.4881301058177142 -0.5468103932677422 -0.3427763881388419
Ni 5.240885480669743 0.2084558087583564 2.7799385507239527 0.3948273431978103 0.1283301865376822 -0.3554573260406201
Ni 4.467367553861091 5.928522392638081 0.002403932423971513 -0.22979877279783004 -0.863315763525197 0.39170885217348667
Ni 6.241631600894669 5.509798395911562 4.941659833151828 -1.6273355229615325 0.3003223327396892 -0.6354427469951701
Ni 2.814588113251331 8.827280340359046 6.633816662055055 3.9112523746690635 -1.4127576808785154 1.1242284841190122
Ni 5.340584736998022 2.8684166957720247 6.968501462813358 0.23487464465884064 2.065405221787746 -0.5461833012067046
Ni 3.7739071086957607 5.506182837386415 9.344316249328369 0.9833729114208097 1.159572667946261 0.009029200081803804
Ni 0.6171151209390475 5.122133242902333 2.815782259553021 0.24937155272343503 -0.4158383982318387 0.2018614229576136
Ni 4.863607008512652 5.399997655459591 2.5660336444733716 0.9011374623586609 -1.224313559768072 -0.31639712681436477
Ni 9.149515843925927 0.9454087550118047 9.231197106942503 -1.2053437035337884 0.31543450579077936 0.43028414134352344
Ni 8.754932370278249 6.652664485847594 8.309276602491899 -1.1913766998307351 0.41133845347895603 -0.6261692921130442
Ni 4.310408154376292 3.3824331993775982 13.660083342231118 -0.5858250839680427 -0.2194889062313897 0.18443834238515977
Ni 3.898206882826182 8.017698827243589 12.499482615732934 -0.3755209295597146 1.1126353799647741 -0.09739467330109032
Ni 2.3365891964802326 5.520129877396904 11.416817875214209 0.19102936533911619 0.35722161702989447 1.0916672623535393
Ni 7.480746986734222 2.3299744723591633 8.240013357025559 0.9224112841357727 0.5540719599261619 -0.40667164413090606
Ni 2.021787207641897 8.82690314468594 0.6363107007424023 -0.9393461122178983 -1.0883950193601708 -0.7011881688220956
Ni 6.646647754866815 5.130615545600005 11.4886938907089 -0.5872731292684789 0.9268382095588747 -0.47800407312730586
Ni 4.702682454512998 5.205465886975559 6.987474405170635 -1.2467348648860659 -0.22703843644387353 0.05917779591173679
Ni 1.827917831559418 0.913540320581505 5.175734588029716 0.16616962598295898 0.9996467088801688 -0.10603460836427546
Ni 8.141851403062553 4.621336987644432 9.461878940741322 0.23124758942921464 -0.7636338368518267 0.08876399420928584
Ni 8.124261204843519 3.620885264042419 12.33989572638864 1.2673067755001466 -0.5688948838716072 0.7209470966165777
P 2.9798550174389473 1.1688373920136117 13.024980587632104 -0.5709579370482231 -0.26135443611692405 0.026840003010979583
Ni 2.1863365200611637 -0.029276824159221376 3.098371737908028 0.057216815530624035 -1.7435429580937518 -0.041768599296353875
P 7.921109135244825 2.1370434855122187 10.680634040138122 0.9435418954668007 0.3711181725063286 0.8777201118759853
Ni 5.856772415697576 3.9141227002524 9.224625622325423 -1.5314022646973176 -0.7988314677988824 1.2652087553205373
P 8.375731120177761 8.116662092014586 6.076514654986848 0.1377926175021627 0.046845499598629 2.0404323538924927
P 7.8428456330223755 5.721064772429288 -0.06809209890081422 0.20170072901003328 0.1395959892594886 -0.32107190658221485
P 8.21875332090403 3.2566338424492156 2.4374706392473957 0.06801467747707642 -1.2068130889904636 -0.738294843866406
Ni 4.169060975800332 8.923998830880333 4.797530606489343 -0.3471709176621118 -0.8021800725561411 -0.2836821530798469
Ni 6.94477953493272 4.739831628366795 7.379991582521243 1.5072626913366365 -0.07937741078806329 -1.5388391805913368
Ni 7.625884521830183 8.716384812465618 8.234990214647112 -1.0999048197719832 0.12331036472558762 -0.7774591727706933
Ni 8.141943402007213 7.767139701461483 2.410257351416903 0.1763383389858447 0.7250593190127385 0.7551538244052737
Ni 7.229599067706291 1.3056582225122888 3.5645828298998117 0.8881420785402575 -0.14414478497243563 -0.9245170176248659
Ni 0.7839993665737909 3.1449103240538454 8.428683872745289 -1.974467102745277 0.23884751326365958 -0.45705421034851607
Ni 0.3517064454993362 2.2889061434628415 3.953101733115488 -0.053095337163082755 0.8742059280751397 -1.286108738697998
Ni 5.021348399027063 1.063406601433001 0.4945458469576849 -0.9688886017617055 -0.15585615987209286 0.8591657459125654
Ni 2.1654711594122262 1.3206540504919047 8.541520578371047 1.9772112411493175 0.5332969321623396 0.5079430267785833
Ni 2.723821954449559 3.8553905739813166 7.205014189724741 0.01364690135947327 2.8353284911927106 0.6553739387014584
Ni 6.416999989205978 6.240417214825154 9.155590534241842 -0.5912614244922655 0.7755334165028902 0.23762289682793916
Ni 8.107627795648952 8.323034124676388 10.702595108217963 -0.044201377107562584 0.6926261381846974 0.23053462252259008
Ni 6.503846992965224 3.3910811001756587 3.934519786273017 -1.1142202079533907 0.4555573140880154 -0.3236041860857653
Ni 2.987941724674581 6.559046359761355 3.084960131755461 -2.003713915425536 0.37565771224789496 0.11312956753784388
Ni 1.7910446545396024 4.918916774042375 4.9980643861230085 0.7661578888252611 0.09525885790501014 -0.7310075661763732
Ni 4.097421397593419 3.908170368532884 4.715057232559244 -0.6908171100004168 1.3423192244512947 0.13347650662531205
Ni 7.624081342514842 5.286066162392376 2.5455804390965118 -1.9608099169731585 1.1273611162107229 -0.0760066945436175
Ni 8.870409445615756 7.969831776336876 13.597336382015062 -1.1073695035801445 1.1584462676513019 -2.5166731644717886
Ni 1.053682312982416 6.487406781554443 0.5828087144752521 2.2679875820717843 -3.15863751463556 0.8660799565338955
Ni 2.6649242300780873 3.403850553694497 9.64761469012639 3.018296162569615 -0.4346231350385095 0.35275818194190217
Ni 5.9920568638204275 2.6729557379469244 12.050520405875496 0.08472736224606699 0.7352815109613787 -0.4894624514758926
Ni 3.229917348919888 1.8943410696040959 6.586702162515664 1.394335726727902 -0.7740187796305766 -0.33782650033273426
Ni 2.1323607392290134 2.9761198602857424 12.2754118260974 1.4546669195177915 0.9494225226172939 1.338444829097553
Ni 6.374634475189947 4.250673239608411 0.8518025887883721 0.23866342227731158 0.1914615677805283 -0.6008822354114812
Ni 9.272205636524795 9.182009871179917 4.25183518627947 -1.673301705279002 -1.9889683816852457 -0.8262620532060093
P 7.215274832022695 8.926859998059266 0.8849396886655363 -1.079624215146076 3.9817923896711553 -0.7404640836035828
Ni 1.491293693047678 7.882064783131027 11.777167621564375 -0.5066266219600049 0.4290024464176224 0.08281523282501865
P 4.44422061938458 2.0825341108010393 8.900577739548735 -1.420235220202483 0.5742173245257852 -0.5783287755909975
Ni 4.916626000320336 1.8320117845967978 4.736682504491075 0.7373286232983948 -1.1192228033743046 0.4580821373923981
P 0.8246555401980348 7.184859980918026 3.161818810092947 1.4440181815546935 1.043587633237493 0.6275134648457644
P 5.527894588326227 7.230739854620078 3.353896046733445 0.140922421380396 0.7918524653778879 1.1396484182185083
P 4.456456479024388 7.650153843431548 8.234923055417509 -0.11984220367132908 -0.43341857320744703 -0.17687724220845022
Ni 1.3668283208168683 5.456365408852907 9.170779560005244 -0.3579101584564868 -0.19021329719572402 0.5318290893675615
Ni 4.68500945724377 2.7340982365681055 2.5307962086896145 0.7138138280059062 0.21236257959925361 0.021206458874286058
Ni 4.026149815165148 0.928664947083645 11.31049837482818 1.0430808688044035 0.9303691055302686 -1.702613566869242
Ni 1.397868764745226 1.4661871810499045 10.835022989109113 0.8109848153319645 -1.4528314089709493 0.3024846304983307
Ni 6.097745251446087 6.925294158453686 6.82041444155159 0.7600821149448265 2.4450843964902087 0.39540815540194485
Ni 6.318772715992262 0.4934197798750438 12.262203537612532 1.6206912781721379 -0.12501037813582988 -1.1011173520228457
Ni 5.509090004037678 0.7241172534944547 7.309246234056428 -0.2733396335032583 -2.4492264436830404 -0.011438580854244816
Ni 6.506257365315322 7.5324135940554005 12.248294217169354 0.4857132688461054 -2.632869543860414 1.3173090755602022
Ni 2.9794594219769084 8.530620543407705 9.825594928476603 -0.2094657176674328 -0.7416017967524519 -0.5366789612606951
Ni 0.1447538994967278 0.7302637029872039 1.6817756679877673 -0.47407465616591266 0.5106969353746367 0.4847123383854169
Ni 6.390081097998398 7.066779335446635 1.1321454529147768 -1.7325766888902354 -1.9211123412732205 0.44651088761503105
Ni 6.59888190279923 8.732006233268924 4.949981137696345 -0.5430889785520969 -0.2824680781670877 -0.08508834512991152
Ni 8.61853473492501 1.082220385616016 6.351469140924505 0.25299269441579014 -0.6224903005995602 0.46370873955055625
Ni 2.591591871289427 4.22972507990928 2.4238704352582756 1.4112121907682664 -0.699277324952628 -0.6202128174192931
Ni 2.5212218785188254 6.4868547878864815 7.495466817879857 0.985078838368323 0.22116218016875458 -0.5687534731977366
Ni 4.012110776209998 7.870675313782092 1.5045498209837689 0.1719193839825426 -0.04636110376304274 -0.29738716137076526
Ni 1.071806105080479 8.81249610995215 7.777989137005262 -3.119673731777853 -2.482761599326008 0.1841670910016441
Ni 0.6584658865954761 3.1393535877963683 0.7458290044342663 -0.23559275377178782 0.2594603044180048 0.812037424966195
Ni -0.21972383950033997 1.1022393559740795 12.65472071496314 0.039434294736222404 -0.062433069624240854 -0.7429868500254365
Ni 7.2547147795985305 1.9898175743724709 0.6216709086786216 0.5415368035736287 -0.10432868141676226 1.2698454827616001
Ni 5.627446646343049 8.194419600041403 10.284359625887587 -1.1492586876147626 0.6046231905111523 -1.554906775577161
Ni 8.1231020181408 6.7938644661120975 4.47473482934948 0.928294225279111 -0.621446175605762 0.45069227268623024
Ni 8.323181322987843 4.38975724414573 4.756610395893924 1.6340795265535857 0.11572278218631685 0.2226433926999714
Ni 4.519466556222173 4.319046855279886 11.395624078332835 -1.5579759014207877 -0.4721571274282256 -0.3281756075065316
Ni 0.22767806825566247 5.202595519902159 6.681818951410417 0.3580857648024027 0.018365132770749016 0.9831726224845455
P 2.5720328956546643 4.696904920788335 0.16381056089364548 -0.8881356507823543 0.30622404293610483 0.10223194678873361
Ni 2.901830712472616 1.5099878786026344 1.6479651358356906 -0.15374528417667715 1.4841860120228312 0.32164937635223956
P 0.684452828493648 7.670264812734272 9.757838625723798 1.5251935647834443 0.2432613260606391 0.10957604585863065
Ni 8.893942775659841 5.875898996292436 11.40292235461273 0.8614810243093034 0.8465948512260904 0.36885328773155185
P 7.735694462176619 2.9793858228211807 6.261523612709102 -0.26154032687548506 1.131072503624039 -0.9956185615573819
P 4.711413154361253 6.480589659755122 11.328487848467041 0.008121086445237628 -1.05613050289951 -1.0474013505566284
P 2.6389897275783714 2.4032424318865613 3.69682211295441 0.5944855878565182 -0.015014728241277368 0.426324128254511
Ni 0.7958617104982796 3.778369057511781 10.713959737851837 -2.529797874779205 0.07689783889931918 0.5572295317185371
