# total energy = -340892.4167151242 ev
CRYSTAL
PRIMVEC
9.05948880980439 0.00000000000000 0.00000000000000
0.00000000000000 9.05948880980439 0.00000000000000
0.00000000000000 0.00000000000000 13.25947762031242
PRIMCOORD
 96 1
Ni 6.252714311586011 2.081127679327419 11.275395537856316 0.10986503785395918 0.20124898618459536 1.0202430449742814
Ni 4.653152826123803 0.1253815149720771 6.129365745931102 -1.0897237654739234 0.42103639749301036 -2.205743488529898
Ni 2.641411772554786 1.5914713618426435 4.670597778018355 0.5483710528866427 -0.7060503820104034 0.06224512198315086
Ni 3.5841693696688526 4.2324663979063875 5.023485708887793 -0.2838487605646982 0.1849430499357202 -0.9409792769459472
Ni 5.10991413928311 4.511525835592257 2.700955263584568 0.780219766234966 -0.7355309079680236 -0.8273645422415685
Ni 6.967852249191022 6.1708074721184945 2.579273643893824 0.6582237494454277 -0.6448524703448442 0.23522585735067233
Ni 5.016257142666011 4.527597368964161 11.38872430874836 0.14983669315089035 -0.4570071591606645 0.09649453008432413
Ni 5.817206559469819 7.8811393287973095 12.444868657483656 -1.984599306083272 0.396240421495253 -0.013152478221557995
Ni 1.8287756150239458 6.707727143380732 0.428237512245307 0.188001891366702 -0.5276703300041816 -1.8780664179263395
Ni 2.7902048188344573 1.7337596950664937 0.548802096950281 -0.19660968764037107 0.5710733795801648 -0.6484833822292122
Ni 0.6673464156225976 9.018594402628157 4.523285052230775 0.15827968171192097 -0.2020002625283231 0.6624640127790203
Ni 8.565801145622679 2.531058137829221 1.4790947432377406 0.6162669453976677 -0.6341744218057078 0.17525976120968526
Ni 6.793910061625892 0.7755176194635562 4.936410430982468 -0.3144227766968133 -0.60511478543559 -1.5097237512826192
Ni 0.8168198295213387 7.207548207451344 2.426418322775392 -1.0197344807689792 0.6359965626161111 1.1580426044549799
Ni 7.674293077417776 3.8765643750680483 3.7947825565478435 -0.6696175931046662 -0.37346147592752454 0.2033500916879982
Ni 7.478354450716806 3.79067136046883 12.448912813344545 1.0396818704251836 0.547735990405805 1.1820862756677448
Ni 8.261728458985388 8.993264071563985 6.58608900923688 -0.8303449650261313 -0.3964587081536462 0.7033517521323177
Ni 6.735766261636674 0.8091201698749011 0.4418856323269147 0.4474855928234745 0.29965795968281295 -0.20994291441416743
Ni 1.9092963526843036 6.492066009266779 9.12879221414403 -0.06607940812757652 0.29157929643973657 0.46598905094430065
Ni -0.03332985979438083 4.943726874246925 1.47861730817083 0.11709369439191447 0.3600593435890057 -0.46113300840358007
Ni 6.497764427807324 2.004901139422575 7.075111162496158 0.8127177388626713 -0.8733109270646959 -0.399493381214912
Ni 3.4501523498432816 4.5664172790535655 0.5196042700594656 -0.6173501511595174 -0.6104053444105682 -0.5964116012346373
Ni 5.89597881576559 5.488637014750437 4.856655220137174 0.5466319587083489 0.2521995090905334 -0.2217195953341214
Ni 5.417837108718068 2.7201477908948144 9.019309196305183 -0.35910315032332346 0.8233950160708593 0.7956165604060105
P 0.20632623671462505 5.6155332762725605 12.35044794594928 -0.11861527324276348 -0.32465988104378923 1.128129104724999
P 3.8109736751736976 6.345057682307437 12.588495077223309 0.14731726916314627 -0.40561414940066914 1.4790605178708076
P 2.4686835565070377 8.61747647051182 1.3186720310113318 -0.876682157529774 0.02013276619413307 0.17844895757094428
P 6.1754549899425 7.622835180263092 5.719833360491301 0.7395513419813263 0.5196677714146793 -0.8355347367571868
P 4.6536058005705865 1.1876174640677297 12.516323564566077 0.10129580812770943 0.6639904767258757 0.8777679343947852
P 3.940787092133111 5.907892043716013 8.327256648406083 -0.0891566016620142 1.7474127254618035 0.5353790115023489
P 4.599611246513912 1.2194434486987868 3.664017893250183 1.1897239947186609 -2.283928164561441 1.9269430890223846
P -0.0033683179862872494 5.547704882611096 3.701834011965514 0.8487980295249962 1.1628248563349715 -0.5433733425617352
Ni 1.5021085629810582 1.102358613694009 2.4509876567689663 -1.1459939008205617 0.5763084027268591 0.6049412359722033
Ni 2.1430855241585607 6.188709022255406 4.724298804633515 -0.15326243100298767 1.012242029046676 0.3384769894325396
Ni 5.921943311055259 5.792446976208595 9.082411254588902 1.125453614775365 -0.21966014170193135 0.975211972876572
Ni 8.605200863003969 2.354606471828907 10.597916083859156 0.5136740157250895 0.2504125923934397 -0.9263692403422562
Ni 2.522016767871409 4.914201999805532 7.119278888904297 -1.2638823231996297 0.30111191852052016 -0.7892566796262537
Ni 0.4502131145565953 8.942694004324999 9.460212780031469 1.0631334165799045 0.9979402677120233 -0.3640666649761859
Ni 1.5040472936132945 1.050003827134692 11.82384793853368 -1.679713779452933 1.950173777415551 -1.7418262325129616
Ni 4.09411894236956 6.9431198443966045 1.5964142190059527 0.8627364939829593 0.8540983586919871 -0.5435072970364382
Ni 5.940352192572568 8.002590837469086 7.8235961729245265 0.1985138466416194 0.28648002753995827 1.2778606397565928
Ni 5.501447132105493 2.906438061879281 4.944180754642604 0.22344146312123456 -0.2551197680611219 -0.41230390271601897
Ni 0.8351806957472893 7.406775428635968 6.90130667916285 0.4471996861519395 -0.4304718318742974 -0.0998341359805184
Ni 5.28937355561007 4.521038298974725 7.16139101727293 -0.26890268077782725 -1.0070581708528914 -0.4709800764009889
Ni 8.127521189892168 7.184763592778101 8.955464259928739 -0.40236556055638445 0.05603359385580027 0.4035058448084147
Ni 4.766024998773488 0.45864478090903626 10.500206777841125 -0.8245581831410251 -1.3689221717508038 -1.1053750988579352
Ni 8.03906433992415 7.180469395022587 4.792426161429857 0.6636513482189021 0.2509720644413355 -0.48492291173432606
Ni 7.220602931007665 6.059511650543618 6.916302851198088 0.7452769316111939 -0.2613007000608532 -0.1639973009219885
Ni 2.4167545659276977 5.463868372000277 2.3945823727065054 -0.7743088000671697 -1.4948046680789417 1.404911445361219
Ni 2.2561388865869594 5.2768442824120205 11.370704985255284 -0.6248405459992916 0.040934533430832726 0.27037695133050854
Ni 0.9840326287050424 3.350851291619251 3.717029492757337 0.08183024320393004 0.21508923450179734 1.535530427933078
Ni 3.706028555342736 2.734969114793593 2.693238390909152 -1.6966948873919618 1.17853352531948 -1.1241770620557863
Ni 1.0566716109913554 3.204893865376449 8.20826660287813 -0.16114903283991602 0.015436132049412127 -0.10514886332521246
Ni 3.7996764924709 2.627442040615961 6.813356254626338 0.48115470294114543 -0.8428793500477161 1.082664801744613
Ni 4.294261171936688 6.584644926700531 6.291038667630636 -0.9912507715069897 0.7670570036007628 -0.39780416643794714
Ni 0.6742270974692494 7.496826748656665 11.412114097282508 0.7626642738497058 -0.4005207940381618 -0.34244574427230057
P 0.16337066992608015 5.596562706441238 7.95259695372641 0.9287799066662779 -0.39000652477039927 0.7709997902985948
P 8.759230293888464 1.4309009799465833 8.023946770737174 -0.5201382832931946 0.31052472719398777 0.5382362784454859
P 1.5946874804148115 3.1113274636487063 10.376853682441748 0.49337875581116314 0.42564201458582185 0.2202314408243691
P 4.122022168291466 6.030494107482623 3.6466617243471995 -0.9114838385899915 1.5135994321879418 1.3097713724222604
P 6.81830726532969 4.02615465637406 10.347232777417634 0.5962401086537796 0.1372341738955314 -0.7240951553272562
P 6.2634860439305395 7.815331201168502 10.188065710357712 0.7773113343389193 -0.4297334110463761 0.12705466225936826
P 2.5421650712643697 8.234504694733657 5.7836782968677465 -0.2772531096250515 0.21257238161721456 0.17912052971667217
P 6.936044383537837 3.962937542580858 1.5815240429912627 -0.5575048968671108 1.4680731656213684 -0.9329085841226709
Ni 5.228584384851632 3.0010916022793053 0.48627984595844626 -0.14092910624861538 -0.4783645417905181 -0.6836319051058872
Ni 1.7561366327376329 0.9827371217872396 6.9748833185540065 -0.6299554986283538 -0.14204985011661989 0.115905073400452
Ni 7.1623594766401535 0.6880292288627639 9.439647740147466 -0.875390178191228 -0.14001019397877176 -1.3692756984354806
Ni 2.9865692415154044 1.6538278241869553 9.19238529672806 -0.5157129005319893 -0.5184441834202234 0.21884741599264892
Ni 6.279675350658606 2.1132979245380326 2.5362329179092837 0.7402028595223961 -0.6600672304120697 0.888306886252896
Ni 4.259155652310913 6.60925049864985 10.619463172343787 -0.2678564989015 1.9465528928335123 -1.8270824706793052
Ni 7.748010138887436 7.027182842230816 0.31674238191384607 2.2622406522856777 -0.5490181995523383 0.03589465701408012
Ni 7.7302897785292375 3.9096133907054234 8.178047771584263 0.021652031052136905 -0.16999388482505562 1.4895061386841637
Ni 3.0404641411937874 8.644011713604439 12.393673485508108 2.08888710695977 -1.7981629594314776 0.9680583925509263
Ni -0.013646308183820559 4.926214882134249 10.269611076216696 -0.08856833325871198 -0.7358952332859778 -0.8066015986626044
Ni 8.781924313672352 2.182621133873885 5.730720148345313 0.20685373396588244 0.8156526531212792 0.10964340876145634
Ni 3.260881506998975 3.0205513845131544 11.710519167641635 1.2651131102829374 -1.1563906706738536 -0.2652409156555238
Ni 1.1779238109065477 3.3770241551544418 12.784377535092876 -1.4491038236077174 0.7178617728230346 0.4992598971822886
Ni 3.2845539515879167 8.382799469121865 8.10192541580218 -0.4649865778217153 -0.9069347857667283 0.51771784677716
Ni 5.4101456026116725 8.043159228923079 3.4822836392514716 0.044164096111723936 0.20310995065273407 0.966596206183103
Ni 2.8644926281070644 8.372933685670906 3.573734650312732 0.8372373212705903 -0.31628219850305533 -0.22515458915759934
Ni 3.3251132835529735 4.131117895182893 9.270523388798335 0.16482416769865804 -0.6411781068170506 1.0217800504440984
Ni 7.208807476413405 6.1738605198898195 11.455141234033643 0.01494865089003232 -0.5967522724035078 -1.211906701463287
Ni 0.29103427016105604 8.837250612602574 0.27060602855998256 0.732194644505939 0.4311966258554638 1.352901370842515
Ni 4.535488183827141 0.5089077314731038 1.456195979003906 0.5480386092478885 -1.1945880076791815 0.4696965817028749
Ni 5.748580930782014 5.496926447126588 0.2507648418419414 0.3996077953055892 0.22201398664608862 0.5952520337088975
Ni 7.883875294455885 8.919864092207074 11.631081038909093 -0.3574234486280554 0.1986046065832128 -0.6060846055480271
Ni 0.374801928655963 4.956527932113047 5.807107947153211 -0.7910235417186893 -1.0685826126199338 0.25933483458373396
Ni 8.061405039639546 8.7801848917967 2.7015522839054293 -0.8897608450906032 -0.33734596115189 -0.7636466923676333
P 8.464642892166834 1.6085394389974716 3.5626757321689424 -0.1874763578805352 0.16975991443737862 0.49724235253162746
P 1.721946121494362 3.398477024954141 1.7931319617553916 1.1413890550586987 -0.36407926338167623 -2.61898892922358
P 4.813587315685828 0.8539111891218155 8.087141235808037 0.41729338551081036 1.4601387412656401 1.2355572510026913
P 8.541974689721831 1.7286682622846397 12.682544349711323 -0.09042544107210879 -0.5835167475498403 -0.15136315709774578
P 6.310495732017803 7.915900587843528 1.4594311225028387 -1.0973026062624456 0.9770366847901367 0.4820401908698923
P 1.8346642828321404 3.057468801926066 6.010123846610738 -0.14650840010860575 0.7372538041964013 -0.11618815185850956
P 7.234762912214139 3.896096633213383 6.114595155170363 -1.1542265731429993 0.19827267716509078 -1.6746700463814386
P 2.451742312197309 8.701684420169002 10.324134704427214 -0.13260773086711355 -0.7587448841906417 -1.3085557548476043
