# total energy = -340889.4395548951 ev
CRYSTAL
PRIMVEC
9.08754722606067 0.00000000000000 0.00000000000000
0.00000000000000 9.08754722606067 0.00000000000000
0.00000000000000 0.00000000000000 13.30054394869039
PRIMCOORD
 96 1
Ni 6.317308238951594 1.6465181101445645 11.42345093665897 -0.4811801568624423 0.8685780403654009 0.13375675686989222
Ni 4.710130119638537 0.03303141572519352 5.8129893673440645 0.5759103959574919 0.13380689338153728 0.30104661250022346
Ni 3.0589682729924936 1.7418919155907804 4.9015965554962655 0.01246599367749466 0.36182389168859624 -0.09111732493281081
Ni 3.6972593970450256 4.43076983824529 4.923302161433216 -1.1655443121486635 0.38277298313643754 0.1179796965412936
Ni 5.406481581280004 4.907911491885459 2.7283405953701063 -0.4955302549365273 -0.03744451799970326 0.009785618631854115
Ni 7.838345500539574 6.329621865095436 2.138594238474615 -1.3550171316339372 -0.10827481054870385 0.0539366021174555
Ni 4.950413949062395 4.476462024408565 11.569225186353425 0.2597474966411204 0.40642353267584197 -0.8529601313224859
Ni 5.442050240119117 7.756221338575072 12.129563332500512 1.0827843580416128 0.33475531760657834 0.9739832426757936
Ni 1.5903934200601595 6.428785177627985 0.4670190350707034 0.5266390605261898 0.9242997594077372 0.8864351231514799
Ni 2.516750695502839 1.480752165871632 0.4290685301708518 1.1844295790889408 -1.1250311825259656 0.28707549503211205
Ni 0.4164604675051939 0.24454952397140084 5.133464407671555 0.5773710396634185 -0.13130289601276096 -1.2652930875042272
Ni 8.626026809225774 2.2413798472292576 1.2973681942886872 -0.08820477927170615 -0.9156582816826554 -0.3857827164970388
Ni 7.0713656238501805 1.0149245082086464 4.807880318617309 -0.20750113774189424 -1.5988605554502917 0.12385029638945767
Ni 0.9348177816714006 7.717999116020827 2.7103981426332786 0.6532754043012168 -1.2724052730689766 -0.11186201367932992
Ni 7.651132945418326 4.019167573350058 3.7455524391510076 0.8462307830184522 0.018269744843465312 0.054732872766505736
Ni 7.403097438429377 3.6661254611270895 12.484808266108915 1.4978475686703236 0.26841982760413774 1.0702988239800921
Ni 8.098167555948127 9.131258070549054 6.941487311314994 -1.12429173325678 -0.2114794056633519 0.38977949636125775
Ni 6.769895340679835 0.5292405604170298 0.22282665169520885 -0.45873931136042284 -0.3730994646024155 0.9723932724808544
Ni 1.6826501968957939 6.603266079444789 9.14275381746563 0.7624837824077836 -0.2975190589629392 0.012118123419772678
Ni 0.052929508569884764 4.475453306694936 1.6716651701189111 1.0631092482101885 0.03454585629566954 -1.074112027078595
Ni 6.181722038164786 1.9173451849333334 6.8236445459863795 0.026479791458083428 0.4512373465564229 0.6941544019037659
Ni 3.21541948162156 4.507286983729533 0.6211856343916063 0.6989983602596285 -0.3055082478160029 -0.26034887767054515
Ni 6.174888202843628 5.724473024841126 4.949198944032556 -0.4512183203930293 1.3390477527888747 -0.32488305279818885
Ni 5.260326563367522 2.96402158225385 9.350946792275652 0.1475332418286943 0.42872990948252615 0.11727675693699802
P -0.02860668910568303 5.442431917091841 12.71692875208996 0.030494311934115226 -0.5488027411074227 -0.46304745181747353
P 3.921449180785678 6.203441275422191 12.770038194089844 -0.32611589676402547 0.3063083751197951 -0.8051232143448649
P 2.504046304839303 8.448283478046875 1.267989972445283 -0.8939332313007379 0.38150748616045266 0.8447657684371516
P 6.674357959388166 7.967025165629465 5.789886096683186 -1.6043994829906498 0.31563479472704353 -0.24377040448657375
P 4.648825527781446 1.1391149250955437 12.833840952608886 0.5980105702906411 -0.34990734275666835 -0.10557669489125043
P 4.179690003021516 6.245480267703677 8.207526187425898 -0.7744751504417049 0.045944070830282166 0.485608624947441
P 5.0659711963281495 1.1507378976696943 3.912501582039385 -1.459774673058002 0.10929425295215371 0.11001570449921054
P 9.169516643291177 5.6125962340980715 3.531999629138301 2.4169153902551606 -0.31892066456716683 0.6994606446080276
Ni 1.5643121602573353 0.9095725761897819 2.9172879632078557 0.9164357832786281 1.4875454154133672 -1.1789243329999957
Ni 1.7004163512214112 6.43303814960977 4.826355301606558 1.4193996116750653 0.5401684624711922 -1.0324760967053639
Ni 6.20028789662373 5.542585772244079 8.984171579072186 -0.7765088930422821 0.8655508235033028 1.0247846415983772
Ni 8.732905449135535 2.341033887298167 10.332367332316682 -0.04462740890138766 0.6357137412683697 -0.38237574769801885
Ni 2.333818375004285 5.260644627511459 7.216701853780698 0.2898571715423072 -0.35582473668236786 -0.7795934455048766
Ni 0.6172180113846679 -0.24280562370792974 8.757503621272917 -0.5905163187961249 -0.08123040483640204 1.0266746595322385
Ni 1.1693310187695476 0.6196289375957096 11.661929979254662 1.2181364844230826 1.9072386686149216 -0.5396964079307801
Ni 4.178708547948797 6.971702496234301 1.643907257900191 -0.18583265162952511 0.4251907859810161 -0.6640280148320306
Ni 5.659933266262849 8.214288231125996 8.041069589583275 -0.2920114988811487 -1.7849901694949455 -1.5910839968286663
Ni 5.62233808444951 3.208203969327678 4.773192243079553 -0.4921502827207008 -0.7289321717045834 -0.22308896487782223
Ni 0.6107349553765373 7.362839605353938 6.8150522703266 0.4270368380508194 -0.5813842745878697 0.28662195243446115
Ni 4.968071052824377 4.537166838165661 7.123012879542651 1.174950693064228 0.11058109008437729 -0.7292504742759505
Ni 8.288542577414804 6.881635818218347 9.61065343583769 0.08238457304550328 1.2130626694446012 -2.266527709696806
Ni 4.432560084998306 9.270479290123712 10.302853706023432 0.014915226548935604 -0.8431930246333931 0.10441584181392985
Ni 8.333916699434143 7.215039741439954 4.6269000032078305 -0.24075244359585635 0.7111100559214979 0.07191555519337937
Ni 7.409340583197509 6.380221326622309 7.020332686332856 0.2953055962513882 -1.1758696053340716 0.4097834502870104
Ni 2.747719789282832 5.3156697244125395 2.72919209852116 -0.9100247375459618 0.02686699959417308 0.7871254922158637
Ni 2.2299658882354083 5.160908799519823 11.781288547417809 0.16602435865434634 -0.23362920228751377 -0.5413753382950999
Ni 1.2328984098220754 3.582574554288356 3.815606521230454 -0.07388116356018244 -0.5510491139394381 -0.3705533011417941
Ni 4.1086889985478345 2.7890863030885655 2.64312394117184 -1.0577248439698237 0.5425140798852335 0.0613488354211266
Ni 1.1636513019135317 3.4921625494875554 8.383479271851781 -0.8638220137376542 -0.8101697756298369 0.07544902226793457
Ni 3.424333098906273 2.8737004529227455 7.360480478160623 0.24331814744050348 -0.4615119890095536 -0.1510703084476753
Ni 3.8296649563924636 6.767923342987427 6.0179371791312315 0.5235107993098533 0.3222612989046256 0.052685760429489914
Ni 0.7483931168724193 7.286531473449996 11.516302039066419 0.3576440492792937 -0.8128576068746453 -0.05131124867946647
P 0.20168810868916376 5.466859243346193 7.9286002907777995 -0.4650891648378506 0.5038925108582935 1.048969980595329
P 8.733432526859774 1.6056241487812513 8.186112291746674 -0.175651083110833 0.9755670422231457 0.42302386023668437
P 1.8275602208734367 3.1251074398374254 10.60272821594591 -0.27693300728147147 0.3135815117424406 0.0017660907614872807
P 4.2745276431965245 6.438054475537003 3.8691285378627582 -0.7769572934336103 -0.6120194829752234 0.3662636726275047
P 6.959643321405609 4.009180359230439 10.438239980776908 -0.6064990673776264 -0.11811596500884174 -0.821490857069611
P 6.0935001321836655 7.7221612125329155 10.080056134478525 1.6030218859168328 -0.42678949792670373 0.43482316686445754
P 2.2510944349397866 8.417949246262266 5.81902804230538 0.7152564739897037 0.35765253391972596 0.8552874939040818
P 6.893976707003097 3.9164146797645056 1.5639313920393079 0.7093421653877976 -0.11686820864466971 -1.0179339372251306
Ni 5.179910860233309 3.257994639174254 0.2597529900515837 0.30728899386550945 -1.9854883935564451 0.7016825919600109
Ni 1.6585045845975 1.0757747227172565 7.0972760377699755 -0.5109229353425137 1.4906667346511682 -1.1702221772403074
Ni 6.664806947523091 0.7723751533252601 9.27275299437551 2.2433510144700266 0.6841924055950475 -0.04203985067986953
Ni 2.6255740704641 1.4578333724142374 9.244303519832403 -0.2752335080918615 0.046861183327912836 0.719526047899335
Ni 6.617115501026498 2.069870573271522 2.7346182728167236 0.08761496820650717 -0.3946802760969848 -1.5746808728802946
Ni 3.683310012446651 6.72009558328629 10.56411613762667 0.65069041718286 0.585425791647095 -0.5678978100656606
Ni 8.079856148804332 7.312203793639187 -0.05685078508727802 -0.6367930903754775 0.32617811746052855 -0.005334524839035975
Ni 7.47188108144247 3.4643455682135325 8.322322807010295 0.9219937369823799 0.23143965083536272 -0.5904867511097701
Ni 3.213029456768549 8.512941374735759 12.363719429002751 -0.8608439049459367 -0.3052614219125194 0.6331495800856193
Ni 0.34512776756712116 4.951068252444209 10.345322539276582 -0.7789437277360197 -1.183786031967671 0.4017410395985081
Ni 8.659214530758845 2.4912419511591013 6.015010989007013 0.23992609103981907 0.156868146076375 0.17987797670798697
Ni 3.75484718219154 2.3228497058119473 11.250317718057763 -0.3734727887814342 0.6548409490161239 0.7995608897657391
Ni 1.3493825868787308 3.218745523812443 12.933821235614005 -2.030268011764981 0.8977361499865958 -1.236898081301302
Ni 3.1976715023898827 8.504589919070673 7.894870042690642 0.055134221969982466 -0.9949696151194736 0.39161732090094487
Ni 5.675073119514244 8.092660502484534 3.353319371866834 0.4387633824591282 0.055116995578801856 1.3253252609964594
Ni 3.1693637935795 8.563168246836877 3.9265863710876068 0.8811201386964697 -1.2924377662398192 -1.1071208779044481
Ni 3.377523144465734 4.438158013931595 9.640992211395783 -0.44199088825749044 0.20655754288170233 -0.983531548485861
Ni 7.140358280443575 6.061939081558157 11.333844997274374 -0.44766994092013873 -1.078991980878716 0.9642292486128232
Ni 0.42311164313226246 0.015362498152151327 0.5256509793640279 0.5781539405760301 -0.1348906133640193 0.2056417159356523
Ni 4.430188235239234 0.5869510274476344 1.7089604628822528 0.31251964613682953 -0.9567367968905198 -0.011994453357714827
Ni 5.885895121662579 5.609797269631427 0.24346265335383366 0.8088507997080973 0.6808098622760598 0.8234778055926527
Ni 8.155800778829489 8.896463119494848 11.126968808020251 -1.8262941704500548 -0.856517509656441 -0.4615094179063923
Ni 0.2660470250827461 4.90544876665669 5.696463387571349 -1.323525231673243 -0.899112204398516 0.8684438287803818
Ni 7.995614588395907 -0.29985815233793345 2.378323727533327 -0.7585438239234291 0.9921992514631879 0.2614009730841434
P 8.77546243159429 1.5403210362575248 3.5353774703469103 -1.5420921403109957 0.6895510988037995 0.10374966898484067
P 1.9779136854858852 3.1233353681783487 1.7651414957578695 -0.017194766611731676 -0.14813436574780295 0.8360114192832893
P 4.810084048757444 1.1535368621363389 8.303728777155744 -2.1177158582660045 -0.1772793627428753 -1.1293624629114678
P 8.366068440612676 1.5718002989603064 12.337264671019476 0.14153974324942076 -0.09433788875263753 1.8426415014598267
P 6.335428807609026 7.591036997308195 1.342197972244545 -0.3476031201035239 1.4267704502178395 -1.1590232232006943
P 1.7385931360408067 3.1607215364113865 5.963099285697726 0.7060958905363581 0.3574180493114167 0.446186928616709
P 7.129943951616384 4.122747433709845 6.017524604498811 -0.25290501979799024 -0.3071488687432194 1.317180777512454
P 2.1112461746242253 8.418449061345596 10.212728867706872 1.7666114098774415 0.5658913211585932 0.1739227875658166
