# total energy = -340888.0359004211 ev
CRYSTAL
PRIMVEC
9.07813069661393 0.00000000000000 0.00000000000000
0.00000000000000 9.07813069661393 0.00000000000000
0.00000000000000 0.00000000000000 13.28676190601214
PRIMCOORD
 96 1
Ni 6.5659487348887255 1.7189894558123506 11.260664129358117 0.3206114220060285 1.4001042537805628 -0.4165511080281471
Ni 4.899004202897623 0.46265331853551656 6.0162061842418595 -1.6184898996454449 -0.5606197883470088 -1.3295984344505165
Ni 2.5673135437809638 1.7442902063251389 4.800639932344621 0.8934112973589968 0.376321571084139 0.4810919680240101
Ni 3.8179349977252537 4.644734837589876 4.766852037355906 -1.012253856121218 -0.8848677786643601 -0.1023972687220043
Ni 3.7505117203451035 2.9291587589547086 2.695126362804878 -0.2228601366964678 0.04941865964244393 0.018509371658097153
Ni 4.986308586708704 4.922425780336801 2.2749459869852315 0.8959870285059731 -0.4664446504244806 1.40912394078067
Ni 5.375342803599636 4.6426922581620405 11.457281009455398 -1.6577992387680285 -0.19026420503831748 0.26087132583291844
Ni 5.634550672057348 8.075986854298906 12.408666392847955 0.6018538552961312 -0.4641334857928006 0.5431445143803808
Ni 1.778959587813599 6.561119169308244 0.30254051015943145 1.6619438570640215 -0.2734162523774646 0.5683328407205502
Ni 2.9363667948022703 1.9196252244105327 0.020501142763914508 -0.7257799992288467 -0.3565896398728504 0.8824252306611383
Ni 7.749991177616371 8.990036609189868 6.700793474022868 0.49561175890674 0.81547858943726 1.0358061895198614
Ni 8.672165859564723 2.3027949688108795 0.9989783918742015 0.6169310613442278 0.09978708479266686 1.1969457092780806
Ni 6.84456564697627 1.1945004493981628 4.781506863890816 1.717277853749636 -1.0927820926842728 -1.4673128904165762
Ni 0.6488403341677302 7.516020512755915 2.0780358832634214 0.511787597335654 0.13405629038818204 1.5469080736424006
Ni 7.90129638349963 3.9471894239186804 3.639868370085035 0.25284665575622906 -0.7098964952293709 0.35779934391023543
Ni 7.906734183843067 3.859875961976808 12.62403142865353 -1.8589986026616114 0.31249213533300374 -1.073351751873803
Ni 8.0703311788165 7.5285210988542675 8.973666923748656 0.48861784408741016 -0.7078763794755486 0.07388450599429211
Ni 6.770179443279898 0.9606387221071909 0.2984353794160218 0.7526562547944006 -0.45346854987978674 -1.219459059889248
Ni 1.7140872651855457 6.768636161045533 9.040844183784387 0.461426885494915 -0.09197093118235775 1.020049698016553
Ni 0.025043839411420517 4.869681840444695 1.4009425904498716 1.8236320502368593 0.37952439429215284 -0.07917197964547655
Ni 6.492370484832698 2.045330101464921 6.95608503685761 1.1445193731575642 1.1482248470336094 0.37839722266624515
Ni 3.6259960784242558 4.471170055008606 0.1900316040219395 -1.6603510586556052 0.6367897479413678 -0.3560887889770319
Ni 6.215369480025841 5.522136178480076 4.72177003985088 0.10687638753928046 1.3587711993597307 -0.8851320880693401
Ni 5.529044636011555 2.8825607136076896 9.08212607574056 -0.1176336260557845 -0.4503865685203534 0.09223524058733792
P 0.42813917308357186 5.484198669907078 12.345594263555634 -1.9215468577074777 1.1073916150673315 -0.21916880388780965
P 4.02176626836165 6.35901274352202 12.422219134304912 -0.34231770333486855 -0.5721810108220469 -0.49749226375890454
P 2.5738044072960853 8.920843096305594 1.262502911522739 -0.525075829804128 -0.24253910318263391 0.6754349711173916
P 6.307993648480086 7.911009983445336 5.628232293027244 0.824032135434226 -1.1291359487229586 -0.124088894762825
P 4.894383434325318 1.391051059140674 12.601125489043241 -0.4062733802512229 -1.16644908335112 -1.3785306413748453
P 4.105875150134517 6.005001955220372 7.8827969685749935 0.4991087163164049 -0.056615948721831524 0.5852905516208113
P 4.857226645000295 1.3850322584266521 3.815148011572607 -0.6661190930331045 -0.3808906785120602 0.13726245603030557
P 0.25566285838406866 5.8176384138377255 3.5423302094339584 -0.33661191119934286 -0.003373544457923223 -0.36902786563620316
Ni 0.6350279581701674 0.06096781857511112 4.239513405686618 0.14022642375463593 0.5902715497751705 0.0619684712829965
Ni 1.8286532757601377 6.826291369695235 4.5479792118129305 1.4118498243522652 0.5805363247652775 -0.2887513400726382
Ni 6.189215385218758 5.8380460518545 9.028832908935636 -0.1401408060193651 -0.9905581163153391 0.7620708632400811
Ni 8.64934343875771 2.2065213917789026 9.819647946160273 0.3518058453309619 0.7470607629844941 1.4676535615854467
Ni 2.2788922504398097 5.877145561168665 6.7253470943716085 0.5106907647270494 -0.49800982682527134 0.9260558228668955
Ni 0.699951118330647 0.16218262219629168 9.305941943498897 -0.11641106650259307 -1.1617131113280315 -1.2139910947961416
Ni 1.6429147197889686 0.8840447170025992 11.27759121202986 0.14990816981877408 1.8665126516504693 -0.37495322998170266
Ni 4.166380891852398 7.1300456259413405 1.1803122387858782 -0.1481963293339899 0.9037715575473984 0.9524296848747339
Ni 5.6449451318123325 7.754493930488399 7.804617014021323 -0.34616227389193927 1.1367842092968357 0.05163520767778849
Ni 5.670191413540379 3.1795426842841716 4.866210363230454 -0.86991964199496 -0.2040661439184163 -0.5142329735523531
Ni 0.6480786789944173 7.765950531545859 6.926362328836828 1.5651837320231368 0.4934633451051695 0.7632913659107435
Ni 5.495482786479521 4.45689923340613 6.934294799521461 0.2234034107944475 0.8353768710230838 0.61322841568166
Ni 1.2999701729207942 7.305852706827834 11.470355333419702 -1.187693337441877 1.346400850719836 -1.1616436915426769
Ni 4.713156709356968 0.2642652951210325 10.370344608353207 0.09966547161313803 0.18821555003940488 -0.26602793033319344
Ni 8.487353272934172 7.389099166175616 5.1050795874654 -1.1569102906227495 -0.9474877674884264 -2.6535422417184176
Ni 7.362681805575611 6.2773640351933455 6.816733005786044 0.4421212431877676 -1.1861974696226412 0.95981235049205
Ni 2.655180771701049 5.183576368783655 2.485023011605409 -1.3560314318310644 0.667861786755824 -0.3569362245789917
Ni 2.302958375165107 5.122226360902269 11.166593814668964 1.577053229767213 0.2569483366294284 0.40138417047972164
Ni 1.2630857275194816 3.728025190377333 3.8314369016497856 1.0700640822614669 -0.034458695898501944 -1.0130758378018812
Ni 1.6539537268300704 1.6098975581043575 2.611114617031467 0.6505474638470925 -0.6299655259306828 -1.960718642810933
Ni 1.0630491155534645 3.69520774757011 7.923321744423249 1.1282795142599342 -0.15649173657356277 0.08451936000031895
Ni 3.9283613806594326 2.7583537281337143 7.025973026747349 0.09518275325143608 -1.0153517783202513 -0.055242979633704864
Ni 4.448465649901867 6.652535946367368 5.875100258301592 0.10140816533585761 1.6991469484768802 -0.29176852963240724
Ni 0.7878410415777083 9.075489054319712 -0.011132511788242642 -0.4245603514858688 -0.5322232394821866 1.2014186574477697
P 0.24889329625368253 5.809949237058274 7.912878262761996 -1.230099827432546 -0.2666974455963923 -0.6255416858313743
P 8.82984391326283 1.560058620065173 7.7626442763120025 -1.8107266550291008 0.3328938389178073 0.3124569112196941
P 1.897774163598089 3.2983300256762904 10.052630910390736 -0.6925358924637364 -1.1712339063342732 0.257697298980311
P 4.21877986277447 6.423875988019284 3.6425654827428566 -0.5968618013981785 0.8722202651036784 -0.8861060219468353
P 6.960447986515467 3.896814876162863 10.336821794783573 1.2593368699207925 0.07242309095741721 0.13432959865422672
P 6.298915517689707 7.8090081058846295 10.361136660292525 1.2292457069623668 -0.8851346591725013 -1.1090450915103545
P 2.5593701793393815 8.74529020308123 5.554238264581016 -1.2708682675991596 -0.20400520877349382 1.546314920143092
P 7.153203937587599 4.081700087839736 1.5491430756028206 -1.8237616338361882 -0.34858168196670936 -0.7394500405167715
Ni 5.40195988307703 3.1371205791007273 0.36890981655481847 1.2013723775908665 0.3059507346700602 0.1984788796386259
Ni 1.6794632743510374 1.4099244930538732 7.150550399957571 0.6649415277852355 -1.2368350892738504 -2.6616972667253838
Ni 6.874405462884247 0.6003976126441061 9.023492244591655 0.12931209083497727 -0.07642784124143612 0.29964536127732266
Ni 2.817615765933313 1.4072282882091307 8.974211611596079 1.8094598725015352 0.6523397798608249 2.3721162316625986
Ni 6.326576582207994 2.1999669813482488 2.4238645522836997 2.3572076899818826 1.1360234198714112 1.0443484226629174
Ni 4.045387564678218 6.557796573438965 9.976073217809306 0.6454062859657852 0.3070611941254196 1.022534669221936
Ni 8.167793990982016 7.109120534469516 0.31235033829151576 -0.13832740695971016 0.24634922095734346 -0.7747456304942721
Ni 7.818612768260851 3.9720544241535305 8.366275519143642 -0.9002128936618626 0.23907891254817537 -1.835154706164478
Ni 3.3088788136547116 8.696386312513457 12.435041086233245 0.208700300256318 -0.6264104615895728 0.5255702529420433
Ni 0.15237824094268157 5.007251834442109 10.050319618291505 0.06783264337325737 -0.656654605186095 0.21947219406084134
Ni 0.08891665983945314 2.447110013985546 5.531757181491721 -1.094284645371728 -0.46781222019596846 0.36493004141774565
Ni 3.837779791633024 2.6386222611393966 11.061575274246616 -0.150287921755696 0.33226648974645356 0.12247398486722132
Ni 1.1101464580939544 3.5064734084381164 12.570339731906907 1.0863450788096776 -1.5104608865589602 -1.288626105803213
Ni 3.1739414775865074 8.274888699916126 7.864913050917946 0.19645850677448748 0.24339965141071626 -0.8928960482854753
Ni 5.847205885821992 8.146741805679126 3.565927902610471 -0.7017880071896236 -0.11156299438167239 -0.7390540906299337
Ni 3.2799195764334 8.837605715088603 3.5034404049410504 0.48217877333028575 -0.7961279528247902 -1.015535355085967
Ni 3.5630120070006015 4.1892759377057365 9.017459826681447 0.0024569461809248005 0.602097338765505 -0.3466752089726159
Ni 7.335029819188114 6.0007261556181035 11.273166531082627 0.6143679286027419 0.8328628463519785 0.755000329546545
Ni 7.882713449771722 0.043943599903912035 2.0679518955814675 1.3661083564510923 0.1872285035357872 1.5903152369834417
Ni 4.767543790922133 0.9194693989728189 1.5283759436067479 -2.2572061751855643 -2.3075054376607484 0.14176805721014296
Ni 5.992392431552536 5.59585967862875 0.3926827176555858 0.9201379147205637 1.2094608110259557 -1.705214751937515
Ni 8.110892267187916 8.889459998163252 11.295701175143588 0.17045925449724839 -1.2785818341933337 -0.24038220474063113
Ni 0.4355160621638345 4.921944639404911 5.69470599792672 -1.4155825519218201 0.4899159940735434 0.45600931402376943
Ni 7.303456080299173 6.05131857851289 2.569513174871473 -0.06606269595702817 1.5825741595854421 -0.1326601813716038
P 8.73927140236721 1.8676166131124472 3.23502095717034 -1.3203100671700552 -0.6540621618685704 1.6392644131886351
P 1.7961081768766263 3.3957928378418067 1.262663594437729 1.3588953836424211 0.4649125300506703 1.8753508187673895
P 4.914409790848897 0.8973033270219487 8.078178315071705 -0.7308841532246315 0.6019330452734988 1.0947096487242889
P 8.80145659828131 1.6015093652540466 12.216619443790552 -0.718512519033156 0.6390366349940156 -0.2826277436734036
P 6.298906439558916 7.916456861919564 1.3287560178440092 0.18891283321674562 -0.7491868081885614 -0.5510061765166445
P 2.3196893702117762 3.625051952822056 5.9723197765619265 -1.6195353101908239 -0.042619120222107246 -0.08273424307543815
P 7.426010845969301 4.104458961731218 5.872509359774018 -0.06728602684116798 -0.5672442356420618 0.8485072377574547
P 2.83116941520335 8.33306136202088 10.222834968953405 -2.122387038489429 1.086829988865896 -0.7528660568123615
