# total energy = -340874.23212308343 ev
CRYSTAL
PRIMVEC
9.19549288103940 0.00000000000000 0.00000000000000
0.00000000000000 9.19549288103940 0.00000000000000
0.00000000000000 0.00000000000000 13.45853332606448
PRIMCOORD
 96 1
Ni 1.0718450282570637 2.28507075785292 4.9719992625433935 -0.7907551185486511 -1.1890426523809199 1.073419628997261
Ni 2.1198737302398203 8.7433319995162 13.329586777202918 -1.3384227176103658 0.22280228687533887 0.11764391046842965
Ni 7.9575587513339245 4.225365709787357 8.84002260599278 -0.15458603491041764 1.1672733790246286 -1.703431177674531
Ni 4.505929389692911 6.142460433463075 7.556414574735323 -1.1654797774593153 1.0197090268476825 -0.06728474128958735
Ni 2.3749383086941576 1.0584288043056298 3.045073637547265 0.8891121557630107 0.10578932512268877 -0.9841303584121244
Ni 6.244052237586066 8.21194286332328 12.782430129557275 -0.07750436213506653 2.95097671138735 -0.015872705366198468
Ni 5.689131835394709 6.723358102729691 5.266404917715635 0.14619369708166435 0.2053864053917366 0.6112196127817474
Ni 1.969619378377975 4.466269229375889 5.0055241900842695 0.4827703841676976 0.09293432353689156 -0.4306901185326905
Ni 2.5975703841486943 6.0063671404670345 3.089513615006134 0.7925908862058092 0.2350119415676533 -0.973502703494949
Ni 2.721571604152182 0.4423850421227867 5.558038131817717 -0.152893220589027 1.807084430290823 -0.839483951212922
Ni 8.948290337866792 8.632958499797859 7.794065648531105 -1.2489897223585134 0.24061051870135336 0.6059331675718274
Ni 7.530014314992644 6.745215789043988 11.282732615951137 0.42360492955113505 -0.8047822860656785 0.8082098236899887
Ni 1.5774683937084366 5.413708435947585 9.107214200312198 -0.20184599633864592 0.6937944474611858 -0.629350003833871
Ni 1.218448769489218 0.5406866989326703 11.413805169894756 -0.001847594731700044 1.1212202934203077 -0.7660920685843323
Ni 7.134801231230695 1.466340863582953 1.0621915999471148 -0.7145987858010467 0.1370642239765704 -0.1991774483675473
Ni 3.074273924838409 1.764605867070763 10.012718281655573 -0.5242435637108198 -1.350075985578578 -0.2319317599804328
Ni 1.2858425360005685 1.8164868372791187 0.3288648447785484 -3.1583570072806637 -2.607848339225728 1.371344408039051
Ni 0.6807147432849956 5.369717198535892 1.9516752937865915 -1.5047093287871636 0.4708859740252858 0.19763684335330478
Ni 5.103618028757552 1.506129760798755 2.238234434978188 -2.21452174894316 -1.7582740936563395 -1.5229379359800481
Ni 3.7922028273636053 3.7902166009252847 8.378919218787376 -0.13155306435035408 -0.31937060762039193 0.6628787317189357
Ni 8.022359388884134 7.7002044951798565 5.338569305876062 -0.2175284400709092 -0.7451308929516328 -0.5183472528310428
Ni 2.310339971984888 2.826391026237444 12.179609485977695 0.2192559642849772 0.5168344157309421 -0.8244555961248898
Ni 3.822924968708185 7.353368898880891 12.686431024136999 -0.3750321628487541 -0.29223904151092245 -0.593195922510817
Ni 0.6549526507405558 6.51810550861046 4.284874341248429 0.6192483966234948 0.1728393246936507 0.8282675136718122
P 5.799422575678122 3.9632665793639674 0.3777848663149631 0.5072192612386813 -0.8635373926176998 -0.2974198143809136
P 3.337393754959268 1.5001894724693332 0.758274127053584 0.10099576038878735 -0.41757980640297754 -0.4477229056452611
P 7.97570145856914 6.22564286106052 3.491641709331126 -0.7844595153479265 1.5072745184111782 -0.16396876167689828
P 3.038466675992018 3.8326905820299277 10.496040738041135 -0.3754129432269405 2.233422699612721 -0.5205817985885164
P 5.555447761504409 8.520847051945985 1.6396933737337682 0.6739414172910007 1.7792236993248132 -1.9098473098823625
P 5.949410258249637 3.717149215374843 8.860156137412702 -0.9960726183756653 -1.1323984215243141 0.4006074402146972
P 9.088392865710556 7.8462289203675 12.721597347137319 0.23711484684326906 -1.5303190589354678 0.24051718765659863
P 2.1240300929718616 8.214214150037472 3.8689107085016916 1.2561684994951399 -0.7114173027492715 0.31089676582142584
Ni 4.2767409278933615 5.13112174763263 1.380778642456631 -0.2943324337048415 0.6024688631723109 4.3301341877129165
Ni 8.991012597276226 4.674234493862272 10.64439438154742 1.022007850184188 1.2714395667215974 2.474691420723364
Ni 8.411963222056382 2.2814661246870793 7.767215729191975 -0.25104894042585796 -0.9237480006693253 -0.5827433597189254
Ni 8.790274990107065 3.3622031944527357 1.1884493938763612 -0.049024766638134924 -0.45341070005865786 -0.673488388913982
Ni 5.081033898514424 8.524387316662436 10.447078417237979 -0.04633616406237826 -1.0897929281489618 0.12873693505779762
Ni 5.788544307731208 6.212226637109087 0.019879735819469006 1.4445432008202284 -1.5913745314858916 1.124122040448135
Ni 2.05221329443814 8.452331435316694 8.877719528603407 0.3758795984507139 -0.2117653123348869 0.21923822367316434
Ni 5.916931777785988 6.0579354639212095 9.384918081966282 1.215067615689772 -0.7755596417551353 0.47640047608561176
Ni 7.029292147187683 2.61666942263199 5.356711093562 1.171373517235931 -0.0752261076238511 0.7033975177685886
Ni 3.657001497166255 3.217493724731202 3.625056355283265 1.0970971751198588 1.17046771759221 -0.3752121400700441
Ni 7.11865394592657 5.16502552947563 1.8047221238291773 0.4982281134836646 -1.0307146339295667 -0.09294126551542703
Ni 0.7503954288482457 7.531366052429835 10.691754847510042 -1.0206042849684422 -0.4905677687249293 -0.9512796304306909
Ni 6.859865192900382 4.284272036471994 11.950141481197937 -0.4569511091117485 -0.07378089053689228 -0.35246096241645747
Ni 8.004621283330797 7.527614291379674 1.2707720428998108 -1.3870708176353725 -0.7904008205330258 -2.0287682872910024
Ni 8.116778708646521 2.056240920271401 10.816300440685515 0.8401403538499983 1.6460223007377586 -1.2356636946735686
Ni 4.349302561341454 8.432322043049167 6.3437203446215715 1.9482734750690447 -0.8374172984918803 0.6091102797482284
Ni 8.594475362555396 5.305468290551883 13.288565683955934 0.2099406004213223 1.1637347697437508 -0.7296729065253498
Ni 0.17652771380429733 0.22924363475616927 3.9365398796279543 0.27870732557307487 0.16156375177983143 1.122476534424912
Ni 1.1016292293391028 8.223584357170104 5.931605945148357 -0.2218358091970115 -0.6414254469411663 0.35509428627424655
Ni 1.5679602541842537 5.919423756326658 12.075332597965863 0.6058017842002857 -0.6892291966880065 0.2881628145590199
Ni 3.9368111466646694 0.635758898681729 8.232881000360578 0.03822459069883739 -0.07798695819843988 -0.4927917729594417
Ni 1.5056791816530248 1.141528472468145 7.558231604106675 0.45845597579204916 0.8764525580174712 -0.8626814723753079
Ni 7.750044065993271 8.794550894245116 10.077655012498779 0.7939545993225553 0.0055049889786292295 -0.18543027398478387
Ni 4.991019219788868 2.8235955964353625 11.002296753395084 0.6500327289942031 0.572345304314053 -0.3808955636080666
P 6.167306654927622 8.901439302203629 7.6645131095423675 -1.2402947656876766 1.4631549023841446 0.11548906890895594
P 2.969987841333807 8.27739638086016 10.833405896336274 -0.9741357090932578 0.6803797167171767 0.9141675560697416
P 3.236932996446988 2.438387208807177 6.578786565399707 0.4416946971733103 -0.8743491385212232 -0.3283417007707507
P 8.87638158440537 0.5884922267453607 1.8624725770726256 0.5502245611556137 0.05211780374116185 -0.93737818985825
P 4.480816498938034 5.439152364442183 3.9210896126757957 -0.3794683442432368 -1.435818676463037 0.6622094735660531
P 8.291722958595825 6.575614120394056 9.23368441012443 0.5097988490403994 -0.07738172051427318 -0.1726215522558898
P 6.339427888596535 1.142199743440355 11.512227287659925 -1.6310091151583783 -1.3996759079938927 1.1914672026620126
P 8.521122916729084 4.166174322826849 6.495182064684119 -0.13940135675017926 0.12793012288578612 -0.8969169965194103
Ni 5.613563275810826 6.793363389187721 2.7378025684405136 1.6753845559499598 -2.25469472161762 -0.175591176407175
Ni 5.655549895798658 1.9208648757114202 7.198216108020465 -0.5619719314995288 0.9722616319989966 -0.6817879099186128
Ni 6.334876119675384 4.5956222261715185 6.789129784316414 1.2198573237689312 0.17856285744098926 1.18298847576704
Ni 8.146783601555041 0.5280291031347615 12.58745625725635 0.7968825716026275 0.4324922047384358 0.4009144299321547
Ni 3.4468017279367613 7.923746924418624 1.6153069269077212 -0.335388580315203 -0.3639951883083022 0.5446594083630103
Ni 4.60143377760216 8.495301973030916 3.7498033297504 -1.4272820997469355 0.9238161349030993 0.7872530189326635
Ni 8.993182733569947 4.264547704480338 4.04855569435502 -0.08514670917167272 -0.01247473542824303 0.5027632823498567
Ni 3.9271742702417063 0.844194052848659 12.108184415435975 0.35019839163452593 -0.6245530966658599 0.7076555217139942
Ni 3.5727156104364095 6.218902564860109 10.107062198377246 -0.344932001029264 0.06419144707624429 0.1933986369022411
Ni 1.4146989761866176 3.5735707912640198 7.07986092057776 -0.3649130721368812 0.865702775700135 0.7633512726144015
Ni 6.5732049012883165 0.278093770547532 5.343414411016576 -0.2510815934360063 -0.454378720398882 1.0568085028031413
Ni 7.235749350859786 8.669823230312799 3.1266192674316495 -0.6757039085080621 0.06432488733031502 0.4945992584818256
Ni 6.087830010916489 1.1244616378870198 9.389655599841387 0.012658055083642716 1.5116919307525836 -1.1045616018177042
Ni 6.672847260944065 4.710014156230353 4.396081872161012 -1.178497529875222 0.3631935183426132 -0.9674032754654306
Ni 4.186422797906395 4.382516681226704 6.10737503079913 -0.8053386727897808 -0.8748993545977385 -1.8820182034852364
Ni 3.093612046133724 6.450215185489529 5.389671417846798 -0.14956364199516178 1.7265636499269361 0.7318933112154363
Ni -0.022689878409981854 6.329239282607372 7.017050187662979 0.36377638742927676 -2.0053337104171467 0.12762364738896084
Ni 0.811386373743843 7.87759474620598 2.1364752728867833 1.8554833904195014 0.34622603725033924 -0.3178670264916719
Ni 3.878061143357122 4.756552545139337 12.787423282131385 -0.4836080495776446 -0.9519190637869026 -3.8329823380125667
Ni 6.948003991100859 7.002174639008945 7.453873795758468 -0.08637981024782543 -0.27954910474807987 -0.29615791694935445
Ni 8.116705144704362 2.281181064411209 3.141315503976668 -0.5755039045476927 -0.6297413257350186 0.5175293849154378
Ni 4.66541601629584 1.353456994338399 4.706503317090766 0.2164084675338531 1.7824458058065367 1.0441769300820596
Ni 2.129170373430293 3.777618775830381 1.0203024521826443 1.204596798065435 0.3149375115497028 0.7547226504051261
Ni 1.1279375341540807 3.0652807329093457 9.40425804236015 -0.288211151298452 -0.6088302866139643 0.7814425828984736
P -0.16233447071379806 3.333366129126007 12.349778516531535 0.6410477518867734 -0.16397570365543374 0.9151672009788497
P 2.072774416271866 6.877483757047708 7.400578558762086 1.3838525678083908 -0.7013565760791598 0.12385518148546411
P 5.32648918702411 6.416109102805588 11.422041572768848 0.7228075468640842 -0.4537493143449992 -0.17689112616552116
P 8.632756198956919 0.9486897935884165 5.992869076629947 0.140964330361925 -0.7075763317366266 -0.693622954880328
P 5.954265478432198 2.830896817694745 3.4438371010677122 1.167206530342435 0.9795242270986807 1.5291227246345214
P 0.2965941824515006 0.9576370080536293 9.354918706353423 -0.012185743432914498 -0.25423607990458796 0.922240048665231
P 2.320399841075271 6.008445321833055 0.6458592279403 0.5713693135540289 0.7465773955901723 0.4370073189999699
P 1.5909949635731107 3.2042062376785476 3.149162017957311 -0.9741213109155545 0.8566728042873827 -1.4150511048983823
