# total energy = -340885.3841188179 ev
CRYSTAL
PRIMVEC
9.11243315883167 0.00000000000000 0.00000000000000

0.00000000000000 9.11243315883167 0.00000000000000

0.00000000000000 0.00000000000000 13.33696702681045

PRIMCOORD
 96 1
Ni 5.2183350602864005 3.3276327629087477 9.704484297265425 -0.08794098408735822 0.44055544136254454 0.44813016838600883
Ni 4.3866341774125885 0.7981744189557073 6.834501617737143 -0.008796001025075174 -1.1173541255966821 -1.4464039081780509
Ni 3.8715083334001794 2.581588751319504 2.957031930592882 -0.9373324242219793 1.5625308677813219 0.17455630738475744
Ni 4.9387929496059 4.893084985099156 3.2941637073192696 0.6525308128257086 -1.0147946202652007 -0.4385342971674576
Ni 5.008904009995631 4.8270471823120005 11.6425985841424 -0.08038888277171317 1.1027487169786814 1.3356029887733836
Ni 5.8967192559939505 6.01312147660981 5.604260271372399 -0.3080340995616501 -0.5122845915767307 -0.2399515449611158
Ni 3.2850230256612325 2.8666712213341548 7.89884565177653 -0.10777138854972408 1.1362463345154947 -1.443477221449559
Ni 5.18378071391288 8.122367257393611 12.808956306908462 2.3436348363934543 0.05163957855316268 1.062342288137177
Ni 2.1288466244149835 5.544514603651414 11.92447530018706 -0.8767708605888385 0.07927713776477315 0.6047170357765391
Ni 8.43017613559802 7.0856639667231045 10.273292396003848 -1.4851080096164682 -0.5134482728675286 -0.25029535008928505
Ni 8.142460172413024 8.909043608244334 7.447402046590952 -1.1808218071330243 0.4186193034110855 0.13131909396267707
Ni 8.935551676176972 2.7672181263129016 2.130086826561987 -1.1937680828810473 0.10693937956673194 -0.32250658214621236
Ni 1.3977287782687315 1.1391634886198354 3.29251071195214 0.23275862675710235 0.4129335658802179 -0.7928500534044668
Ni 1.7546627833981507 6.959511442673789 0.8448647037522893 0.3726091552295583 -0.8238012503703426 -0.7439157895976092
Ni 7.476204625182043 4.207283268835687 4.401052780331054 0.41458524255102797 0.061603631744410046 -1.2301162824927783
Ni 7.528910938321399 4.159616131209137 13.5990379740144 1.0583642773260353 0.48370523727714115 -1.8986853797282717
Ni 4.60945139194985 0.6897929619680054 10.90353105134629 -1.1324729835159915 -0.48371655013105086 -0.7458562011534317
Ni 0.4837945652317994 0.6348130967663626 0.9671435324842568 -0.39719764320219986 0.5423590423646079 -0.41028790072725463
Ni 2.993069781077585 4.567707335848296 9.948189942233073 0.702744457565622 0.12808284641356651 -1.1914731161992835
Ni 0.26283902078000937 5.355222030545632 1.9384478019289957 -0.7447084607022336 -0.8807707257768509 -0.6800608999251772
Ni 6.482238645822667 2.101563999667537 7.403417243186326 0.3670465735401162 0.3592353050258135 -0.011666894814967002
Ni 3.3999308072461694 4.448899432889977 0.8471829067368419 0.40832280658108383 1.0838012293419013 -0.1754173698334721
Ni 0.40012693809631844 -0.16706370376412352 5.144428671504114 0.03173229810627438 0.9141521294507741 -0.011042630967406788
Ni 6.94631663952272 0.8564721210546599 0.8553139308056951 -0.7735878627407451 1.2663675515153285 -0.8104718802512881
P 0.0558619487272116 6.144768797827699 12.862744265858613 0.33027337057582473 -0.8655698496666964 0.3340480071269086
P 3.838967834745159 6.282621685997161 13.026335221362466 0.2721031899929959 0.745607061257103 0.6188958983800825
P 2.2336578301080796 8.878781217868157 1.7337260570722546 0.8835714284504397 -0.520175307178717 0.6564599726767856
P 6.144340513471276 8.218776799754329 6.644049943139086 -0.394140858653747 -1.5287547997721413 0.22377879185599528
P 4.729079413888554 1.506385430736518 12.887964746992049 -1.1597269341359382 -0.7699759770197707 1.8763931439889752
P 3.868902177529181 6.405612195755441 8.85122522012725 0.5334882222375392 0.7822169991706528 0.23458950931825404
P 4.844743527422067 0.9967179341602214 4.135140135861227 -0.7144216367932342 -2.6751708757317862 -1.0528837138274383
P 0.18050545385261998 5.667386651779192 4.2542523940856 -1.0421107915816503 0.08239897122320648 -1.4759692805399935
Ni 2.7229499262383876 1.8303233155551477 5.135599635058623 0.22026357961388518 0.11420274599736462 1.0768713349912873
Ni 1.681599294679037 6.670410389655256 5.239920591850112 1.4398069716868236 -0.5726764624012266 1.279071115124926
Ni 6.693410170838474 0.9399930380169832 9.765927611275808 1.345273164873296 0.6352673977595704 -0.9551267720909227
Ni 8.53067716042754 2.522722433394151 10.433655727698232 -0.1734643598721593 -0.5083515750709116 0.20459090607363475
Ni 3.754759840325936 4.407565436278615 5.457726879417226 -1.8563477953023257 0.14240311969098057 -0.28236626248190083
Ni 1.5637208598984864 6.691141174992745 9.782371908075822 1.8596529484161586 0.9420838228640356 0.04896871658921889
Ni 1.2610969561367296 1.3252484852690023 12.157939481576332 1.1287579965582497 1.100704175744827 -1.3980581698848114
Ni 3.704450097095925 7.163757518521908 2.474901295647951 1.0806418577773131 0.4935019116525888 -1.6420764287161334
Ni 5.497184626050132 8.183493458731578 8.86952298582293 -0.7667191606453699 -0.17058755254499652 -0.558215035560258
Ni 6.972642458793052 0.6470848104428443 5.4371746977688 -1.0422450031666695 0.14375603417444918 -0.9526171182951916
Ni 8.22582982298563 7.1395913458999205 5.534880939361834 -1.9976779936441018 -0.5080435569121896 -1.4311732072712255
Ni 4.681448725994464 4.812813561785777 7.494868710688964 1.5413218378038747 0.051152611614415124 1.0502246789380365
Ni 0.6608719217464135 7.370017442088526 7.215219073297703 1.3405752451769946 0.8835418607640849 0.8567239692402923
Ni 6.430243102466311 1.9768694649166825 11.917366691113752 1.7871367835243028 2.3160767242695273 -0.10253893650619116
Ni 0.8929747056282475 7.573097126497874 3.1300123371788215 0.611212927913528 -0.10864299252139999 -0.5114417839604611
Ni 7.167575627997252 6.28619375977839 7.534372930730758 0.14111396856591182 0.6869774245393524 0.9770325710250787
Ni 2.2970803645911215 5.4765723023431425 3.1729574119649824 0.5952116673892652 -1.0998839938363767 -0.14768827934931983
Ni 1.2067139553041442 1.4329118825272122 7.474383049802279 1.495374681649799 0.1282121729025792 -0.7132561557302232
Ni 1.066637633454529 3.677349721010786 4.22693787582225 -0.23858346096899558 -1.1179773610029777 0.3603169681257665
Ni 0.8454041597927199 8.033511922085545 11.913859315607642 0.6528504009486562 -1.2631737271683794 0.1752888146754078
Ni 2.284177159299744 5.533607021212304 7.733093227137711 -0.45935663322944764 -0.38064925192521537 -1.4841590154396376
Ni 6.654427181970879 2.077826111401973 2.9423882505764674 -0.22563589966939207 -0.02454709321174482 0.8817089213204041
Ni 3.8043952635054086 7.324974685199204 6.6635888222250825 0.7029149217052152 -0.15738750891495476 0.1367389794266677
Ni 8.177953099397428 7.965432934280544 0.45224823302966677 0.7297304992361626 -1.799737760117765 -0.08741982147656557
P 9.146695863893433 5.893256531410107 8.515279882192484 -0.8845954988395798 -1.7386306083937992 0.4763176865638184
P 8.505854892621247 1.738032592962583 8.334057279853685 -1.940436752633445 0.6788265132974438 1.54243255436955
P 1.4456419515893977 3.3154767771328313 10.90268997376974 0.6540055975990221 0.2513438459584575 0.3264452550789862
P 4.023813540490634 6.351985526871431 4.501826266910725 -1.3735370448149957 0.8716088567719246 0.38309205703875315
P 6.9187333044824655 4.2301737008215206 10.874015880485576 0.029742521369755224 -0.16927886103590203 0.4304957431336973
P 6.7299236903318 8.177105643117697 10.887219796069761 -1.6777545988440332 -0.16905723194339917 0.18195157140756407
P 2.1210737189675646 8.970734780435453 6.327363732593676 1.5837229284779049 -0.5053544401158007 -0.850988866528728
P 6.868295987188839 4.3462478738452255 2.1959451144167694 0.5633778107081201 -0.03501971060829453 2.2717344507087263
Ni 2.939935183581807 2.0778169989688577 0.571857118858828 -0.7181433086191955 -0.8016625094897741 0.16551348045619882
Ni 0.9407038077999829 3.662724265860602 8.499408757435427 -1.1185689718403897 -0.034619389846082316 0.6408978565724704
Ni 0.1197082113501188 9.063654260912978 9.65232290762637 1.178203909894203 1.595968064393845 -0.3673322231013351
Ni 2.393945528607607 1.7769517947983693 9.670274400863669 -0.16071683039850387 -0.3726410369087582 1.4432231964572242
Ni 5.4884549151255975 3.1485916770577687 1.0751705158237703 -1.161036139865665 -0.9899950447230176 -0.9194750843255841
Ni 3.852682046583805 7.356175656186263 11.038540860383755 0.13334358059187357 -1.3474172077994924 -1.813534556791541
Ni 7.08618337541068 6.244331242046337 12.172049173012184 -0.40414296417178136 -0.20000200115137168 -0.06768300516927053
Ni 7.377708335637905 4.173703952805513 8.710359761569842 0.9149548278577275 -0.6434350211720272 -1.0895126779043816
Ni 2.9376388504367315 8.690682373500492 12.839938579500753 0.06596987913290574 1.0592348528564468 0.8053469003198968
Ni 9.005635399267357 4.872144613800014 10.603608984003243 0.443225789105856 0.14727844550541086 0.8022587483128764
Ni 8.633028009179483 2.420635845202554 6.144100856480342 -0.15678587077521383 0.8188673034038348 -0.817539585731347
Ni 3.539852217732823 3.1455572368303475 11.751655272423951 -0.9613642683602025 -1.5037942731720617 0.3654257501072416
Ni 1.176077955170238 3.614237009253667 -0.1552858839624954 -1.2805813811218656 0.7201719090134501 -0.7765880830196497
Ni 2.589443668664961 8.848136105301135 8.371627841588394 1.0689453952759913 -1.3671121151252585 0.5762754926063947
Ni 5.714261007724704 7.812972815827127 4.193409589417522 -0.532419928874025 1.7370753480915373 -0.60745783174647
Ni 3.0216554837605307 8.379110060419432 4.404693197360648 0.9094809492273497 1.8926553714841081 -0.18457641062492083
Ni 5.281475109342866 2.69348031754325 5.073182201948207 0.8933627035092484 1.6880156144504088 1.330515289837831
Ni 5.87593379605777 5.855932005369511 9.616166595511167 -0.05520852685134363 0.5875798618756204 0.39252440609624656
Ni 8.141676503165101 8.855608300455748 2.8151139860106484 -0.12442005284999864 2.397755529497258 0.22947455668919187
Ni 4.220578308751025 0.6022315921623227 1.838940943552362 1.7847132616844747 -1.6383318740720365 0.035496393134396925
Ni 5.577601848293357 5.688080987384219 1.072485081784668 0.07097298877445196 1.8389483688789556 -0.9741956157969157
Ni 8.24620522343162 0.35217093634001023 11.937212659195737 -1.7903313792022006 0.43713793104056325 -0.46235016864013284
Ni 9.071509178258436 4.908348310567416 6.390008065288664 -0.4027124023728419 0.14298393189511505 0.18366675432645788
Ni 7.568878069965454 6.724419780730111 2.9958426944745953 -0.5044026177254926 -2.591048236949254 0.16855458127536777
P 8.46305379427831 1.4688057565686925 4.1118268869788395 0.5393796480213098 1.6233212595958173 -0.7259934007912335
P 1.81321927859758 3.463389791461673 1.8587331482789666 0.6126843702527319 0.4376788911456978 3.0267152398712454
P 4.794242423096633 1.5912768576393945 8.694168790410435 -0.017632882590414792 -1.8632445224221585 1.1756909136643623
P 8.497662815250521 2.310913038060268 13.003155925246874 -0.45577225831229895 -1.5778101625378955 0.4954983732573273
P 6.418624750244202 8.06722792461245 1.664867044992577 -1.7943338154933743 -0.7523063276541495 0.5200380102699044
P 1.7510633723175757 3.6527097018667996 6.422016397849746 0.827361199807459 -1.1374113013578733 -0.6746800952292381
P 6.60774418712079 4.065311560898073 6.330430977580312 0.01501267135874834 0.12212302928570581 1.7349464746739927
P 2.329675537844835 8.854806406341593 10.50192789908528 -0.6640367565827789 0.40817162571520027 1.517009229200439
