# total energy = -381167.08007478795 ev
CRYSTAL
PRIMVEC
9.25477735075963 0.00000000000000 0.00000000000000
0.00000000000000 9.25477735075963 0.00000000000000
0.00000000000000 0.00000000000000 13.54530214006564
PRIMCOORD
 96 1
Ni 6.822224055169172 4.068594561752146 11.399767524261714 -1.095564026304784 0.2831957003617316 -0.5178314895368887
Ni 8.557022852328267 0.6680977640185672 10.057671150058056 0.8415012387532669 0.8876204017088326 0.3696300179965763
Ni 8.832259936695275 5.8148044996316335 1.6722078111038647 1.2346087710464932 -1.6338512125928635 -0.992818887325058
Ni 2.243172982813572 1.7242946246386988 12.488552307594457 -0.15274898170167886 0.10720266053044764 -1.0859570993426393
Ni 7.68279805530485 4.509149737512829 6.277800659998004 -0.7213034515147321 1.0203816274346749 -0.35355805213537816
Ni 6.23722031139234 6.470672075116543 5.040993113558911 -0.7980071721253741 1.6131764578523315 1.1016351721995286
Ni 5.0134795853775165 5.611893501825761 2.9687234803910476 -0.6859651812247541 -0.8204642155773095 0.9112591241736951
Ni 8.78415360298513 7.913223506769873 8.444669852859017 -0.6379799115947271 -0.6348362237594227 0.1551053977489974
Ni 2.790296922074124 8.983473747101211 -0.17221104971366605 -0.5338108956842806 0.17042557304583553 1.7053685039065598
Ni 6.853634770177297 6.535418498863402 10.809259964275295 0.6935440220132766 0.9278273129450214 -0.37814911121118094
Ni 9.093429759184751 3.2542389207062072 4.876417255324827 -0.14018065811836503 1.2424017847283506 2.023379255064947
Ni 5.4364229194586295 5.4787172528667405 9.506445493386895 -1.1324081917163271 -2.1708024536783386 -1.6697841790440469
Ni 1.042985665666066 6.148550287676122 13.323904262470371 -0.37765391674231735 -0.40204905775723015 0.30596513284776333
Ni 3.647067208636337 3.563126376248685 8.187268575788313 0.9302703751688753 -0.04154722731416716 0.3178289741648849
Ni 8.91401664158089 3.0010374616881506 2.678529750023853 -1.249608843999751 0.7958201917763843 -2.2304764725002038
Ni 7.956896802033085 6.6116871206612675 12.741144802249659 -0.27876594672515215 -0.1950045479367803 1.943685598588046
Ni 7.789635207353698 2.8665655438719893 9.486737444592023 0.8942762164624535 -0.3876470233992872 2.503498060542411
Ni 4.9910367498163195 0.5740414597676623 5.168602613820998 2.491093773340787 0.18892491740160366 -1.0554334768324856
Ni 3.2596344560184454 7.152582594629991 9.23563404364478 0.973114209807279 1.804496872069305 -0.2968480010378436
Ni 6.406888148234988 1.2205848468699296 3.258417452770488 0.6691020869208283 -0.7666422846608474 -0.09765846848543827
Ni 4.234421665911126 1.6915142025530245 9.744747686025583 1.218318775637218 -0.4819815697178152 0.3721689823683461
Ni 6.8919680587935765 4.232524436513169 2.0090798630050837 0.2012181329466599 1.9411690028137798 -0.6785076965054444
Ni 8.581936713495582 2.2086434077707566 7.484632907427134 -1.1902536419698857 -0.30092679909290754 -1.139448129282244
Ni 6.726844317728474 3.4187888655631484 4.126007499767586 -1.0163979601965785 -0.8397120080633279 1.5463390885128077
P 7.071085023515805 0.09432191636661885 8.803362819270005 -1.1070794831435513 -0.3832362959261013 -1.1428278443877542
Ni 7.304555296795111 8.866465594523804 12.08556597582434 4.7903734806576335 1.9083087617506493 -0.5647818901444983
P 5.649643739456327 8.174198978930777 12.505321039039131 -5.038151463641705 -1.3536572751719333 0.9113100320162886
Ni 1.4798111660736928 9.047063323654195 9.968136730118575 0.7188765872407942 0.17433673517478362 -0.8616969969748515
P 2.9953642830493825 6.978389171564899 0.297700280438818 0.3756566838066305 -0.7302665742452907 -1.072431811162695
P 3.173870432453245 0.18514737777446647 8.632664925685928 0.2674230109085072 -0.7371710146746079 -0.08654898883583804
P 6.7593748608202695 2.246227059405405 6.220788453850523 -0.7564689436722715 -0.4206594737695658 -0.9519838555865668
Ni 8.970924268742044 7.676208653688531 10.861504109028497 0.2838405330345821 -0.7151508016497748 -0.5452708166947642
Ni 1.0148418871334475 5.504352986683036 3.793835949384524 -0.6133389731175953 0.14965517326770356 1.1418785931006077
Ni 2.849314638516909 5.589163768160482 7.6067709832010655 0.9185955099341082 0.42705072200789035 -1.5958148266454324
Ni 2.8236603951455117 0.6560212047922556 5.594155795171497 -1.262645365468735 0.40649372379214505 -0.09258336795537604
Ni 2.6464128954885866 3.762798201911705 2.7249489377864493 -0.7608526745622639 0.27627557620313065 0.692709184816807
Ni 4.0954704357602765 1.8658834663915858 3.5394961527276934 -1.0566683776808512 0.25582090789320455 -0.5880920256253485
Ni 2.7856695332986194 5.406492968858666 10.96966284331163 -0.08953275405451032 -2.299226485481408 -0.670005315461388
Ni 6.4171979704268125 3.5594985034486895 8.009771197137509 -2.2302895533003784 0.30400723779044414 -1.2418875640960936
Ni 0.3766953597032108 0.28547379381618 12.19516105158339 1.147939711693023 -0.9664231709403484 -0.37607088852591364
Ni 4.946919225230658 0.986753637266135 7.496539178746507 -1.0112817220159358 0.8385400992424139 1.3242934772978354
Ni 6.65426835217346 6.475512323775721 1.6191103758604606 0.5064430451942891 1.2390477806544533 -0.19631632476966834
Ni 0.19655204015057492 1.7340954340652173 0.3310239579667363 0.5917694744769356 0.8508852510713281 2.261815134712485
Ni 1.2381966885494997 6.374931401351355 8.959092961120833 -1.9256809344805093 -0.4751964284751816 1.0371259367725492
Ni 8.278194914271465 5.326624238593458 8.940739811759427 -1.0042212156247285 0.014364239141472035 0.3650436841774745
Ni 3.6819669747811923 9.206384319194814 11.323615512660991 0.16322776974581565 -0.11607013822340655 -0.6149171162379926
Ni 6.65446270250203 9.112762989488807 6.627147226560227 1.838483770537711 -0.6232721730709072 0.3639311678395861
Ni 8.266561658889847 7.583401744407013 5.771084005002913 0.4019197312682175 -0.8249988702228696 -0.5872818710192274
Ni 5.060216212010112 0.5616382068938 1.5124546174516118 -2.0274251429995465 1.7160275262823028 0.7017540686278947
Ni 2.33661847174611 4.37222530364565 5.545324812379108 -1.4711538614292212 -1.0776300675341828 -0.38764805184055173
Ni 6.459547832500229 7.120959019738193 8.176499716629957 0.5679826564699831 -0.7075498493740654 -1.601882372995751
Ni 0.6509181204506291 4.149009323892863 7.4048650542372325 1.5882177310244647 -0.7046475881256057 0.2591581997965537
Ni 3.0582319869533867 4.79889831307982 0.6646235205259184 0.4159615540732643 0.48229550141380806 -0.14491997257556333
Ni 5.252974718842528 1.1654263726659158 12.825951881816085 0.5064245332515278 -1.5684696018632598 0.7063378313438352
Ni 1.574320954424597 3.9757413785828724 12.561059787795593 -0.21109759684390095 -1.3375104902087416 -0.7828178659794455
Ni 4.52988969400464 6.85228357265485 11.057694287376828 -0.4840844749934308 0.5258139935217332 1.844903558021126
P 0.9290871183457976 3.8817961316625795 1.1005152138786483 -0.05065561737333857 0.2338606015720295 0.15862575219743005
Ni 7.738761695155802 5.502270661734058 3.8408381881328335 1.2308500753350091 -1.2838819062500084 -0.2990090132449044
P 0.3493039945854894 3.406405973199898 10.367750620949105 0.045915017364559635 -0.16027640042697558 0.15663391857838185
Ni 3.593639377834362 8.13570835909613 3.8576754049313844 0.15966036410953147 -0.48441923262503017 0.38765807914288075
P 6.447590659904326 8.237825574593964 3.444963227432912 0.07757172503789221 -0.5396822668633932 -0.3506707032852542
P 5.924325537170275 4.187055714405062 13.399839712276401 0.8324676677960888 -0.38044819165800287 0.860408102960099
P 5.21575200353237 5.286051293809834 7.1926909495805535 -0.29603476110792887 0.7705295355303955 0.17003810779942974
Ni 9.36527959496809 0.07761704288704753 6.839145490443437 0.5702164308965083 1.3731233543163448 -0.412459968677909
Ni 4.033889145935862 5.881503681441757 5.2866371212288135 -0.39214568260058913 0.4992825228901079 0.4359300267753912
Ni 4.1475100499296 8.083752037924766 6.38392797060869 2.3906520856832567 -1.000489259386122 0.17897474816742726
Ni 2.3713146327848427 2.897994768435216 10.055639726385609 -1.515353695874887 0.6898848279941344 1.7306856425151098
Ni 5.3625790493791285 8.422439877181493 9.70652267830665 -0.24981892467349878 1.6625753200004334 -0.3332249970049809
Ni 5.066092995755002 6.217433596988282 13.204462103397049 0.1988185223662318 -0.7985491606717731 0.8384107727534011
Ni 2.0312293221179134 -0.007899878117541318 2.4360416214988447 0.13047191547103335 0.21612538907579557 -0.8051957194540132
Ni 4.013065896446092 2.7702695834537403 6.042031499975028 0.7110650616161754 -0.8627447215130755 0.0814116676092727
Ni 9.317339847253864 5.279989414513923 11.267795321862078 -0.2543893176530006 0.7774319190771837 -1.0733463525571643
Ni 6.34838869933506 1.3045441888126836 10.837434283573833 -0.5713019506512033 0.44962423643303207 -1.9216908394845098
Ni 6.8397155847405795 2.2659304808115026 1.2125942719323881 1.202415217033084 -2.3290993617814406 -1.907005469558193
Ni 4.735484577300307 3.2937012921837097 1.5545268361984987 0.9541821487894663 0.5678052503518544 0.3672638317572449
Ni 1.549564424475648 1.871121670485457 8.166367586167114 0.9427944757778149 -1.1036326622455315 0.6225787465483085
Ni 1.2440827270719415 1.973525784087372 3.756681719428243 2.532621203160612 -1.8176038417649085 0.41978709846694157
Ni 8.09699562460026 0.8548147520656848 4.9046859733543835 -0.32160309649533647 0.6236732651640677 -0.06102179109901104
Ni 2.1452296719912427 8.114727778387993 7.119600418393705 -2.319325056003496 -0.5379182329844349 1.8338424151109578
Ni 3.092076708457427 1.8426169556283492 1.2412766785184755 -1.6774213838743304 -0.7183898774123628 -0.7294379076964083
Ni -0.0922331130733561 8.162186277669568 0.5856145590951991 0.8835858266281428 0.20174932285978156 0.43320877118948614
Ni 8.350363669614234 4.226943805649911 13.224075753460902 -0.05669153915477333 -0.02789261264521003 1.3730184533073644
Ni 7.010521759222002 8.887288844013575 1.1600114023208203 0.6573932831243323 -0.46778830893656853 -0.11805220165044186
Ni 8.006761543477921 2.076568477340307 12.193454470602983 0.08311810877741815 0.39698192764696794 -0.8058068706754509
Ni 4.600809054378023 7.668342092770175 1.5852203059464203 -0.6790545701478499 -0.4370723679099505 0.3297915458433998
Ni 0.8578429152803749 8.923678629344142 4.550029940911147 0.2759701291475699 -0.4915864397974308 -0.6233279660095072
Ni 1.9006073917629718 6.705363979032581 2.055594374976455 0.1779555628742935 0.6850323849978396 0.7330415658872665
Ni 1.9255582720404922 7.348441451941996 11.543469231729496 0.5320910847796965 1.1640849539943179 0.5251650470838245
P 1.3190001513473597 2.1138282117606693 6.091593610193947 -0.5469016674299677 0.8397464608456893 -0.942798589542873
Ni 4.180096121686703 3.0524847700942104 12.6092679240588 -0.5190687043780996 1.8718631173291052 -0.8373388798454612
P 4.271459285670264 3.9208235285951845 4.313948894884701 0.10523962326680586 0.5037822105326742 -1.557932192667046
Ni 8.876840200158485 0.4832493155589983 2.484005431634704 -0.24248870956067267 0.9207482946110531 0.23517134996365305
P 4.3520869076946544 3.7915250314300373 10.416961049621085 0.4286700027788682 0.41764022732726785 0.3054077176823966
P 1.9690557265302349 7.196191106450345 5.182243230453431 0.8879901263434256 -1.1950263807681807 -1.096065648531551
P 9.160073412329567 6.007165051029357 6.959738943844106 -0.36191208052702833 1.3669660764656975 0.9803894033124533
Ni 8.659269634711814 7.472501745013272 3.1527371479155155 -0.12711122652891657 1.569025217256414 0.4530702860001036
