# total energy = -381163.28789946175 ev
CRYSTAL
PRIMVEC
9.27631253134010 0.00000000000000 0.00000000000000
0.00000000000000 9.27631253134010 0.00000000000000
0.00000000000000 0.00000000000000 13.57682105366465
PRIMCOORD
 96 1
Ni 4.325609414468567 1.7444569316735248 9.881902559211046 0.07426682903437531 -0.5465563682754072 0.17333066250777246
Ni 6.876446908283209 1.1740286521840133 1.5007273886910841 -0.915055872211966 0.7847235676425904 -1.3677361218625026
Ni 3.0139110096963915 5.986727955383245 11.55667119384808 0.609021576689164 0.13176903701590212 -0.5743034564816883
Ni 8.681904870414233 6.767765631999743 0.2915405848134927 1.4026424468213843 -0.7981979479799415 -0.3796704329517138
Ni 1.6788362976321085 0.2595744122227774 2.043963085959927 0.3200779181000617 -0.7454499668539484 0.48339567645652237
Ni 6.332641645431932 6.842588367959323 8.309978545084384 -1.5924731638667091 -0.6919386251993697 0.09621299428816332
Ni 7.586140466096692 4.590902673296735 10.499810716178304 0.49023301109332984 -0.9540294252616859 3.2681338562961906
Ni 6.780604048385568 4.324310730730116 8.045406983362298 0.10706382095973821 -0.05774106346521023 1.8767168458769807
Ni 6.032627149225049 1.5035789271282247 7.893672485886718 0.07681016428151932 -0.009424378637693447 0.5631178721785141
Ni 3.7179181879979457 6.865213293945612 9.170219232384007 -0.18911003682921623 0.1992044449507408 2.3282616963714937
Ni 0.2931027158246002 7.0630770378109515 2.6593731319931524 -0.38764625206833886 1.0878612583438878 -1.1228938244679887
Ni 1.3595456242216557 1.63688881288016 11.895385537829542 0.8877492139772131 -0.5102536771896309 0.13500322768248363
Ni 2.866278497571831 3.7187623324279384 12.847813290303069 -1.7117319842307424 2.1290989032919656 -1.030678638485309
Ni 1.153203330806719 5.031332710567359 0.49339128775587426 -1.4899244571685049 -0.6161764425663904 -1.125998945755874
Ni 2.3421111881084076 5.236200070307913 2.277266981416336 0.598744363132872 -1.5728479334366137 2.3329403327940854
Ni 1.1161630153236297 2.882892373111579 2.6618443416211752 0.5003582724527899 0.10945263290688892 -0.2619807568470133
Ni 6.748962546729465 7.989363214260711 6.407960664105846 -0.3327125761449367 1.4480918374034353 -1.1010150221170265
Ni 2.9855162173864147 4.411016422896516 6.114117698550329 1.1131516574795604 1.7459708508089544 -0.24618647012723405
Ni 1.5357584549045424 6.550440184682484 4.41040325864572 0.8849256284854888 -0.6367488674011034 1.9581729935709438
Ni 1.2971438705891132 7.4558453818804455 12.173846522134355 -1.282873776700468 -0.08681998310903756 -0.86510139467071
Ni 8.300926719427386 6.16227289157207 6.909977067147515 -0.153459120394826 0.18835361827916594 1.0880083254447133
Ni 5.0932706485790264 8.649716066325498 3.269827771932947 -0.6412385277413408 -0.5004153509429705 0.21500233121494583
Ni 0.9614155715748448 0.6244247664405544 6.880977459267917 -1.565716464598155 -2.7102816033919903 0.24605842918980206
Ni 7.657020769278833 5.726750023570306 2.1434274182253614 -0.4109283625247311 -1.3887232656371309 0.35391003615815825
P 7.254707099731728 8.374858929394884 3.679142274461541 0.5540058825749169 -1.0514690928680988 -1.9541523024473249
Ni 5.240049739961176 3.2191772508708976 6.73998214867808 -2.8591024536838563 0.9836899284405961 0.5278194539875362
P 8.532843806177377 6.411731485103561 11.848858337637072 0.0050144224954558805 -1.4868782141430132 -1.8809789635874445
Ni 7.082121307204085 1.2418848775180478 10.353086355039418 -2.4637950855258346 0.3160690540509847 -1.075119128186871
P 1.5087365568323563 7.319947404964027 0.7249725719963529 0.7323494249162484 0.027379420454217363 1.191672119583967
P 1.506426755040398 4.548157425676881 9.806564987912294 1.137940434388466 -0.5795366798561696 -0.3433947384491312
P 3.4863999826819057 1.3551022705736715 7.262607735017715 -0.37754335930638205 -0.306948065586323 1.3857976073499036
Ni 3.5343863468176493 2.859896394628589 4.44187407615334 0.4385402107047286 -1.6770879117943116 -0.5784760998021392
Ni 1.2262542910945553 0.35432081199266946 4.312962090118543 0.8345605457693757 0.7810209219800226 0.5943346641009507
Ni 8.961121874181073 2.125462911597625 8.128700847821541 0.7987142254947276 -1.3946332033636626 1.9887398106142071
Ni 2.7929399715990524 3.3601864759293605 8.189307635001297 0.30795619513586314 -0.841207618772248 -0.6120580495226426
Ni 0.5790728750313824 9.045118883121562 9.95258342167621 -0.2976488996725842 0.8637857611830801 0.44028084754491914
Ni 4.5217106589745795 0.9531503772108496 1.4723520766371843 -0.4043717923531359 -0.8185860247179901 -0.1657464224026113
Ni 2.3301911266519157 2.1020773279930998 0.8866150987650676 -0.058990876711911305 -0.34862744760298026 -1.0900245845437937
Ni 3.329305631891493 3.9014314765534075 10.459474526893278 1.507199699309185 -0.4846552598952362 0.5195682697223374
Ni 1.6778901137655233 1.9709380993468602 9.498588632757471 0.9015367546796086 -1.3649950687822556 0.3061101430660599
Ni 8.06166279324273 6.7323765001269695 9.506463294368688 1.5555554649047534 -0.5154215945438155 0.6063892812726396
Ni 8.580598262502683 0.9451634722193796 2.7994046337228102 1.926660524784959 -0.4934718297456018 0.7228682248986906
Ni 4.927595708802422 9.160395617533872 11.67271229640359 -0.7757761286413156 3.6461040187273466 1.7125084573854505
Ni 2.7593318917104392 8.903618013504971 13.350862146916803 0.9833513141542548 0.7830708625305158 0.04666629370828737
Ni 5.566177055623329 4.294301860059494 12.181300039161819 -0.9058999167443107 -0.6386465986444486 0.017712586788414655
Ni 2.8579669216457484 8.603408714737322 10.62079423798986 0.048924236504528644 0.1413721073233049 0.5755141889603379
Ni 5.268694992706425 6.2792008095946965 2.261287605645945 1.2933921597332887 2.1107240003292036 0.16472929399200664
Ni 4.63085575087892 2.954932215345907 0.41628286841662243 1.8827743649249704 0.7313479802349275 1.6168035130819574
Ni 2.835629561344401 7.39631000878491 2.7444999957860934 0.9614930806285829 1.7098067421835714 -1.5428655281419106
Ni 6.025400901851814 5.628653019755212 6.410594209201175 -1.4177325083852874 -0.9585044303139041 -0.5405060483162691
Ni 1.2914111095150962 6.672210337787045 9.668094689562503 -0.10890961591922534 0.755160252163177 1.5343268945432802
Ni 9.11968188233345 5.141396157401032 5.179149821309027 1.0137461243960282 -0.018416811944290862 -1.0321657645537965
Ni 2.6131650369478443 8.146782235985738 5.930057107562234 -1.8745046687170104 1.3558943920325681 -0.7790465718624712
Ni 4.229701620384003 7.196600278748489 7.021891138308479 1.4900075038006144 -0.6234392947763908 -0.717962560066957
Ni 7.569888366741227 8.165872886940958 1.4590062459621227 -1.0242056291664552 0.1594780728953963 4.227096714303752
Ni 5.25329631409337 8.704075257092065 8.93375211439323 -1.314335080533543 1.285772952625134 0.33788512148481165
P 8.398856749618965 0.782584037896497 11.918955720051175 1.6222179992293093 1.5852583912858247 1.4751650394711433
Ni 0.8620968774143656 4.142439349472553 7.090657369890671 0.7863886140498392 0.6913490712444867 -0.04903402260951555
P 3.946829749524667 7.1531500313849055 4.564133090922304 0.9963716376733227 -0.6131237717829956 0.6131474259320795
Ni 8.802033116220898 8.152301641874152 4.988517890604374 1.137096598330932 -0.5850103013762312 1.3522776212155871
P 1.7698833040099002 4.260730885420551 4.316478740156018 -0.6948910229594742 0.14572009987935547 -0.2364597297577734
P 3.352264505124813 0.9638366891158131 3.263623774188121 -0.262313971816716 -0.09566946307986751 0.4111278801300468
P 7.934818497245794 1.0202737738639014 6.57966706221631 -0.24347421340239359 -0.8262540827862093 -0.7017476408699914
Ni 5.748224686816824 2.980544113930633 2.7510982368086636 -0.20605514932398705 -0.2072442845360818 -0.3315779483198612
Ni 1.8412923569998385 2.3192172490620098 6.1352435724499506 1.2621936226432973 1.4819692068771702 -1.7117859773971296
Ni 4.71722749579829 0.5589154481481483 5.756395262794161 -0.11897419924407897 -0.20468629400091842 -0.40116099872532207
Ni 5.0641430275880674 7.903863442708587 0.707556295432491 -0.07315225581395789 1.1083375239203686 -0.7283593299202489
Ni 6.383568600604023 1.9349923887290361 12.748295155425613 0.3546556560749311 -0.1094498046934115 -0.3063135173261176
Ni 7.8246066294134415 8.307763361679084 10.977809818739816 -1.0003743310748126 -0.31336811018005384 0.26954262835467124
Ni 0.19893886847452735 7.9449296777808724 7.942725625950475 -0.17778124207995835 -0.7718495398933997 -1.195364995054522
Ni 5.652094261234241 5.427830132228689 10.178501517185804 -1.9882230188787888 -0.8305745645384341 -1.1078289597150661
Ni 8.942216749474202 2.5198453340277647 13.307388708772178 0.30812845904766933 -0.6252894606112521 0.6805540375115118
Ni 4.677682575962475 4.948773530051582 4.058288353745932 -0.3470207652374927 0.008515750780495011 1.0979381829639154
Ni 6.540681504019271 6.507156910942415 4.480893956706325 0.256113756543275 1.2501613740691113 -1.706112838271752
Ni 2.383084660056518 8.581071354435975 8.29078028890512 1.175784501819433 1.2699012757002 -0.23657414384845063
Ni 8.963849110031818 2.49107021290867 10.32191423479164 -0.21878159575171996 0.8520263066543069 1.714788511668879
Ni 0.2561820647716966 9.302378855396173 0.3183222263940656 -1.0388015247027593 -0.11530626347418851 -1.1770008907250376
Ni 6.511999146024351 6.423670099184887 12.739362066567557 -0.3625214319762531 0.2410010692715527 0.28423751136268466
Ni 6.65239613446326 0.9352656468699039 4.309445440081068 0.538606260190395 2.0089939328775532 0.9585900480491748
Ni -0.12018668657489398 2.676123369325438 4.565341794430305 0.0031634853296461647 -0.4936281528178079 0.2275529141864468
Ni 3.4843962991997253 6.032033465230329 0.34843591939500557 0.3968682848872391 0.4384502220940836 -0.29415065671133855
Ni 7.495798459462631 9.092223997577642 8.385560083399715 1.2395476031090071 -0.6232166372426236 0.8879798419307803
Ni 8.241224372708336 3.3115785988616446 6.588627980011618 -3.4439201794333076 0.8621340845122701 -2.507793345483655
Ni 8.966158911823777 4.676764221033142 8.920161389070346 0.8548653187649988 -0.19232134467766232 -2.064561128619896
Ni 5.4241938177610285 7.354492392406808 10.899159676276776 0.22279174535237758 -0.16104824559599362 -0.37193141243624334
Ni 7.249299009592323 4.300600476190978 4.304503948456263 0.948000959679419 0.6515787333250843 -1.2839392418505051
Ni 6.968486480089673 8.792831014302733 13.121264138271188 -0.9351755257799765 1.3668704314280977 -1.7812006205455257
Ni 4.340386580149649 4.9441353738428315 8.31426883957748 0.9539132113987958 -0.05673756190136035 -1.2065688341901415
P 4.428845495362958 4.544984926830095 1.834893556694245 -1.1080649869852723 -1.5011671199618597 -0.4560877326701887
Ni 0.5967405396617586 4.350970852618019 11.712818433140665 -0.24980272672358267 0.49714027973612446 0.6701881208961554
P 8.52774183434775 3.4990064912572922 1.7553881382263101 -0.8377584838813831 0.30837425650988826 -0.3523614607241157
Ni 1.9880992773192407 6.068498649343534 7.639473696709884 0.6122040881822037 0.43942441308189484 -1.0213270220670798
P 5.942915931835377 2.9555073467157924 4.93323292385854 -1.1666198046010294 -1.6400591411757883 -1.445824381525497
P 5.948110666789179 3.272228481586597 9.770151751148628 -0.5022557465858188 -1.1641443464773433 0.14608519652825808
P 3.808083944696075 1.93170857413324 12.381096966534965 -0.0010510669723336737 -2.5591555020057153 -1.8278175490731168
Ni 7.608468550085623 4.389541759649997 13.350807416673542 0.42502057895173906 0.4350249984626185 0.46668350590816404
