# total energy = -340867.33934403764 ev
CRYSTAL
PRIMVEC
9.24799556021415 0.00000000000000 0.00000000000000
0.00000000000000 9.24799556021415 0.00000000000000
0.00000000000000 0.00000000000000 13.53537630408960
PRIMCOORD
 96 1
Ni 4.565985131454808 5.169222637484792 9.03027560391886 1.2320019295512654 0.07153734591835423 -4.107763074837726
Ni 7.786303668834637 5.979060365574133 4.231266877330924 0.4754689654102779 -0.4660289030433006 0.3559977719251224
Ni 1.616827073528983 6.64220638720396 7.555501442248451 -2.712391964866774 2.010469488981815 -0.6311253505667388
Ni 7.264688972110646 5.877952029505424 9.703037691390106 -0.5657995327757352 -1.0662215685869252 0.03356909420469702
Ni 5.696182675674776 1.3207524938857271 3.259358950872379 -1.8709190082482812 -0.07780466698430472 -0.985181425384458
Ni 0.056057650225380555 8.134407471812983 2.8230597881038135 -0.3930327131912328 -0.35675573313706943 -0.7199407668392505
Ni 5.597219874588958 8.7721400014903 5.016955314468448 1.053159336086328 -0.9236672680300609 -0.03710898903715545
Ni 1.1544642847161073 3.171100704711972 7.877386252856141 0.7341913632209937 -0.31180230835483075 -1.1322963487288111
Ni 5.186904805102405 0.0822045082302338 11.238531417875873 -3.346864377528875 0.8490523116276474 1.0310622470769728
Ni 3.9937469067293443 8.841268768719202 13.463638929444194 -1.5942371977456673 0.16020595220035636 -2.084742231553461
Ni 9.125404186022323 1.4728727737717777 3.5371863103658887 -1.7033103358259505 0.07973839367190784 0.6095710214347309
Ni 3.9521494224489957 5.174530986968322 10.91997588568991 -0.9485275216068502 -0.32647045188996676 3.804187268157745
Ni 1.7392705354835885 0.927111560494655 12.831740035401394 1.072774024993462 1.5947149087130343 1.2851499743291546
Ni 8.403061744455076 5.301145294945702 1.0326635584568071 0.6692206147765636 -5.052329812024614 1.2444010745465663
Ni 3.1262479259748246 0.40248756599724866 2.299782301768083 -0.5764356723333427 0.7440188908343767 -1.3088630016753782
Ni 4.800708508182138 2.1330501888088995 1.0315593477802678 1.65900919991573 -0.4978601886212845 -0.6016867335906477
Ni 0.37433666734242843 -0.16594973253007766 8.539847922810392 -0.5502299604722524 -0.2666766196607859 0.6839620347517963
Ni 0.5956227064398458 4.891819760990051 5.584114540001656 -0.30040949313685683 -0.9241501212037504 0.762576599231906
Ni 0.9145740528381702 4.03047069732011 3.2455664902108152 -0.0016817585777971036 2.4215230642305006 1.3627219564773627
Ni 6.964600762370087 6.624006331831856 13.373966664754116 0.9512600900466649 0.7738871391487189 -0.7959163510346163
Ni 4.320765279703424 4.530195388421249 1.4051746714646554 0.2527816068462485 -0.12904083945146164 0.6239920819560673
Ni 5.012358135847781 0.793484497441733 8.835541485034272 -0.31647297435762267 -0.04655830737551337 0.5500605247739236
Ni 3.9080642273479675 6.107598256639621 5.9815268060048945 1.992963875997884 1.7801433829256053 -0.632983229711084
Ni 6.4636553358476485 0.5400182079996447 13.346679528889823 -0.3433811116023764 -0.037681059490541555 -1.5247829596085871
P 2.9964430595099567 5.2882905810395915 7.513000428796428 0.9498213007176094 -4.6767253216121585 1.9800399688473642
P 6.079151422125093 4.246161699069904 10.675162020946063 -0.03515752173773945 0.7097041767129068 -0.9852243628072517
P 2.3321780304106046 2.1625975348017215 9.321380310718126 1.567455558776449 -0.40278465037167405 -1.0374511813224518
P 3.653189468173577 5.863099748546278 12.898333927031976 0.7626295639570286 0.56812432425417 1.7119566986470387
P 7.771220187985092 7.128179308824246 7.9518168959716435 0.00846330027600478 0.7657886784113005 -0.4058805156881784
P 6.957572285701998 8.285575208150595 11.893603014533452 -0.8847708480751795 0.5974567546697 1.2406158964725214
P 6.998106250486518 6.201150980290135 2.1414048280483096 -1.8905462955609054 -0.003121576348117205 2.187646007598239
P 4.116245856657645 3.6180100928506675 3.4808928362523024 -0.7032800183541178 -0.9071096207816958 -0.7229386731253099
Ni 1.9780445342906858 5.257836931476411 0.5818034265909964 -0.4747616549306082 -1.8589595218935597 0.10008816097285343
Ni 2.734040431904218 8.450651929894532 8.466431784813954 -0.2982171134712283 0.1974661221033954 0.8794856884168403
Ni 3.6048964350673116 7.922535892252559 3.6748140563222513 -0.3823729194845415 -0.667047775494961 1.146872189660457
Ni 5.289289364566109 3.5953525035916956 5.3135551802626875 -0.8280785375894578 -0.07468103375365848 -0.3886559242797758
Ni 0.31400274394425254 2.849427673203887 1.6280485914093241 -0.9601651058457786 -1.079955887453882 -2.931619647016977
Ni 5.053641188277188 6.798562249082097 1.285484337804905 -0.6712479296192375 0.28783551312658817 -0.20536609367676245
Ni 8.254011799113506 3.5238654974807364 9.66114519604961 0.2054144304161946 0.06148947476404894 0.7384614513512573
Ni 5.3353906227114045 6.2899687301853024 3.9174361461051275 0.3476128902955369 -0.8506723637295737 -0.9647159584412547
Ni 5.736522432551362 4.735112475278512 12.884121607369451 -1.0203613157197007 0.48333911218697406 0.8550710070179014
Ni 1.0622987604079803 2.8389681901622956 10.838195860458448 -1.3609638361356755 -0.395500458005435 0.9499403427939769
Ni 4.255086014839254 3.020367624168308 7.584954458685991 -2.0740053047519313 0.31682135883597695 0.40198143774408834
Ni 7.285635682180676 1.5397172860835522 1.5840725226565642 1.420437051800644 0.7522808737328528 1.1639052338833438
Ni 6.8195829431170525 1.6522931367159852 5.16254188545186 1.7108817204153053 0.7341710515060195 1.3297583570671487
Ni 2.781501145405051 3.3173207633950743 5.804172445281281 -0.5155442361646089 0.7620004150134618 -0.5729561984251745
Ni 1.174060787426214 7.473379241179199 10.130823149394669 1.1496862620704846 0.023538449441572365 -1.647028630515086
Ni 3.0780658688159503 5.431967440928319 4.033271915192168 -1.313819317239389 -0.6394377270871762 -1.6388445520423967
Ni 3.828087561261606 0.9367202279395822 4.764398102995403 -0.32344760590324295 0.5145654171911073 1.0173639236542737
Ni 0.2951710504715816 0.38651072877120807 11.033145457640885 -0.2936793735018749 0.463354441534931 -0.5952034398591491
Ni 8.291207237480684 5.027839280508809 11.843955150069458 -1.097715011209516 -1.5540904503234525 0.41651716946641815
Ni 8.697749124755946 7.419370946782303 11.588231424897526 0.4619814724468043 -0.8710334438844289 -0.5821082972380879
Ni 2.464239407805753 0.8990078266174758 6.876106692321475 -0.10423946413706563 0.565529309833484 0.08679632895995376
Ni 8.865054613443315 5.215508855542406 7.612187031376151 -0.8920331860645476 0.7205074379759979 0.5054146039297748
Ni 0.20695811948969314 6.831568345435268 0.19025716420692704 2.483938907463561 1.6227520173559085 -0.44278895867875356
Ni 2.148059685693516 4.564043052375467 9.506585294920084 0.2441722679106827 0.44307255135744333 -0.19705037472221548
P 0.14605544436113901 5.475830684134565 9.662647995337196 1.0415096676625417 0.1921909897473851 1.4093651102571987
P 1.616614369629817 8.184624088007357 12.197769590340627 -0.39809392976422403 -0.7503792858347658 0.265833040713568
P 7.996334897267495 1.443982035467685 8.785433995188164 0.2551115405310058 -0.916423441983454 -0.0009824185179273402
P 6.195731654859213 6.8138954258132705 5.787022962211144 0.24839119108803676 -0.22864229059588365 0.9434596201656398
P 6.8191945273011845 3.5444052957436654 1.078305191219992 -0.5216320942299016 -0.0421573500943403 -0.774499318811421
P 4.155290894148004 7.821704996052327 9.95436214504755 0.5199037986848852 0.18277535286044005 -0.6722732855599584
P 1.263840328865437 5.977774894183522 2.5194212728463072 -0.24611216524587287 1.6130692428505056 0.4423958370053929
P 5.3230445485641695 1.3849798234381998 6.75175721847043 -0.6760810893418228 -0.6486124516079088 -0.896156721314618
Ni 2.2745260257410416 2.205249290582284 3.593858952299727 0.7548530053354032 0.2889598565390185 -0.1419377500187878
Ni 1.308295443791101 0.007998591408197777 4.5373292922393595 1.3848640397920409 -0.41866172661324663 0.7167135181512043
Ni 2.6403397403238498 7.274732295349521 1.4403938131687133 -0.08895631272575003 0.9794504364379518 0.20075019217130588
Ni 2.742206412033063 3.6990595264284742 12.318911859312074 1.635253749367345 -0.06533713064491328 0.21221834071190546
Ni 7.65482491516329 3.600975284926167 3.475654771535453 -0.530224720994919 -0.3319031928697639 -0.4735527222241715
Ni 4.633134827621907 8.337400975582138 7.272422146044668 0.13934119293620517 -0.8681648640873824 -1.613909222253298
Ni 6.2524403639759525 5.041849993866907 7.4297444234646655 1.0711097499171618 1.2522930757001336 -1.7261317045958402
Ni 6.181794925466042 3.056878710859907 8.600703433161303 1.3942313399395536 -0.6835244329937454 1.6903990270809208
Ni 6.592951562553641 2.833863296582315 12.080391255584853 0.7312862737590567 -2.0670754104013174 0.4402433094387644
Ni 2.6897055409215604 2.7420214521207456 1.2071380933456275 -1.5693486620341037 0.017295810965970215 -0.2827419006537647
Ni 7.079405379945954 8.205265614222062 1.5974589963105892 0.8426613204996392 1.333232431658678 0.6632322584036127
Ni 6.934239592763064 -0.11332308867819854 7.209428499107356 0.5252480937159342 0.34831068769350976 1.0506748791015776
Ni 8.211813195118124 2.9913381659299763 7.281031105163515 -0.5858464241242813 -0.7737989503102867 -1.4122424318049935
Ni -0.031515319459887135 0.6892225948680001 6.542310463360496 -0.02779773893855858 1.70474089762489 -1.214841872832211
Ni 8.97362608197406 8.985583740305428 13.741384906576284 -0.3341737340714955 0.8504322226943096 -0.590960348312079
Ni 2.8026143193961666 0.4661970077952305 10.588440791657021 0.05157015876780796 -0.36664908099138144 0.36746206381098
Ni 6.507851506896067 8.037146301920492 9.726927113665116 -0.3262359672816575 0.04435770017976877 -1.8480583016000234
Ni 5.353313238215032 6.897922713979399 11.662039677908078 -1.0933243383409879 -0.10194783988941152 -0.18082928487766275
Ni 0.9366369959790389 6.784246351868672 4.6064136690893065 1.2261053615611723 1.1207590375131729 -0.350198648744842
Ni 7.15901212620768 0.8121312310020861 10.725079926882044 2.2085573038296094 2.8432585446730645 -0.7344559297362899
Ni 4.486924016934421 2.5917970113359554 10.390513339886262 -0.6893526096397482 0.3537917654127391 0.40034441636129764
Ni 1.1980038480757964 5.75649810308172 11.69471377121864 2.001277538069902 -0.6597273305741477 0.5283958953162965
Ni 8.671346097272531 1.9929892952059913 13.108213488336734 -0.16682140063434495 0.7383745480644057 -1.0956624995558613
Ni 8.210971627517075 8.06887617487867 5.430650526352614 -0.23267300902183155 -0.07955224580303073 -0.5349586361354787
P 2.6911482282376418 8.115578552738997 5.805769574124148 0.1962754442294039 0.04669020496768733 0.4073565860130727
P 7.3320143801944475 4.059879323378693 5.636265836878878 0.7233014557813673 0.42845325878237184 -0.6439369005091103
P 5.136346013070243 9.052668700503217 1.5499899596137012 0.20662799110832156 0.950102322293138 1.9009021848739327
P 7.368405242943041 -0.07041793781776061 3.622689578632316 0.8480323550035652 0.37146218610930865 0.2796043834660475
P 0.7828585504790562 3.800621014282363 12.953707225581779 -2.2561815905757916 -0.5941793694700089 0.5946696788428661
P 3.9164429113759796 1.8864246417238975 12.46207545544412 0.2501675662621691 -1.4636279853658214 0.2904593239026804
P 0.8924916889065079 0.6360882360568076 1.748838511747806 1.356745941399586 0.7828669740498259 -0.000886773480327505
P 0.7196133580609929 2.8726031502173486 5.059144670468214 0.07320444920813199 -1.9934243605740702 1.2057939036973297
