# total energy = -340861.5001221547 ev
CRYSTAL
PRIMVEC
9.39019363231297 0.00000000000000 0.00000000000000
0.00000000000000 9.39019363231297 0.00000000000000
0.00000000000000 0.00000000000000 13.74349755620412
PRIMCOORD
 96 1
Ni 6.875217952526844 7.200559985662861 9.359679096751183 0.3325989333852078 -0.7622449269241002 -1.0718929079400894
Ni 6.822632869097927 3.8072727225752407 9.41242663052712 1.2214326386758512 -0.6742697471646968 -0.7711288596772914
Ni 3.7854780835326487 8.605558293335774 12.351666112709061 0.9733160414054399 1.8107338541179525 0.035404604751539025
Ni 5.9214560018348585 8.370108582282796 11.213126751983289 0.3656255248228735 0.10851880823870988 0.6871951969771133
Ni 5.499244732867999 0.8630489256997161 7.7446118319538675 -0.4785954268544015 -0.7246343156601779 -0.7325047195471901
Ni 6.792527908834872 6.659750573176855 2.405730945118432 -1.5866534718611385 0.8510582863140826 2.268175015492242
Ni 8.889827620236419 7.460236395867018 10.297342499759143 0.8589310041939401 0.42708594612119993 0.6306314416494558
Ni 6.267202925379989 4.300671048233996 6.949454005038271 -0.41596258251452883 -0.5879375023253551 0.8118109107776857
Ni 9.28198087990757 4.506616771405962 1.3746933362889582 0.743383571243223 -0.9968573190604897 0.8325404300155532
Ni 2.1983100225524153 4.898272350823231 4.981399038511532 1.853476130181485 -0.8450868992219962 -0.8662846163455338
Ni 1.1239873779061669 3.6650582424804283 13.273937110581901 0.6403643526665036 -2.6136181518299697 -0.4867136850861618
Ni 1.875362488751108 7.579754778346171 9.984760800528761 0.646695437090854 -0.26336426745810126 0.6219935634687997
Ni 3.641113249133332 7.568627399084874 7.736984177798633 -0.6010935800913391 0.2972359805048817 -0.7810625738512355
Ni 4.852551498820482 8.522004351844613 2.3640600835590564 -0.5144571737480172 1.4841600438809022 -1.4417751511567878
Ni 8.738269897639503 2.322345088090374 2.3473201856610686 -0.005509359854003415 -0.39826465101413344 -2.530925303515428
Ni 3.8782344146238708 2.971817819404849 0.512925232978475 1.821598050525966 1.2229441902243712 -1.9782227131329675
Ni 4.537256972696776 0.5312389273019424 10.093677654580908 -0.7823584098445235 0.09757156519858681 -0.3665452084236655
Ni 7.295175575061034 4.318427904084724 13.647073350438722 0.14314771116648897 -1.9554314262700645 -2.140179843696475
Ni 2.1848632655041635 5.230863613317664 9.140249994776433 0.8708557806559841 -0.009860694844163662 -1.5675134085975777
Ni 7.5558567359664215 1.3088333363522804 9.329951622265598 -0.41765719660813233 -1.7452681683149749 -0.8505124411129417
Ni 5.728046186944606 5.132698530788039 10.89062243531374 0.4628106532163191 0.3116117896105795 0.17195023722047806
Ni 5.388956910569315 1.255806913830299 12.511392364605049 -0.6773396443392723 -0.03333743780986517 -0.8690953463214517
Ni 0.2051278373207775 3.6548980531464834 4.115586578873758 0.15661077864993028 0.33304347712179416 0.8820642477772938
Ni 7.843591044257294 6.143581028354686 0.6054533823683896 2.110310309830553 3.2602439120251527 -0.10162156689824432
P 8.312969255021196 4.58698743731098 5.7950283150008834 0.8918768629923415 0.27526873220517106 0.9885022622275751
P 7.922722204624344 4.6844388651369275 11.436582368917739 0.6330781034177355 -1.925632083520445 -1.185427424225836
P 0.9800451022129755 8.080843672456405 3.6457238341268314 0.406513521286487 -0.7323113725894614 0.5107810104480107
P 2.7320392291624556 1.8908281373952913 5.525972040540094 -2.3932023629089363 -1.230321970745681 -0.2923406000857933
P 1.667717140561171 4.434021185693648 2.650941762282902 0.047849515383111135 0.23458642399446053 0.027096599106475914
P 1.8962650594141026 7.689422847875872 12.192062872347522 -1.6538191710743582 -1.3799905137498234 0.2094551761444715
P 1.5860224573769603 2.7606887094377464 10.530900086828026 -1.694931881954268 1.262977294886857 -0.7710854080338656
P 7.993571214351341 -0.08435868107149352 11.154593920010822 -0.24032975423614097 0.7366927894866087 0.4857142972873699
Ni 9.201610214002551 8.133090708920422 6.110194195474058 -0.10162773754583143 0.7198618339721989 -2.5223023377331075
Ni 5.583934887768964 4.3542702725576135 1.9776620734653316 -0.4354474307120178 -0.5274859819075174 -3.809695599570484
Ni 8.099408084945505 2.493086975945374 11.148037686930452 0.5838301650252009 0.32497252718820163 1.4098906437433654
Ni 1.6474812736345072 0.3917250668489433 12.936822591893234 -0.12951829330851242 -0.8299698410748996 1.2002192378230299
Ni 0.5784622102598039 0.2802306046894346 2.3506189606268864 -0.3376390669122766 1.718810231233762 0.8662349940545211
Ni 4.576301397142746 3.089721088607257 8.544400902288597 0.18737094265092247 -0.6403319567666713 0.13599875882653353
Ni 5.4693933078286205 6.441616378881544 14.072379627173111 -0.20302047626272135 -1.2939104941306039 -2.0853618674153314
Ni 6.842042398999279 0.44512240201296793 2.30640617369533 1.3284658635079702 0.21350260674096777 -1.0333135050049946
Ni 3.864881559510313 6.608245361996925 11.195288201449374 -0.30035704263236657 0.15737362495788382 -0.2277002383975885
Ni 1.953263533773661 5.29778752217443 11.520390784651921 -0.7102451368180414 -0.006822936459104379 0.0570869748209791
Ni 7.3782318362983155 6.521151317567781 11.998004195088532 -1.438770302892193 0.7235850484600571 -0.019541926687669568
Ni 4.243681964067907 4.959825069015473 3.570079252594987 -0.9141318177357999 2.377479295746725 2.166511025391837
Ni 0.1242519790071028 1.9323609631106664 6.451925872291652 0.4001628964781108 0.18889920636999083 -0.7096167592054231
Ni 2.9089786447072927 7.699536086242468 0.5936339458483935 0.23783526994906135 -0.7133965379628295 0.5705499029765271
Ni 0.6678981689402288 4.28934647490984 6.957095744483709 0.80969206466247 -0.0815440794220789 1.516189304402305
Ni 3.036807348406909 0.2632672201868741 3.657790232735074 -0.1186291571998344 0.22795220650739448 0.7306828358471029
Ni 6.066478149777035 7.490538550192931 6.783693614818814 0.29777951171317746 0.20335754788716592 -0.19604275939330754
Ni 8.900682683887103 7.895293449500083 12.771612467011089 1.4058740663848046 1.9352102141271834 0.5025462812430442
Ni 7.964471004789517 5.884514980726043 7.629372560638742 0.27226645504373753 -0.24301629992936855 -0.17429174086946114
Ni -0.05856100255287489 5.014992455648488 9.609989727988909 -1.0565467645013222 -0.053412868403501554 0.5329246364245854
Ni 4.98290616456338 5.431672900661841 8.663131447535662 -0.3408501176504065 0.45330965570441933 -0.7503065236153014
Ni 4.903343055296734 7.180042412932114 4.063883234611622 0.7598887679870978 -0.3506653039686154 2.3043442663239477
Ni 5.841986794502907 0.8838744967762613 4.299392103883457 -0.5024670912656766 -0.34868375476221236 1.7567178049128132
Ni 0.8170707823959037 0.6595850306617251 10.572157779874749 -0.45326234740625165 -0.11416572211184209 0.5830320946039378
P 7.490134771873745 7.477232646046722 4.470690830211195 0.13743343439053105 0.5533787905138792 0.1890089924749777
P 7.6445283328984335 8.323552003061266 0.9396494289267506 1.9588509934745746 -0.1715064648148401 0.5841476962656198
P 8.639870060273143 1.569636569772771 4.2374365463913755 0.927300493907274 -2.1566138208827828 0.3678577565875019
P 7.101972344427111 2.2414110105771883 7.396145508379984 0.04015008985632441 0.24565399466253174 0.9285526211468201
P 4.346429461010623 6.39307846883796 2.0080759710935316 -1.2435834637412777 0.31162053136132783 0.42007094825594754
P 5.3708150567863395 2.4914249117012814 10.610281965360713 0.19756330980289202 0.2056077773739233 -0.5226116845343516
P 4.396929921489322 4.897831011730167 12.457600641315308 -1.3549682806738728 -0.6069482390999031 2.0508617767559323
P 3.8239778767573913 0.252147353080352 0.7349695038344658 0.412477966400038 0.6258111374426771 -0.5254339844744952
Ni 0.429991983275644 6.031133461558028 5.365722754867857 -1.4836771907072126 2.018063499278989 -0.49632035493799037
Ni 7.368625668379069 3.9785404612645303 3.043305362287768 1.4655745675692309 0.963414980241644 1.2462846647225245
Ni 9.0828899979683 6.452011323052224 2.7589383773750407 0.46275203206424176 -0.7033023869516211 1.830201475924261
Ni 7.310566102157462 2.7753374112500877 5.324670707058117 -0.9841344721771824 0.6446763497782961 -0.5858664787289395
Ni 2.975536336018751 1.8559905196236335 11.7396264486412 0.7973206875813107 -1.728558568869778 1.18844692777845
Ni 0.690907899017768 5.825140787418714 13.347807884567368 -0.633141095445187 2.2304805862652617 0.03427589046373451
Ni 0.6898824898909041 7.789991819933676 1.2442128419535696 -0.4776788285774032 -0.7903224018866066 -0.9608924709301064
Ni 3.493649650889097 3.765739896859866 10.715612704526873 1.7192460332196002 1.5295302444855852 -1.218378682340876
Ni 2.4681090613166385 1.6963854012234005 1.520016909441506 -1.6505929508275767 -0.9852708997744709 0.6843469288950407
Ni 7.754008598558746 0.8918261126061912 13.425293883038572 -0.07771262149113069 0.12314787100579437 -0.08092444356020902
Ni 6.679911318555764 5.547294352851173 4.990978913889065 -1.329479392374149 0.6437386684553752 -1.0802507929864815
Ni 9.503533104625761 2.700600861426739 8.848393391552474 0.5626944114878503 0.18509628768413283 0.6062913222421946
Ni 2.6255356548319595 7.406073759935233 4.847414123973346 0.012335124526585207 -0.34933552941359836 0.7324054749651645
Ni 7.591680324052372 0.47358689547691024 5.92750140839049 -0.45115121460051977 -0.8013874014515167 0.6146731185479866
Ni 0.4801196530736062 7.305777103488043 8.085477732933578 2.0375190369004397 -1.5672488420822814 0.44281672659289545
Ni 4.322090079537809 5.71740709774372 6.140470996277605 0.6656298121015117 -0.18581311124549935 -0.36512801636116476
Ni 2.5282062995211154 2.02901422449171 7.705456603224957 0.4394182424343077 0.537126590321075 -0.27267783154954334
Ni 2.12778027940338 -0.22542661854368648 6.438540151500952 1.1426938899130514 0.6353103351823639 -0.9587180889866069
Ni 2.8765824772376916 5.225032303173135 0.34997814472246475 0.7993274335986944 -0.04301918387400333 0.5841867770336713
Ni 4.588762183876707 2.562734040908281 5.9942121598555 1.4040897207908722 0.6779790776954839 0.48838978723700405
Ni 4.792801697774375 1.9005469876361714 2.6282240672222628 -0.38464603178943435 0.1324048708276881 -2.055977500715943
Ni 5.8132434122929215 8.70062461202048 13.841350819205552 -0.844370589881262 0.970405038406232 -1.163515711754409
Ni 3.0846785547141624 3.1570018248158624 3.7216839261592494 -1.1976288513880342 -2.999271798948312 -0.022727009283870538
Ni 0.8676867422542773 0.4581944903417886 8.196443527200756 -3.281941451603245 -0.7871571167847476 0.33139308600256473
P 8.117897375886853 8.470508530858151 7.915237281409847 -1.348032472785988 0.4279719482705791 0.6080391581712367
P 0.38785536812018323 1.5908490168202574 0.42907174431563794 -0.29851407588635687 1.1778064173454683 0.3956212998540154
P 6.154069874460061 2.676045505504128 0.11550783084835142 -0.8372720311632678 -1.1521912878805256 1.3110181003451677
P 4.696392581423536 8.871657595873033 5.574032928755431 -0.6519518003937869 -0.3460553160004298 0.25692185426686726
P 2.3858885272981385 5.889153736299952 6.93096940919366 -1.4064160549312037 -0.09648655966452416 0.6109205934840898
P 5.504559582371709 3.3379978039395017 4.113648442941663 0.20023802842157773 -0.8341584252349505 -0.2165200534110529
P 2.6949291845711913 9.264036220187451 8.89453022912592 1.116040034770949 0.7843062775995137 -0.17300721773008268
P 4.803365665427505 7.416985164746734 9.463469844188355 0.4790191446553814 0.8049049276864718 1.0289799106266473
