# total energy = -340869.8020727826 ev
CRYSTAL
PRIMVEC
9.19901955447562 0.00000000000000 0.00000000000000

0.00000000000000 9.19901955447562 0.00000000000000

0.00000000000000 0.00000000000000 13.46369496912299

PRIMCOORD
 96 1
Ni 7.993892956549403 8.154213472510092 0.7956940494269503 0.1336127750928602 0.3958622122202279 0.251122988196903
Ni 3.218700209581205 9.006870611848871 10.9992062650183 0.810221711913695 -0.7405846683418471 -1.0037393908923036
Ni 0.7204828640646257 0.7688908656218861 9.504521021336165 0.9395168334678078 -0.4232213209594711 -0.8604546399273182
Ni 1.9060828844178659 7.2139080731257845 10.853151588864348 0.6670732294162576 -1.9824699184450951 -1.4175867268360425
Ni 1.1450847777295508 0.0833072426320631 11.862108352637168 0.012146405554546822 -1.0240927577376748 1.254047339387079
Ni 4.930214627560895 7.8251461385104495 1.6189557211990344 1.4410341592257054 -2.784993490383584 -0.5959045796912318
Ni 1.6284472697627388 6.42741028372901 3.5308404273644562 3.812281358019789 2.289774853150205 1.3121380728822238
Ni 4.1015945267925344 3.6735733374917023 12.086036410465073 1.0860185487081944 -1.134675133373633 -0.5557611747031267
Ni 1.5066154523778774 6.268405227590582 7.517939355011667 -0.1934685709082281 -0.11073844159784799 -2.0021609691161197
Ni 5.237057129878128 5.755035533178248 5.373253216580904 -1.0770086319000998 -0.04359279698928622 0.46108107211972205
Ni 7.36459721542278 6.995836111261882 7.079951027826774 1.3651843019749264 -0.10978481943532704 -0.6420615378632684
Ni 9.188772028110444 7.3187309030186025 9.15854404925763 0.9248690016476458 1.4701189924068037 -0.22862352154280627
Ni 6.5950348213601595 5.065762183372276 11.562554233656845 -1.4050600551239414 0.5966298878930306 0.9800533601292735
Ni 5.5949449927109605 2.3143169822663543 9.036670836283957 0.6766523884642605 -1.2423681032769378 -1.7729805466285786
Ni 3.469327502291153 0.7504569499727224 8.724716438699375 -1.670046688676814 -0.7802971564401207 2.8494345915767894
Ni 3.096997178472649 0.5513202503336008 2.6954590470900652 0.2686939072011308 -1.270070968508845 0.4356646889291465
Ni 3.3739152695883607 1.2645524470422354 12.797201587439005 0.8881042833237865 1.171157030349751 0.09735456409177427
Ni 4.308940431644149 3.3080410892581735 5.693594360458885 0.13349167613396362 -0.7277723470685272 0.14234089899447744
Ni 0.7168934065636009 2.251331294133302 11.318120640935211 0.13463093194472944 1.1649588719588388 -0.051612324859653044
Ni 4.399284004472352 2.7521627246453373 3.1887822376934984 -0.7297006744394917 -0.12247269931564067 -0.016363786070004077
Ni 0.8484550271233315 8.636554873352573 2.4634257329726887 0.46127390485681846 1.1947489587370776 -0.4539184929330118
Ni 3.2710978259980106 5.614750482202776 13.084880691842002 -0.9184389297515859 0.8520394192804294 0.5864840577082803
Ni 8.78938738724808 5.458928286893038 10.807631159602249 1.5190074905773905 0.6237820228277902 0.08324023617757924
Ni 0.39448800265683953 8.052849474038045 6.458574722790957 -0.6914760837406543 0.09811483929656652 0.06196101508382877
P 6.221131465166783 3.7816894164500443 4.41525718234211 -1.0712023096309682 0.16739089998456977 0.3335785236896578
P 7.339023940556432 8.558151628141824 9.449561477922858 1.3613574720296684 0.3362912946351305 1.582944141330351
P 3.1007871746039206 6.247238283177824 5.492541505008735 -0.5748634427502165 0.17008978697297158 0.9878957389918276
P 9.018286595341367 3.515451387247941 2.203980259943719 -1.1428376145797672 0.1015572893192122 0.6123532121655583
P 8.56954001457511 2.6786533579341905 8.281289651046501 0.1240755250263863 -0.09678043675585912 0.5160070347336403
P 2.8223788422909615 1.9577077831768392 10.672657622622399 -0.9540919030685053 0.729515297901563 -0.23180397615331688
P 6.7536903147486145 6.305146112416551 2.0257878884397416 0.3324079004203243 -0.3480466353988457 -0.4177240452903257
P 6.991310193551722 0.8563763030180842 0.8018711911797392 -1.0122345728475084 0.48481466829123604 -1.7526950569066653
Ni 6.347139637511832 2.2970504222217016 6.551663283108412 0.7520103936802855 -1.1071810417184222 -0.6478979420393874
Ni 0.6821293910789187 4.574838097116016 4.137097223562025 -2.809902852030754 -1.5771786996014838 0.8779692517723138
Ni 1.2654447519566365 1.0919420407141214 7.073610143522683 0.18100951920926892 0.4133367148559075 0.15522572537694557
Ni 8.05531481132732 0.6305486476146787 7.466077121543502 0.49650727413781587 -0.27232867574024067 1.9123284244330032
Ni 2.911581736671889 4.664960893470553 4.0044399997517255 2.147669210094985 -1.463705632681292 0.6440585136886391
Ni 2.215850675011178 3.0823983341514642 0.035819143048412376 0.7350287715206244 1.1356207851163538 0.2012073343133825
Ni 0.6314979864514438 4.810562977853489 12.850680088674801 0.9278856769867826 -0.109708714781753 1.1673960206454217
Ni 3.7569164563007362 7.176063305931483 3.5551561962328804 1.2920515865449944 1.6107454798133354 1.9214437564707105
Ni 0.9616839212509956 6.904885403131097 0.741947856716833 1.9758966361029522 -0.157817911584154 -0.4529301608778135
Ni 2.070110605332202 4.2419623689456305 11.06679422272532 0.5646515352142211 -0.6695844258738856 0.6984082920841133
Ni 1.7022418060857045 2.314087006772952 2.303085899070554 -0.10431608301127196 -0.628916258730562 -0.04743891020825378
Ni 6.685497981444932 8.791604351004478 5.3149820260626015 0.21984320424701495 -0.004459064212618127 1.1463073182959227
Ni 1.8294642490359185 0.1812970406649098 4.968466911329505 -0.2832774614422605 0.01981549206403039 -1.9925010774288523
Ni 4.521327399311144 0.6477425354034165 4.8594106925541345 -1.9440141855720583 1.1017914952717347 1.7756568079091612
Ni 6.210672179726841 2.7587216257171745 12.937291619196072 1.06611563913668 -1.059841376092194 -0.6858546237888189
Ni 7.8547117879422625 1.2664750421670794 10.334476819770206 -1.586021237593778 0.6836789562937388 -1.3007162041985276
Ni 1.906653223641504 3.4406817548329487 6.168795482182209 -0.2205955090320072 -0.5767094948200198 -1.6246824016094021
Ni 4.10252362778588 5.767279428446992 10.7622588345579 0.23262775760619292 0.23473374820560217 -0.344564076166884
Ni 8.787602777419277 3.3525827428203527 6.12171305936892 -0.2649650362863179 -0.5314099995522719 0.993547023740334
Ni 8.20512084772965 0.6402959289270465 12.394382032607183 -1.0299559013866715 0.6744242704646901 1.1165048902225094
Ni 1.6666691967662197 4.531510714159002 1.8719112858041884 0.40812046076229064 2.327156893343089 -1.119283995629543
Ni 5.929688121887774 0.01642025022893217 8.123738040026378 -2.001480140999011 0.017806432053801592 -1.5106136100867402
Ni 8.349333880132434 1.310878710433217 2.2162186358006215 0.9326458173795873 -0.11274467339459937 1.470281486126597
Ni 5.253146215396561 8.097418724659432 10.285536194970225 0.5030612732062497 -0.5206159942605615 -0.0714167611800899
P 0.14338604052850903 7.834455546483379 4.333263559728361 -0.3138193387848595 0.24465332131215928 0.30074425076845623
P 8.236443509931057 1.229715759301638 5.546140513403075 -1.1285098851031856 -0.29249358072388976 -0.7552759518054347
P 0.38899618787439 7.147693529065362 12.196734654263336 -1.753972380957192 -0.28059091574903283 0.6987510201355127
P 4.401096211360363 2.9231173074209535 0.9875405259252155 -1.0746938677239943 0.6635251070536831 -1.4559990080656537
P 5.5187771092960825 9.007542140289607 3.3134151565880017 -1.320337320863565 -0.43939818782964973 -0.7133464014511844
P 5.345375587270664 7.438833304693079 6.835827442070246 -1.5505536408147877 0.24844492714410762 -0.3589959353214978
P 2.583093940915621 2.2090709974656746 4.413991397226423 0.4599433589708531 -0.05802002815820975 0.039961370884286015
P 4.425501210720227 1.5822497926480623 7.277679357544299 1.2096544150940005 2.0088707770361274 -3.969480662183338
Ni 9.057336434121098 6.358684407280633 2.6402842466149323 -5.677594847155834 -0.7142126061062215 -2.02429559623163
Ni 7.358277488864082 3.781744610568461 9.871662178121538 0.7516031309395378 -1.2669285662251213 -0.9199918760610027
Ni 7.983985612293627 5.930396446407453 0.1962951224426414 -1.1418276852580143 -0.6905908529222234 0.0659534240726735
Ni 4.9387789149352015 5.225659544425104 2.749084732641639 0.7970502075287434 -0.09687633890377509 -0.3663588034444723
Ni 6.523448049773857 1.6673499242266907 3.805486360605352 1.0737127347576476 -0.06892844754059742 1.0794807475896764
Ni 1.7369957026486769 3.0413247110297936 8.483245850234736 -0.6466758967068282 -0.3320212065048669 1.480533245761592
Ni 6.350994026781256 3.1793192060909763 1.8667147595552676 1.618679647058748 -0.02941779104048482 0.5331400948695011
Ni 7.261963752227152 5.723933647450505 4.227587060804033 0.817394061292418 -0.09081881985578552 -0.19280265518945505
Ni 8.833496686882663 5.024798948487439 8.386131798880767 -0.12441645330557283 -0.8766921848321031 -1.3215552524310659
Ni 5.549124675405465 4.953147783762984 0.27450334843498625 0.0905874205712698 0.981008267843375 0.7613455550382823
Ni 6.866010345726352 4.533240129869388 6.788233553759631 -0.07083183521089738 0.9463084024683444 -0.3088547956907326
Ni 3.1247690190559245 8.527942047328482 6.5926191587774605 1.4248290102207526 -1.0920411007531903 0.8470046850699993
Ni 7.427868073167652 8.16309972557516 3.1229982077567255 1.0573952285445465 -0.2501004604696596 -0.033087012361955916
Ni 0.06696610397286136 2.2318477703322497 0.28797807254442037 -0.4954220114934371 0.9223539485352761 0.07375466528464716
Ni 3.2670042622154476 4.615001017283814 7.525236017466338 0.9574942438818348 0.8929148173385525 0.38413361092939
Ni 4.84564803912696 0.6924010165162441 1.1246132792088415 0.42670490863269733 3.234878179566855 0.6974022194171021
Ni 4.886004138709215 1.4138617363788168 10.941446539997322 0.8494338633367823 1.1153877458989305 -0.654969247063872
Ni 3.126185668095283 8.283395306664094 13.40347218216618 0.027850960773997194 -1.807784027461009 0.43655326218168683
Ni 7.533528013856456 7.759547928772346 11.86058683477282 -0.8296839344033645 -1.3753877248704893 -1.2076846929621394
Ni 7.063605289657704 6.518121817346656 9.323784200973185 -0.1537522261552126 -1.178925618551576 2.439794865956495
Ni 5.659356528903109 0.08705584317452242 12.527065933574718 0.6336566016290248 -1.2410164743450498 0.6218102438134
Ni 3.397584347369337 6.827420457933428 8.650343284035008 0.49755885533078187 1.4412053946962469 0.9723943009221188
Ni 0.3390832266883042 2.0506454795706217 4.241023149030575 1.0151779717465486 0.4725471637777926 -0.8969257382701585
Ni 5.39626456445075 5.671572827112644 8.277627521289562 -0.9803508367650342 -1.0290449595366278 -0.7334398297669498
P 8.973606956483147 5.573787247317939 5.9772617723549715 -0.5434016246965094 0.4128667171980244 0.6494989679779202
P 1.6472040710046394 5.154983475792676 9.342620113784815 0.18496593275385562 0.9574636477542156 -1.218189449148205
P 4.948207910164699 7.153479712479366 12.325151129975296 0.040863313873265104 -0.5611604913418271 -0.23710224843777875
P 3.1558893028231383 6.561256020889213 1.6426919518240841 -1.419693231656084 -0.888159047821122 -0.7201335995763469
P 8.343768473192094 3.442907917609084 12.147780230933751 -2.0524031531011233 0.9699311840936069 -0.9793344796853779
P 1.8533173072116167 8.455950518873792 8.426913813076803 -0.5687470454398335 -0.6782966089359028 -0.5565008810826286
P 5.199203163664091 4.07730911468924 9.891143862118643 -0.33732384966470297 1.9235893420588033 1.4814634708853454
P 1.631032194308582 0.7338177630740712 0.532886334684437 0.4076340080441754 -0.428835581822455 1.2338580089233977
