# total energy = -340894.3094636104 ev
CRYSTAL
PRIMVEC
9.04052554073451 0.00000000000000 0.00000000000000

0.00000000000000 9.04052554073451 0.00000000000000

0.00000000000000 0.00000000000000 13.23172295919522

PRIMCOORD
 96 1
Ni 6.701262287622037 2.1142353373543026 11.621607078853746 0.3425732709891003 -0.6182091567257031 -2.3492663236476186
Ni 4.5114481584149235 0.3581584924441141 6.18404388827152 0.6849225988928527 -0.4636452333024724 -0.27177717411214486
Ni 2.789445053515889 1.5682056877937707 4.916392273552517 -0.15223347551784105 -0.7365814607197251 -0.26300714122899865
Ni 3.3891663830780767 4.50953156704258 5.140854956987624 -0.1942854103825686 -0.34732878339621476 -0.1862795093589566
Ni 5.051312169692728 4.614681917286604 2.512412619273973 -0.115091319249905 -0.772893921997514 -0.14663258439129584
Ni 7.218479782920021 6.188221515031709 2.4756285297655145 0.09408514931188312 -0.5517559101984755 1.0496104423928054
Ni 5.454953545128646 4.598408971672362 11.500180166785345 -0.9846363515142654 -0.4810472308290038 -0.3526409396377475
Ni 5.58935903537694 7.94874629840979 12.551307583371386 -0.5980077420771637 -0.2725395061994661 -0.7514856315250671
Ni 1.839972920076945 6.4107902084078265 0.5093576625663049 -0.15049926643555372 -0.14961249295522622 -0.6473104449670336
Ni 3.032915441480965 1.7125738369681163 0.49036080666674614 -0.1850276392297265 -0.015073606503670811 -0.01675716485368082
Ni 0.5757675536180245 8.998966046251573 4.6030124071761245 0.057988660699642064 0.14445871666842863 0.6277098971272866
Ni 8.577388268538622 2.400268518625962 1.2904030007927811 -0.0354997355685066 -0.7194795109321157 0.25745381551093727
Ni 6.778802873473898 0.7655209481104898 4.863148099555252 -0.35054009124466085 -0.4878166883423534 -0.3618861123850993
Ni 0.917812213693903 7.516301809236664 2.5327501850816385 0.2153975097708355 -0.8869560286519563 0.13425889331729138
Ni 7.781062634380373 3.7799702125294274 3.65882265269407 -0.8835369756680782 0.39512507694388727 -0.32533351007204614
Ni 7.654495279602939 4.12526403741295 12.544003742948194 -0.09847685062167556 -0.6044403850763848 0.3191435792112504
Ni 7.8416070325906935 8.553268146928179 7.233359583579176 -1.1483284624910095 1.1838631650625095 -0.3164827445496356
Ni 6.699418020452423 0.8610657401794405 0.44658658296443654 1.4203923146056376 -0.6422073194125133 -0.187597971060064
Ni 1.803901223965376 6.565274705439026 9.1438476972653 0.536365029564702 0.16836869051680678 0.05403816069232629
Ni -0.03598761922589507 4.8227767295913875 1.414669541870868 0.6407623594358706 -0.00826995331827608 0.34674000077228023
Ni 6.418085912358212 1.8840906837422218 7.002465470416307 0.062241779549041205 -0.44160033768729107 0.5245132724324386
Ni 3.5705464429994804 4.282288922065039 0.43096003491209406 -0.8967545027996168 -0.577185920235806 0.5820651027049782
Ni 6.024669371083241 5.559326410193322 4.739060560878922 0.1361183151235333 -0.33726651406420627 0.17841759011237657
Ni 5.27007480190018 3.173775866822908 9.00379007057366 0.3254180993660524 -1.641646026046934 1.2726209886242084
P 0.21052852172664702 5.5347181002144525 12.43672073277617 1.1677971127385822 0.29586095453422595 -0.4317663823160047
P 4.100538200604643 5.9938863822963 12.638385923458262 -0.1178100037326487 1.716214188371812 -0.5458349167283503
P 2.5319437702211993 8.483719385477979 1.3204211611358518 -0.48792441756481125 0.648836651803573 1.04666472950092
P 6.2280902317866005 7.775349022364706 5.874593938260967 -0.6244782775638664 0.2600182338040038 0.5095144850307612
P 4.755442896849792 0.9781758013973977 12.447637167125725 0.6333100169228835 0.28640649398954543 0.8109120531125001
P 4.082845892511827 5.928957329295477 8.16177633349836 -1.5365868942220504 -0.9802176536212798 0.6798215302208613
P 4.731856166234484 1.067496191768901 3.662236355062924 -0.2322947997468064 -0.7778479235686797 0.551966740657701
P -0.062453757162390613 5.70370359989301 3.654297869760777 1.890691305779202 -0.08847448799332504 -0.376635502780132
Ni 1.4810279019281423 1.2209319878605158 2.5900960454262254 -0.40853106593714805 -0.556991447565802 -0.5390996548870457
Ni 1.8293322217502992 6.674321522105126 4.770909427603595 0.4749254342019821 -0.7331541802057309 -0.3203494265938934
Ni 6.023394657010125 5.469165250965084 9.203893962529317 -0.13062283922660087 1.1227596128829698 -0.2829730428279643
Ni 8.773567668443643 2.2768834287686466 10.014098611191447 0.1890701847302163 0.0468347009653516 0.981992229023199
Ni 2.1924449220814157 5.227295035985407 7.14763099392575 0.7443827019316986 -0.21010900767838656 -0.3737707796378273
Ni 0.40451740234148575 0.10196718127137135 9.010948358538858 0.14477110570252485 -0.41788705323075126 0.20016449487116494
Ni 1.860142332113263 1.1098600935179763 11.663247738575523 -1.4977053866655046 0.5049461489337884 -0.8968342069976167
Ni 3.8981660408408683 6.793954793945825 1.8487892403897273 0.8572507882780398 0.40320348307664755 -0.9942317085121846
Ni 5.395403604705864 7.54909179464936 7.987329452461157 1.3508421743206414 1.9081724932831006 1.2793135701530354
Ni 5.046900393326199 2.792545953707936 5.035742576950034 0.6194916229825526 -0.18070252949181137 -0.35143714913763346
Ni 0.7045236195805737 7.390566182790625 6.808607677418916 0.5402170563209406 0.2791066178940225 -0.25629141977171993
Ni 5.269243073568785 4.363355312799985 7.03068908647914 -0.23154635161655607 0.8068520241105137 -0.7068134854286731
Ni 8.21866022299801 7.041900241954818 9.243019548101158 0.03488858434706894 0.7315737230924885 -0.3215128507743753
Ni 4.372278311311794 0.28131764325366576 10.363137925723846 0.9896487171271924 -1.1404878834006682 0.6804697053278216
Ni 7.859109489651344 7.290451405161674 4.656878569316866 1.2593720940341022 0.5115687964566286 -0.23395290417551964
Ni 7.326459817595854 6.01703916769523 6.815739747860624 -0.44332940456325587 0.24281472544152377 0.5740455748346114
Ni 2.3169781586570695 5.161850673040133 2.5061412068447515 -0.39493250131710694 -0.4705612436960154 1.191550249294122
Ni 2.3504100213689942 5.336305690550144 11.442131857621742 -0.9308223910176034 -0.4789037021234397 0.9444037292464639
Ni 1.0558791167054007 3.2931921660554164 3.7701937884254044 0.6671233659279027 0.4352080610077021 0.14595715559082606
Ni 3.468677803454329 2.76245004484693 3.0304618429033514 0.4406274322510605 0.7940301897554971 -1.2046808731388092
Ni 1.0237310085919327 3.324671275293633 8.163179423031321 0.4691576784802694 0.566528697632276 0.03298905333151093
Ni 3.651730360563863 2.6234338866746016 7.252095168296373 -0.3577029275416872 0.2363627991685929 -0.22082562276494225
Ni 4.183286129053062 6.733708733071767 6.1398104058818745 -0.6798624107611259 0.42686508835964554 -1.4664058052212745
Ni 0.8454789704385995 7.333330616855201 11.244688592274015 -0.7601957577045552 0.14077098340419628 0.673766325165717
P 9.178754973712916 5.677522238504763 7.936095891299786 0.35214805916172903 -1.556137048439836 -0.17223820077454208
P 8.543215082748715 1.750679651281465 7.788323984334461 -0.9072867697895084 -1.5777579691437214 0.7893896056596921
P 1.7926005672888194 3.181387989160237 10.576486187304427 -0.4479239659124738 -0.48897548453714496 -0.23916170206996878
P 4.123591540224819 6.020293756818078 3.8466467990787137 -1.3403271337219305 1.0167566290875778 -0.06966506859630582
P 7.160954920173677 3.8592827413481725 10.125244637841783 -0.6942600742436946 -0.28350860361646013 1.4302159855642789
P 6.2964727654677795 7.620783160605435 10.209901925242272 -1.6821884662456705 0.8100471340090435 -0.6361793680508785
P 2.4196875670589573 8.577198417506455 5.8893607323533566 -0.5006686046043571 -0.5302990258762803 -1.4500006243903738
P 6.8935180995289596 3.996056849235872 1.4852742366809255 0.34520402374372805 0.07808286034635585 0.05209852046745221
Ni 5.4884758130939835 2.962336060141863 0.1214784430628469 -0.657574545897203 0.22311621857133185 1.0396062799922419
Ni 1.5443296603675418 1.265420413064784 7.027883811465752 -0.7626074524698414 -0.8990412419512646 -0.4274728971469735
Ni 6.968075312018209 0.5795365486327896 9.452597006561907 -1.2027486891131027 0.25006857879045963 -1.5721663339885568
Ni 2.5860874764899173 1.4599905994590645 9.30076319156076 -0.24040920132382468 1.6658167097558665 -0.42450635831948186
Ni 6.264243292626241 2.130173783530918 2.5663854596137416 0.3212544549066661 -0.13105221345453558 0.07963786353830156
Ni 4.043528647802751 6.758118151493129 10.505842618235404 0.7214798291915961 0.31873040293323174 -0.6542758205412731
Ni 8.249108712347324 7.077863451762292 0.30404642801409054 0.0410916278339873 0.8327227212296885 0.04467163187576177
Ni 7.600333492283538 3.7938474189282387 7.975685255821633 0.693724770565515 0.5185326293689715 -0.22400119227944645
Ni 2.869806283274218 8.197641001579614 12.43484211161026 1.561749252420291 -0.4583752431527848 -0.48030289646381147
Ni 0.21155552540541245 4.784815563683499 9.999848031096041 -0.33432825737148875 0.06251045982939557 0.7634852270891044
Ni 8.714551119015995 2.5101561041487988 5.675602030922283 -0.14857428149869895 -1.0008304447756247 0.5045291160010279
Ni 3.774844234660941 2.572897350017041 11.340340966594527 0.757719785360237 1.0392846349867648 -0.05474032896567346
Ni 1.036532392475136 3.3727035864316686 12.64121741599514 -0.007772701966883388 -0.05943490622786538 -0.01983143290363036
Ni 2.921554250327506 8.497479065047354 7.9299962488520475 1.0042032179025995 -0.7986646032037148 0.7659992517602098
Ni 5.558431398184539 7.857509316665943 3.6187441957512614 -0.31988919912802327 0.3792294887595533 0.10556898158176659
Ni 2.9815110143906445 8.539128765294473 3.6360242558885174 1.129290729133268 -0.2977301465324808 -0.39075034491495925
Ni 3.2025880210854565 4.332933945026695 9.541619963649683 1.1065482932304298 0.37541859965389535 -1.4518441053570157
Ni 7.325130860370691 6.136211372743525 11.22145353809448 0.9340977193347655 -0.9026927226609228 1.4954538716271664
Ni 0.6611435627831425 9.11727940139245 0.3752016908174297 -0.1868595502321427 -0.6150526133745924 0.31955572704800456
Ni 4.640411252407788 9.269702658645844 1.4861213339054 -0.28722384768451825 -0.557235445255808 0.7847569919836872
Ni 6.014842320037308 5.7928703013337115 0.48213573671128124 -0.4463450514611281 -0.14752218608510076 -0.7055011943751527
Ni 7.8311381042455315 8.652117251009356 11.38932434099846 0.6727833924271575 0.41268828263863117 1.1292660465429198
Ni 0.17273822174770762 4.930422264829595 5.702250787470672 0.07253570527588152 -0.2825123011414618 -0.0583694410778285
Ni 8.053607351842894 8.759545813639374 2.4022059032065908 0.15986939479654402 1.2732992456381556 0.6685315591293389
P 8.425688253312526 1.5486962341073633 3.6281382056333493 0.37591148012991393 0.47403763228039003 -0.932537316826181
P 1.8028886851271566 3.2153080402405885 1.5445656180789484 -0.24820221500568226 0.35609341696272223 0.25204370023895944
P 4.687602794689089 0.9814032689442223 8.367477214692782 0.8115363169600605 0.92979189287056 -0.987844831149234
P 8.719333556921514 1.456274943543813 12.326659569166782 -0.7189208102151683 0.6907713443641458 0.10195889563300504
P 6.43245130712545 7.885742877306652 1.4376270519224261 -1.4522446832295441 -0.316107620598404 -0.922901850618946
P 1.852141467186261 3.139286262646057 5.9646095450312115 -0.46403089877666537 1.8113378062505388 0.2482631501506047
P 6.9269951648675905 3.761654108188065 5.731942584848924 -0.3557941405547485 0.7562545136686202 0.16764338231500805
P 2.2637656264984996 8.53163416978658 10.074303085648934 -0.01753698044249883 -0.8375193712873833 1.181386421387243
