# total energy = -381175.2242491862 ev
CRYSTAL
PRIMVEC
9.11691195750168 0.00000000000000 0.00000000000000

0.00000000000000 9.11691195750168 0.00000000000000

0.00000000000000 0.00000000000000 13.34352220139069

PRIMCOORD
 96 1
Ni 3.356947310674807 0.7263325327324767 1.5507712445726949 -2.2641494392726167 -0.6458192051334878 -0.8352817402061163
Ni 3.7427203280585726 2.4146050451640826 3.1151923298984965 -0.39126919353290673 1.6190408870529085 0.6222283051874251
Ni 8.0819328622042 7.628357369746391 3.30631106933976 0.3181717022162843 0.8633162777458293 0.19177549947652134
Ni 6.0585071632821474 8.50983513026931 7.605113802420686 0.8243422104754772 2.73118698608609 -0.5496483769371695
Ni 0.8944401861058519 6.662994901255708 6.4033963001735055 0.18135893212888768 -1.8564701798128027 0.4191425229044071
Ni 2.142346699979713 1.8762605042675948 12.231833628881091 0.2590270735353281 -0.8494297495717241 -0.029025440698072592
Ni 7.210684277025248 5.76424059235773 2.0297765398709005 1.0278900199965781 -1.1371174242665385 -0.12212097240317678
Ni 9.318031151563352 6.712600019835494 10.100565800450386 0.34132268641145086 -0.9015748070063957 0.7470512499027973
Ni 1.0963724949548501 8.63405305724038 5.546088385242733 -1.0720697998375859 0.9880075819793436 -0.03125355869764295
Ni 0.8869369674711958 4.279560578463301 6.4633755529991905 -0.1702527949133971 -0.6751585775275534 0.14646417713423163
Ni 0.4138640468577663 1.9360583305430619 9.247500896397584 -1.911966413107894 -1.7068042079118217 0.10776470368150472
Ni 1.1056079268830477 2.5304445299416534 2.8744748537158973 1.0410895494059875 -2.724063230557115 1.904853970432829
Ni 5.630431673887684 7.5487211428038385 2.1251832013143384 -1.2287793088489096 0.39825308104990764 -1.0549495952175316
Ni 4.855311809588214 3.8086811868942196 1.3136339797604835 1.0783137238647689 -0.7208049146117587 -0.4700416237471195
Ni 4.438586875722483 4.720563849174828 9.134161268909956 0.38976149863912873 -1.5826955156546547 0.7958065649296294
Ni 5.101103759029684 2.4651218549509957 10.744043836279152 -1.9736955146865753 0.11139947222061458 -0.8600944283744218
Ni 1.914815925417 3.3698477412556556 8.599686857187724 1.3972048207455807 0.026872141800495658 -0.13184411322821166
Ni 0.2536461691908692 7.21148656528752 1.2764843864524678 -1.1622648700664435 0.6234341525700682 -0.2945592050036669
Ni 8.039493636512434 5.153279846813567 11.654886258892427 0.23262698627524453 -0.7212214333238869 2.7906625157439033
Ni 2.8543592989218443 0.4114854444983717 4.525789227992984 0.9812890323085877 0.8669952692593134 -0.5282547417527418
Ni 6.950168514588675 1.638418502152274 8.727330919715175 -0.09737101915200651 0.12643836883160806 0.28094547087497423
Ni 9.338179527240861 1.7448493336722928 6.714580213137373 -1.4640403903128913 0.2649907473179307 0.3375143684089542
Ni 3.7710739246002256 6.919316884139495 12.31923381814354 -0.029867219873077597 0.22051811882685252 0.12542149753131945
Ni 6.704330980586851 2.197248744472908 3.869874812407798 -1.541097123387578 0.038806174233920264 -1.0249209100659253
P 7.246759898091268 8.170066051197178 0.9641152749193342 1.079318253869883 0.5610311648528145 -0.6439106752568653
Ni 0.8476476349000529 5.298211398010565 2.4191671479645467 1.303846779407709 -0.6787838329849664 0.8114900371031571
P 1.1314270218688876 1.0421359850428582 1.0779873300719247 1.0932096671399947 1.5183114929516304 -0.017920074813530428
Ni 7.662500205453302 7.509965149588865 12.013346831093079 -1.5089609049746655 -0.22807022014249753 -0.21092456160114642
P 0.6378000229907773 5.291738390439963 8.433253068870632 -0.15049412422923114 0.5667194734868434 -0.42245693198962087
P 6.832678868726205 4.487690564138349 4.074671655029589 0.4782992357702214 0.12135118411668776 -0.8658686118540379
P 9.100228122180685 5.033365102340139 0.450426511028392 -1.5265850458143322 -1.771159177149124 0.917619262063768
Ni 7.357284223131288 8.501784896910378 9.653531692403714 -0.9296921340679021 -0.8411641671288224 -0.715550865301671
Ni 3.3954936149121413 7.461590814138701 9.56754553620352 0.4084343924582837 -0.1863072772730985 -0.6029342328445035
Ni 6.669850819133303 0.7370057016943139 11.408644845685844 0.019208197497334663 0.668673484023842 1.0342388450327415
Ni 2.464729827731931 0.7370294056656991 9.641428991629102 -1.1039316815431892 0.46088952493420626 0.15113098648228165
Ni 2.4692518161192814 5.307711220388829 0.4501840011672962 -0.7799508288442955 0.39617511547495643 0.18289953714313018
Ni 5.159260541132321 7.338904528395606 5.904362060745924 -0.20283535683510875 -1.0107690440455754 0.8692257012517287
Ni 4.2775001563351935 1.9747322715493938 13.142489154796905 1.0955959079839843 -0.2201800187611434 -0.3342189854871341
Ni 2.1698250729625244 4.078860876126338 4.458404307491805 -0.25474490122020643 1.0036558300395617 -1.1868857539389173
Ni 5.180156503599675 8.630351590939442 13.295032415882208 -0.009659377466634977 -0.1287112240261848 -0.13172044316615378
Ni 2.807197512777159 7.036460087343257 1.6892097309925325 0.037073250703213566 2.5415529584326033 0.3398180768414664
Ni 7.258812455849489 5.35885709710866 9.685822883268948 -0.7726980039366241 -1.1733326978448309 -1.688119744128441
Ni 1.314084355216804 7.999543327816124 8.279829114079247 -1.2848656103195162 1.0952189842605395 0.9109883870108118
Ni 3.5239509059963514 5.061244619454086 2.743895145501495 -0.06079193447639207 -0.1534004992427487 1.1559510120332737
Ni 4.846313417373869 0.21314702238786867 9.512490327587528 2.8959705303548 0.0772631926585379 -3.5823905397287854
Ni 8.420307053729427 0.7261538412558799 4.353471384625096 0.8726270136237938 0.1566647718163173 1.8047619528052337
Ni 0.21587753755321437 4.144803501137843 10.265571880337115 1.0109477357152847 -1.3046211956798885 -1.532385454546193
Ni 8.46673036999634 2.66719821101072 0.6515373860997686 1.0854374793937434 1.0561351308852005 -0.6100777858678202
Ni 2.567377140742373 5.654618841612765 10.634426643990224 -0.8212604862263597 -1.821258150688044 0.07523947736028977
Ni 4.684561163405377 1.7518055375826727 5.134414220664487 0.9229555866750169 0.2833530518752023 0.2303443608886549
Ni 6.308173800353907 3.3148727614658906 12.48545427071816 1.1858776243893772 -0.3384618199238881 0.5415812836583188
Ni 4.866899404830799 4.280463152758356 4.871239966667932 -0.23229788507059992 -0.24553495258616423 -0.14566764937486523
Ni 3.1909556925931737 7.812181667839431 7.055307479668196 0.17313165912308892 0.7701724093012929 0.08639883641121894
Ni 3.8349378936594802 0.10928168992470542 11.257155499635981 -1.6978079179504826 -0.08540716192191097 5.712458491802239
Ni 8.858374678754005 0.05856521976343137 13.046268353105503 -0.45516187842180966 0.22502192023447698 0.650684503645589
Ni 2.033782511035017 8.540486188652924 13.340773787126189 0.8278761917706645 -0.43730196742225336 -1.1757713891933104
P 4.362187152565231 0.5147691179713879 6.797803944979972 0.11885104340265339 -0.05578831061421359 0.43146247792234077
Ni 8.414536048388314 3.5708665355151123 2.8025132433549396 -2.547576281808548 1.3036169227850902 0.1879682099152892
P 7.179440619357003 3.0051347907565265 10.403784267337585 1.3609540659436625 0.48298995637767145 0.3393946161508026
Ni 7.308654614143127 5.50811006462744 6.341175198669495 -1.571051246547507 -1.6845412827485633 0.26481539808233107
P 4.522061322647041 5.923048083727201 0.8704663541232374 0.7920730660291262 0.3248907661076727 0.14009838281720388
P 4.9325320548318805 5.266283971936973 6.962796349498594 -0.05193422697544605 -0.7717392395677806 -0.2748558130374686
P 1.5850845665353377 2.162312737415797 5.144114615108319 0.1764499248630445 -0.6862600867573536 -0.3332201119089745
Ni 8.841608677454937 5.620776864004208 4.601366605681407 -0.06729245459907121 -0.12376776397798041 -0.9125354197829574
Ni 6.406499697042566 5.555417721365266 -0.24047678970391811 -0.7151379461339684 0.6118189369286431 2.8723261514629823
Ni 8.099665256182824 6.874014948057349 8.153705752485283 0.6310045087181584 0.2250802842762382 -1.5738969435264185
Ni 0.1342255613517032 9.011347346397862 10.592061265286233 1.7755071697051745 0.558373158404677 0.8661534900843083
Ni 8.088971118323222 3.3105695789682508 5.320062812862988 0.8420673956693822 -0.12759716502639962 0.9917361957838404
Ni 8.13873122440822 3.728042099623826 7.908425261811012 0.5980079991874798 -0.09077305421951465 0.5875698345732914
Ni 2.2524789978006683 1.112618832265855 7.400264081708881 1.0577652102894557 -0.4155383504929166 -0.569090030601549
Ni 3.849032639721665 7.451863068958653 3.683679205485021 -0.17884722145062748 0.9886483008871361 0.5969713303928493
Ni 6.039434583229048 8.777607954714615 4.4691321779260695 0.14382313996695875 2.007067405278802 -1.0471293278421645
Ni 6.023142661357687 3.2046675283483657 7.071399741165196 -1.2577160464879178 1.5239838607460592 -0.3238052463529778
Ni 2.7722068042476202 5.397531038114992 7.774002775158569 -0.5164999152096589 1.5113075508299714 -0.6493503582151978
Ni 6.066648565761793 6.525767140758934 4.016680800726649 0.45432884099755305 -2.316585545585146 0.8906291066281693
Ni 5.485764513140754 5.718956890099727 11.130579027512075 -0.33643244819868506 0.8310962413698589 -2.0785201619031493
Ni 3.2886342885247726 6.082511992765804 5.471297797066062 -1.296670059153612 -1.5236038516988213 -0.09634797720413084
Ni 7.648441927039402 7.656400991277622 5.816014624319272 0.9799448595758672 1.5011516933428921 -0.2710904324577654
Ni 5.217809350454025 0.8185446281861413 2.5250345543185606 2.0801674676985855 -0.4813341659418033 1.0401076451086926
Ni 4.362305672422157 2.0885204511109285 8.405285117709594 -0.7403792371992604 0.9738449173257164 -0.7122925062653732
Ni 3.1800336319317912 3.2048863342380765 6.421370292322017 0.5394626946534192 0.19503745805724473 0.4211652097613908
Ni 6.874862820879977 1.25997548207381 6.292151739079855 0.5124370579941949 -0.5562810517623388 -1.0199483965519982
Ni 1.4361962754994093 4.078031237127853 12.29973912506154 -1.0063287488860346 -0.697633875811934 -0.5047538304173244
Ni 8.484025152195542 0.7252722358585879 2.1645992589632717 -1.420283299831599 -0.21253535773169205 -0.8492364026139954
Ni 1.3378612618986792 8.637699822068887 2.862038473959476 0.4564631137317365 -0.05341518239634671 0.9385382716046223
Ni 8.979328751203559 1.8725316872304447 11.735174345048076 -1.155427535429636 2.2756618107875903 -1.2893084765822183
Ni 6.605622173591199 1.2445131992009342 0.6988413960727657 -0.14933172849001378 0.37898317707670215 -0.342006856962669
Ni 5.720552349712198 6.602850632321532 8.435521356593965 -1.0146964041244395 -1.182730079899331 0.986566478657443
P 1.622245100137839 6.675111277398427 4.090323569673548 0.26730216905992676 0.5317717537670649 -0.0036414534073292127
Ni 4.049586471465488 4.431521268867248 12.367816930880137 -0.10048153975653018 -1.5792281259313448 -0.5204031069188069
P 2.7765738051297593 3.3220933558263375 10.560850428501444 0.7592048545461957 -0.2243223230642911 0.5304016128924155
Ni 2.420148127703415 3.2543273484005795 1.3355528597622335 0.7269264541284641 -0.8753109882138602 -1.8544662620088963
P 1.861837549370844 7.758756563101783 11.209559748476705 1.1599601331926668 1.455963783952344 -0.8789264734792605
P 5.581118296494179 7.8780787082905785 10.916575927080714 0.353201697237224 -0.5460483182907371 0.8715216963747571
P 8.286388732314526 -0.038277355331231756 7.498846163626743 0.2613500652415499 -0.3800674112798164 0.2867152834792159
Ni 0.7413936714742166 6.4574997031692565 12.486534624798606 0.6151857965183469 0.6679869994797786 -1.2849797672998775
