# total energy = -340874.41904896375 ev
CRYSTAL
PRIMVEC
9.24895781415320 0.00000000000000 0.00000000000000

0.00000000000000 9.24895781415320 0.00000000000000

0.00000000000000 0.00000000000000 13.53678465999461

PRIMCOORD
 96 1
Ni 6.327526399815404 8.075727380891491 10.437537509384303 -0.003750468181367735 -1.2349008483656152 0.6567870169989012
Ni 9.042955626108796 3.050176750884363 4.781084030927648 0.24534109140780327 -1.4239010990898444 1.2460977455226991
Ni 7.600293961333172 4.7969718903961205 0.7522306750343448 1.6106413501353036 1.0880960000625133 -1.0508309450634676
Ni 0.283403785932615 1.2649799391679886 9.205419116782549 -0.5296639633954427 0.31655062167309356 1.194697793784168
Ni 8.76451575575234 4.860142271214408 6.674149586041906 0.047844116066472445 0.4370949936177698 0.19660505965468078
Ni 8.558153012440824 7.393219048281829 10.281458574183297 1.6261345606748963 -0.16194864592307595 -1.1847820773323532
Ni 7.265620428403482 6.358510407976643 8.165550482998809 0.10399675199864025 0.596846631889527 -0.49558064855848843
Ni 4.52168591460175 6.084833750815125 1.3313143884017877 0.001976664110396596 -0.2857786305975594 -0.25018093599860786
Ni 0.8947571125760478 7.13602403367056 4.60867976056085 0.6283495875938147 -0.5488523633984354 -0.6366617070039358
Ni 7.827873813516893 2.392326139396452 1.024042742331592 0.5109833562668038 0.01091304736807798 -0.10520928424950268
Ni 3.244571342983747 5.141911766328489 8.118875618167257 -0.2995494591294067 -1.3751542687034446 0.28020987826053034
Ni 7.984745384389367 7.646002310089246 4.471307767123106 0.155006667387604 0.9367863219105221 -0.1889002348112553
Ni 1.818659540530513 4.788990039935478 4.559973824627148 -2.6459425749942884 0.41873628860492396 -0.5456323137992409
Ni 4.635152127175507 8.374977405983106 1.9426501420256665 0.2513731565344961 -0.894103438330015 -0.10615133644779784
Ni 2.723068865320611 4.389555305469967 12.130191100545533 0.1046716665784778 0.019205883504489502 -0.4901767039340978
Ni 4.472869916071891 1.0337467487085392 5.484252685158378 -0.83821228358935 -0.9190374825675333 -0.4416666721488523
Ni 6.962652322332518 1.5270769013390968 4.423035607303659 0.8626138523621659 0.5580988216973678 -0.25320095377185425
Ni 0.9854116959770053 3.069377586986671 10.966446552341624 -1.302934552006085 0.06695152631988469 0.591052136694937
Ni 2.1498924612106562 1.5670786432189063 7.756076929889056 1.1725935056859613 -1.1099632324492497 -0.014360639597046233
Ni 1.6315623760249254 2.083716169152844 2.70535341181851 -2.8493309761193895 1.5600415257005649 -0.2601154215035004
Ni 7.700460172791747 8.895767713906418 2.5746147708145686 0.9262792517316112 0.26252351672436075 -1.310624721561491
Ni 6.250038632539324 4.147445340802274 8.361225130838347 -0.7056487756966104 -0.43354327171076945 -0.29029245930751296
Ni -0.11103743629222322 6.8776913972671005 1.9449919781051968 0.25700670067118964 -0.45147645915042245 -0.3722078060260815
Ni 1.1689295138681453 8.791282239220589 11.797158332704742 0.11524969920464023 -0.2830650883211383 0.17844021582019592
P 5.187509127592642 2.45275882874736 9.496744634951014 -0.5841307269847553 0.23536315425948498 -1.0525605261600648
P 2.0183445364114583 4.86030875245229 9.923532236800423 -0.6707367943107739 0.8929135317869719 0.8595380416503197
P 2.4569208596943923 1.4925320444787293 0.8360669268482976 0.7236814648286053 -0.5813961016624116 -0.003933016505819033
P 4.99985702562745 2.545821840723 3.551998371542632 1.109498634108005 -0.11773929839571337 -0.2797483652430795
P 2.7195635103674447 8.662832715237514 4.248425460534935 -1.081787541345982 0.14362825034733329 0.10104821089327759
P 8.686251076032816 1.8179473707906877 2.8715174104520584 -0.44091513869480836 -0.44838033672360195 1.062490383679267
P 7.4148616092063975 7.465619888844871 0.6444914170437032 -0.40745300238162085 -1.1916970592846314 0.7604158441351613
P 3.7113384892145787 -0.3385432968146637 7.278214734049201 -0.8820575629090746 1.6163201456876357 0.1610608440014839
Ni 0.27512319413955294 0.39528657695496877 4.453805039647186 -0.8783975975589838 0.47370390309005517 -0.47170564171310375
Ni 6.454116883308803 1.3882500468614225 6.776934177414047 0.786606129377284 1.0373537365126393 0.5063060053957924
Ni 3.59256337494394 4.921407366754723 5.78617658390952 2.118308754654997 -0.24155899865755173 0.6603143134258692
Ni 3.9865227264746883 7.358942411193604 5.730107552782634 -0.2528631108164613 0.24141141733609392 -1.2976586483191264
Ni 8.039656446017212 8.779212349474195 12.56183810474954 -0.41935900979058743 0.21531369180777757 -0.4889927109283256
Ni 5.800909248566248 8.127549290660872 7.059081030000658 1.2175523297848385 0.30885530991136484 -1.5761764835892145
Ni 8.148738652660096 2.0940195079861637 12.10187171708616 0.1591019205029002 -0.7033545803457951 0.45181095967170576
Ni 5.720119603405523 1.524394703617676 11.384733437205659 0.1504846111475344 -0.5042100420987123 1.2217290868703476
Ni 0.03681640086168089 4.063575792740744 2.6692510304881867 0.9692999782675112 0.7226586799910457 -1.758647160725042
Ni 6.880826793913864 6.210536334373158 2.543886958780513 -0.6363999687021168 0.5090426876006653 0.5270401526193503
Ni 3.0414457348532555 2.8404196401115995 4.417364146466504 0.35430598604499625 0.004293228058715187 1.0780159901186919
Ni 4.349026373003533 4.704204845065601 10.346637828605354 1.8464369639465168 1.5955937117735617 0.05548003534517541
Ni 3.1916025624645172 8.924938926366282 0.015207136184689675 -0.007546959109322486 -0.04490585937375492 1.6870938739670882
Ni 5.351030699022707 5.340764356020028 12.783246127486697 -1.7643881769738774 -0.48141618413264825 0.6043917912266366
Ni 3.264475099868221 3.432944863646424 0.6691093676475157 -0.20304721573559867 0.8625961117503531 1.0010962968425017
Ni 7.061967629686367 3.738918880956912 3.021653890356468 -1.1635187970782026 -0.23790854638915798 0.9111565371575598
Ni 7.4489532671414205 6.32578759577531 12.153771318099887 0.8017540407623159 -0.3193158431230565 0.07189344370619231
Ni 7.369088517746703 2.6132097462342814 9.901589084751901 0.5643062360596603 -2.1817085590678813 -1.2972529282402754
Ni 3.225777461018482 6.8776913972671005 12.463249765467774 -0.7728347866248044 -1.4715816929952592 0.9435005007059041
Ni 7.610717536616073 9.099707230310996 8.234331281533697 0.5666996759925014 -1.2233571093920736 1.7282276678929205
Ni 3.462763503142495 0.9742204572083186 2.9048987484387885 2.2430417107597242 -1.106048984996508 0.1749221753646084
Ni 4.4611237398436 2.442224265972538 7.334554759635528 -0.932191246340672 0.9912358591086542 1.3923577770659246
Ni 5.772718425618351 3.4984552307527115 5.388451981715357 -0.023959339029074867 0.1731954224814888 0.3966183736599621
Ni 5.759945615089791 8.866152551478867 4.064216745506587 -0.2477694983436378 -0.6893078724447419 0.42751557745945085
P 7.9503207639785805 0.25131822691406075 10.358713267726342 0.466261587879397 1.5424171277505823 1.4156051776296394
P 4.361919419981673 7.129161307086787 10.722243548555456 0.5810191779389672 -1.3773397063905375 -0.6390181230512543
P 8.734095934008366 5.131284713977066 4.46303734918347 -0.863549476802558 2.132383744690824 0.1837055779841933
P 0.10296679583804477 6.901997657997768 8.103985721230307 0.7319061667312428 -0.007017311858097592 0.023614296984830297
P 6.390225083793029 5.763756185645741 10.000056262688323 0.3881954397035895 -0.27827975111735304 1.5965954135651987
P 2.2428444856943752 3.272873153423566 6.557855042215698 0.8945487533975498 1.227974296449111 -1.1031130422966358
P 8.117800889287157 3.0222171518779666 7.915187673411033 0.47387770966375803 -0.1573970219966515 -0.8119317526262663
P 5.35392562277031 5.6883216869701965 7.029720213908761 -0.5064620713576825 -0.03379020907656761 -0.48256958101080116
Ni 1.188148847885774 5.20417574929609 0.5486296704801253 0.12156330012749388 1.1144922306678549 0.09335752711723921
Ni 0.9667380504613208 3.6235843789358197 8.291727538084801 0.29649781678727644 0.4764896933653084 0.38784756944586757
Ni 1.6696958284574004 8.563591399544947 8.386890988345046 -0.6550054996184461 0.5409904441518554 0.58648740014239
Ni 1.279630288101542 8.722617977552217 2.414245244155056 1.0970807200596269 -0.4745523671332794 0.31790764992162024
Ni 5.92769396017051 1.0885190759714831 2.101680419616001 -0.3530556585776629 1.3710345901081162 -0.3338831994142701
Ni 5.524707625963531 7.581305851257045 12.801534091467957 0.30581266643029914 1.9303279463342173 1.2265763876603197
Ni 8.542429784418703 4.702928488908512 9.901413354556361 0.5195878101063632 0.9810362928678331 -0.0960139909034798
Ni 5.097960719527829 0.06397781482201308 9.069428917619218 -0.81156357065357 2.7405015786187965 -0.7325754248841255
Ni 2.899381745194556 6.639086787552574 3.209179281601717 0.3642345580126179 0.03615485265400225 0.08336210646742417
Ni 4.300293615092616 7.182731269853921 8.502779502929975 -0.6514010700966394 -0.8248348338411795 0.3781802215594326
Ni 6.683870240542641 4.044393454553756 11.48604281983102 -0.3002511131821216 0.06158974778733909 0.10776830322593052
Ni 2.325705897370957 7.32357439710149 10.034506780180555 -0.16015375880618224 -1.4915730485155214 1.187888998392451
Ni 4.032897000182287 9.045536085295955 11.444850737100358 -0.31264048798540994 0.5625915673613988 -1.4533338025286648
Ni 5.667187818716934 3.637698288325089 1.0693487614294528 -0.9747823415383212 -0.2933140197426561 0.5871286332708147
Ni 0.8493493549439264 2.9554766734028903 0.09618730987321232 -0.23332992587954007 0.527957265116981 -0.7953280826313142
Ni 1.9423735981916304 6.646282476612109 6.707002808546245 -1.0398212242165252 -1.1527204209111181 1.2016251170316208
Ni 4.606434113640986 4.7596800931107115 3.3604256364253353 -0.2107394421735338 -0.2628826998359924 -0.15734174327868386
Ni 3.0401508807808453 2.9214497581714864 9.96280238612932 0.5493606704934216 -2.2475375417475485 -1.3313920360158298
Ni 9.091975101707174 1.2885647812011711 6.88616251758796 -0.27000465559275433 0.6171606608565307 -1.2368572007610377
Ni 6.623909248032397 6.149261989875184 5.206328906639356 -1.1108042402933063 -2.145321278688099 0.8021229940659604
Ni 0.9960942420743879 6.13202193279681 11.735796123108996 -0.7077802202173166 -0.4309451719662901 -0.12692970664572978
Ni 3.106179189516096 1.7511329006543306 12.2253674993465 -0.4349427231614574 1.5200996952003047 0.03804538480849577
Ni 1.5396832306297743 8.859077098868912 6.1866619999652155 1.212850553433795 0.7630468540001053 -1.0117648322999413
Ni 0.5148191808579677 0.7057148922745469 0.5558864026602175 -1.237553455497114 -0.9340951482316041 -0.3730254168313704
P 4.859235873363722 3.2546989516215254 12.623579521609349 -0.5878986786676198 -0.3937305105892058 -0.5742913722968302
P 5.089460927438223 6.908925127285162 3.786279093551075 -0.27370190193868343 -0.876290064297678 -1.4608643065777551
P 2.15684767737103 4.500552046348486 2.402928219562192 1.2754065217891455 0.3084871279386687 -0.06726288691271642
P 2.192530156023586 0.8314979417642223 10.278101202552692 0.10380494770280833 0.049818723294340006 -0.0989321929915393
P 8.709780424320037 4.412390981932684 12.21489028010917 1.1561117059808539 -0.5953643909170457 0.7082543316402576
P 1.4978039503449703 7.572093889427614 0.3443516422251886 -0.7923216917048225 -0.39771803448204407 -0.13856034890612265
P 7.691072480766775 8.983503326269856 6.133191925940809 0.46412165871825867 0.13711847425327353 -1.9211478224968461
P 6.6139943654208 0.9014228363616613 0.04838869668596244 -0.20123021713151795 0.1033182378743769 -0.8845988412736894
