# total energy = -381162.09248296 ev
CRYSTAL
PRIMVEC
9.28951865298260 0.00000000000000 0.00000000000000
0.00000000000000 9.28951865298260 0.00000000000000
0.00000000000000 0.00000000000000 13.59614954758405
PRIMCOORD
 96 1
Ni 7.138186828253357 0.18586097161937898 8.241958134499134 1.7024251050075199 -0.549835553247311 0.842211377446414
Ni 4.157208189648834 5.928682221713104 3.0772979407863286 -1.054300648779623 -0.015212446074380251 -0.7544418859399136
Ni 1.6677472677795993 2.315895557021053 5.644101536315005 -0.5033209546255396 0.015549517698824832 0.25661023656371934
Ni 5.7496639094679045 5.118729098125385 4.564077955326019 0.3134038485139957 -0.49710145607838907 0.4719424403142582
Ni 7.794677105165206 2.772800527587196 8.542461054715783 0.08171994287831087 0.42508717052361633 0.7846744595722099
Ni 8.990804804973422 5.815740255013029 11.151113002423036 1.140943482880848 0.8087284151976201 1.1398124546001984
Ni 2.305101136449784 7.0813628431978906 0.49349359733383336 -0.07691018019449335 -0.06623264587598916 -0.619666715107836
Ni 8.431798735871293 6.536579027017116 3.0528386384075414 -0.8658758109428895 -3.9319317573952866 -0.6333136164673093
Ni 1.8856236361776537 2.6645033201690786 8.43185633088639 -0.5246850221236126 -0.2867366236354546 -1.2629330719124832
Ni 6.299213248671968 1.8098676122889297 6.997801765811766 1.3043954528223276 -1.5173866671445158 2.5477071509594578
Ni 8.139931352111658 8.278475231973882 10.397777636578667 1.5417062177264869 -0.06958202196419629 -0.04530000948838004
Ni 0.3678974484459943 0.512232414180962 8.954043393160442 0.049148436700192775 -0.1422082300713551 0.138073124857059
Ni 4.985563849511668 5.795554131173644 6.851385018966625 0.7533615083915413 -0.6646520215692747 -0.012618974315591171
Ni 6.994134263882732 5.051082823942958 1.4873095170978337 -0.6271131440835522 0.41512234600142056 0.6625743131046397
Ni 0.3230950293640903 1.399540287802255 13.123071566230001 1.439759920498972 -0.8586780076428695 -0.6870162481970877
Ni 8.674440960760744 3.0646586218282663 11.942191682192595 -0.19788546902900112 1.1675919387063116 0.08030840724276492
Ni 1.3055210704168747 4.472503739226662 13.277890682616203 -0.2736445663381868 -0.45986442610380157 -0.3172386488790536
Ni 7.063508388518047 1.0546483320797955 3.3813355228165483 0.7417822881943741 -1.1046919567479812 0.012246678577836973
Ni 7.576494182654542 7.474402373637121 0.49019117348436164 0.9139950350476194 1.3838949910105522 0.648021097880813
Ni 2.740844583727329 0.29018133614028424 13.023737815274206 0.02961859419738125 -0.7788581100007489 3.111296049237119
Ni 2.8999182996158037 8.187521555714593 8.131244723302542 0.07353509307467336 -1.5389808483755236 -0.4307999046376775
Ni 4.533182874486152 2.0034333106052196 13.600499870159402 0.11347049581703039 0.5583623597713997 -0.950076354151209
Ni 4.6247217904149664 3.144455586292293 6.6447916998163015 -2.8886166610928896 1.446888304013637 0.8503365776567097
Ni 6.198022522955245 0.25875489483856096 5.422511218395097 -1.1632848266905256 -0.7216518359930861 0.4786285940851822
P 6.686344645304548 2.120072505693732 0.3093437550339274 0.8569070317853758 -0.687342521188255 0.00200494624517074
Ni 5.029939879691488 3.9147703341677893 9.159372408834217 1.7989970252969987 -0.5759888146039113 -1.0114789256284062
P 0.1666474603736343 2.3469782861359114 3.642598587667366 -0.39496566854788756 0.7163119118374115 -0.1377882466267885
Ni 6.869738320793352 4.09338919711474 6.914511942367707 -2.255426971797954 1.9327949198174714 0.33048857191042436
P 4.033685461304461 3.513509579799495 11.891817409876056 0.9299258473452628 0.4636380342136209 0.05562993065947838
P -0.054447726206816614 7.67323522897915 12.842773348889866 1.514712462746462 1.0378458456577093 -1.43592871967834
P 8.04726840443661 4.967021970458095 13.203193663843766 -0.0814998564477048 -1.102456382549243 -1.492160031367243
Ni 3.040190029930915 4.087899091643466 10.060457567437652 -1.1138839076598945 0.29323611531686916 0.5169961381197871
Ni 8.688793266941992 4.870717531505991 7.878329219833257 0.48320335794005814 0.46391417069314295 0.24906250612344846
Ni 3.9364799390516576 1.3943195783693352 4.7080747825852605 -0.13502688183156744 0.7624449587500481 0.21220651363736356
Ni 0.7912839781298201 4.838064873753831 3.6384517465804342 -0.06589146048648652 -1.2628639092374445 -0.15506631698094586
Ni 8.952597015120041 3.8373329074189964 1.4335919470501408 0.7210162592916163 -1.930003216004947 0.8203721700841357
Ni 5.919104728073708 8.694515610377364 10.603596209880758 -0.8118908720860017 0.48638278410930436 -1.248336662155547
Ni 6.224098201564154 9.11979905975194 1.451511428359932 2.5185367000430885 2.241259422048321 -0.9554718141351674
Ni 7.03053059761615 3.3637996986234464 3.3272630931597136 2.2481052413255607 1.657603834927771 -3.151261276776147
Ni 7.155809044969104 7.266317157805432 6.809237544290288 -0.29302297086479856 -0.904800513032545 0.6209129288101114
Ni 8.026534199001953 5.636396809618093 5.250248244049576 0.3136352477985115 -0.567218524610449 0.6139172142185685
Ni 8.876348646747429 1.3150428269448873 1.533659569972486 -1.627791122441713 1.1536419042841226 2.275971114497893
Ni 3.7400252004619903 0.648120420685762 6.895817715209685 0.09175444429617746 0.2559684892146624 -0.08696293644480507
Ni 3.508790504369027 7.735893031692754 11.762246275994716 1.28502141917109 0.13628852215281043 0.0005646142542183824
Ni 8.493258190690153 3.062540611595694 5.715956891358741 1.814280176708314 -0.03083292622045658 -1.140025599052269
Ni 4.762011585271062 3.9415613057061187 1.6213405488417072 0.35239488506521244 -0.6270961748026878 0.8870784131624335
Ni 6.15595958289784 7.226585886907569 2.644110969017573 0.20002231286634584 -0.9469766321799626 1.5334002689639528
Ni 0.5825011194539816 7.098241898428524 4.661670850502937 1.0409188281560784 0.1153733692666981 1.3314938517010166
Ni 1.1869682345041959 4.9426276947092544 6.0177779942596095 -4.30781675516264 0.578575601494481 -0.5871728562451888
Ni 0.27954019262532 7.003237992075368 7.167604875641563 -0.3581569843599703 1.143541325515011 -0.49872793593821857
Ni 4.573880255314662 1.247247920465438 2.1239629560682993 0.16810669510467177 2.1104306374585007 1.2531325408822933
Ni 4.741556065393322 8.88695727694742 3.698995254868892 -0.5422369149644468 0.26272123455746366 -2.3629949860876205
Ni 2.4378297776909967 2.673272625693414 1.0472733832919037 -0.4021123068949978 0.7791902965291871 -0.9108215224156443
Ni 5.842531226551359 4.532504739630986 12.768619766953417 1.1918428408338761 0.43189390903280456 2.72393673228158
Ni 1.2600488770465126 0.060672632596495836 6.554336870703895 -0.24103860737770746 -0.08658267028725089 0.08066913301629333
Ni 2.364358975368996 0.7590855778354355 2.21804905798734 -0.325331196079201 -1.4407091717861187 -0.17499802290786637
P 2.6349347825801384 4.088475041794429 7.06082000184565 2.652770396549399 -1.1096611278277986 0.4578008587065535
Ni 3.0083455602938156 4.176706889114491 4.858461869664619 2.230764436054268 1.292541124586903 1.231379722586234
P 5.742288031728156 8.098862390540592 12.592263830728635 -1.1269746794055817 1.6892520579606713 1.0276933306047398
Ni 2.7431855424054357 2.854353211059802 3.3339664097554342 -1.4012314254064706 -1.8220526215648816 -2.9355740036790348
P 3.484256885841728 6.66548967612856 9.766971020592328 -2.518882770528597 0.2938899468507842 0.18790470366720544
P 8.309093485160545 8.439927064614718 2.9731243506587335 -0.7840921047061786 4.069430497806114 -0.33665999082845893
P 8.319414140285053 6.540471335295396 9.173743294052594 0.20063937762505446 0.09302508347848495 -0.871391598554796
Ni 4.267186799927019 0.9615394875136788 11.40268245465241 0.004617958387985595 0.3351777498559776 -0.6149963062153602
Ni 1.7084539381266732 5.5904880088752265 8.319089936087174 1.4357819096878306 -0.9586160161911038 0.6509629541179563
Ni 7.12742027623778 4.589533094094858 10.45581947751786 0.07540402796261207 -0.6093499065628603 -1.388395192873751
Ni 2.5219184997315525 7.765647359652973 3.4687582530696925 0.3735074986741116 -0.14301915600842466 -0.8679810302113502
Ni 6.291372895004025 2.717119153315091 5.182063177790442 0.1631372669145384 -1.0127184544624621 -0.6754966775932624
Ni 0.5382244871227952 4.015505873474879 9.926888224766405 -0.5142126618373789 1.0668813136581108 -0.22292235739297095
Ni 5.023056346435627 5.67219861416342 11.0846279180611 -3.1637869200469835 -0.584455971534658 0.38285114467254067
Ni 3.6409060373850206 5.097019493241516 13.504796463058383 -0.56883626271953 0.02794712003222929 -0.32386386750505514
Ni 6.899994282756021 6.569417475140554 11.727522055602803 1.135017090094084 0.3175662074218015 0.8583234525169282
Ni 1.1719656620234737 7.481648198116974 9.470642810018301 -0.9965413304819677 0.3421649798070881 1.3723067719523205
Ni 6.185918280266465 2.6912106860403333 11.668554978614644 -0.24517808346737777 -2.3518333130438465 -0.7653274225041659
Ni 8.291443399889106 8.729843649475931 5.417548757578253 0.709836588525713 0.32998720679397364 0.054410970650712744
Ni 5.6164615027799325 6.620528406279212 0.4852203521008109 -3.22604361199436 -1.9361653789516013 -0.5278960728617424
Ni 3.005707337021664 6.2014039077125105 5.7889279175820025 0.37493471803894135 1.2775942734690835 0.18031686401761848
Ni 7.748926226237926 1.4251514904829679 10.352407627912505 0.3067848005355813 -0.5598314881177584 0.5933810419384298
Ni 2.04365692598697 5.899996188387735 11.431384280159339 0.47397129781882896 0.050167107772694244 -0.27086880336526253
Ni 7.616476270553631 0.26652371921356277 12.532808125064012 -0.7198615768618828 -0.17566728106074908 0.38642677783894097
Ni 0.759072572509446 0.14581943080148124 3.8793624052095717 0.20935156068707172 0.9562341462224885 -0.09110678340984954
Ni 5.344966033230962 8.20151157067185 7.880192697257178 -1.2644572218664933 1.0192865945982832 -0.7288473253002609
Ni 5.328012661851819 6.31345408063045 9.031188200074473 2.2852913634575547 -0.1905817362787363 -1.0757763021548956
Ni 0.6308010422751995 8.611467314415966 1.2965957009806657 -0.37142747621663125 -0.9157305296814875 -0.25295875585406113
Ni 2.798133044710991 0.8423456748200897 9.415510446293325 0.6115451144419661 -0.5671953846819973 0.2272767777069247
Ni 4.263963336985341 8.371630524132817 1.100023914457093 -2.6008598237230367 -0.28241845587607495 -0.13508550298364477
Ni 5.0047652843832795 1.4633221222620931 8.772901496971532 -0.003635025649425998 -0.2991483670362461 1.6485628077714254
Ni 5.257198661839096 7.362110673236519 5.00637422899855 0.22324528795002846 -1.6102284309676012 2.1742343621780233
P 1.9973765445015472 5.733221461609776 2.1215569707602455 0.6856245100558838 0.045069895755444955 -0.22664531477051286
Ni 1.551182388839598 9.184500556549606 11.203608071827718 -1.552167522269127 0.03547042499246795 -0.3604768907423985
P 4.893105271245026 3.1729093816535636 3.8246378513495505 -1.8729877178518517 0.9662115691501746 -2.1696187177828827
Ni 9.274757518916601 6.0713227792620135 0.89466610127577 2.230850310899855 0.6316120603951703 0.6490377120707854
P 1.0013915221528729 2.0788734908627706 10.404915702643176 -0.24977238770627952 -1.656986513058746 1.0270369279676637
P 8.922080946637582 1.5697428469302994 7.224028482446923 0.3599081627231221 -0.9582558046382077 -1.3203321786572422
P 2.933964385152551 8.231600321300368 5.590940408429289 0.32967893152493544 2.013731447562538 -0.08382979013246208
Ni 2.2924766807214243 2.356555779775307 12.243400605820103 -0.48862941405163585 1.012868092666449 -1.3335353076110774
