# total energy = -340893.8768204304 ev
CRYSTAL
PRIMVEC
9.07728691854840 0.00000000000000 0.00000000000000

0.00000000000000 9.07728691854840 0.00000000000000

0.00000000000000 0.00000000000000 13.28552695152167

PRIMCOORD
 96 1
Ni 6.6683200851452575 1.8418904095704347 11.342850444199856 -1.276117688923557 0.3794464898663658 0.9078040757455592
Ni 4.671208072103098 0.19744460280205856 6.055543319243252 -0.42097469101713947 -0.22884386508372848 -0.5494264907343506
Ni 2.7745453142666765 1.7526152943573114 4.718606940339841 0.21040417032130215 0.008840738220081547 0.4722975096608317
Ni 3.307844988276457 4.476681816992043 4.597031207945795 -0.5297896903400295 -0.5189519762945772 0.3913347566635196
Ni 5.055894407397145 4.681465406133686 2.574084329076685 -0.11776346676542945 -0.07226213989952071 0.4336821112814789
Ni 7.361107687400546 6.092747486728002 2.495659294719103 -0.3180354337487361 0.49668442314562844 0.13429026077585904
Ni 5.324799950160089 4.843458665522949 11.541137419212568 -0.7632947083448531 -1.323584881266585 0.30384037319527674
Ni 5.890069828112993 7.6064395164666445 12.50897407190505 -1.410657860926693 1.2604951518949519 -0.27695331899644565
Ni 1.8983692877459353 6.729382993130887 0.34499226805302247 0.15709697425772945 -0.6024068995861238 -0.3669892379396196
Ni 2.7153250954918504 1.85167572468988 0.644043480121791 0.7137868314227127 -0.42725795292269003 -0.8679936286168405
Ni 0.5233228281398524 -0.024708374540937564 4.796447397430548 0.5669655280593784 0.35956440623045816 -0.09699101010476843
Ni 8.656136956552617 2.3859739002424614 1.4541005499356294 -0.35327703055984966 0.5921474266416447 -0.04070056304315571
Ni 7.056546562272868 0.482133731770654 4.85535535754108 -1.1962702804776109 -0.4753702350488845 -0.4184321271009439
Ni 0.8598305562650959 7.505018991578365 2.2757438685606557 0.025460091944317444 0.13292757610037753 1.1600791752690343
Ni 7.629459515671574 3.964523143829376 3.810222884963055 -0.6312436213121579 -0.3128348633844032 0.192486666610933
Ni 7.620073601169248 3.805489079921505 12.60516154098038 0.25459089214084535 0.26702089037408205 0.057501179540262265
Ni 7.78821218369011 8.893952792187452 7.006880187805294 0.7749685451383557 -0.8452031130848863 0.18273755764396918
Ni 7.017505151949367 0.7283859977134793 0.39877973070633826 -0.4282331723517657 -0.15539258997211303 -0.6307594825868879
Ni 1.8361898734897186 6.410906387411273 9.32641288766113 -0.14220617318882606 0.32808664733715115 0.11011263508839102
Ni 9.28279652481425 4.905983016675768 1.55212163093501 -0.6422978222437906 -0.5875078709871042 -1.255811116155721
Ni 6.345631618372373 1.961819522147535 6.768762986250266 -0.5540544764246651 -1.1122245176796006 1.3223818620974193
Ni 3.4187149686743306 4.562816190988721 0.6704384145413863 0.4285764146237974 -0.7945811771629606 -0.9315083613410344
Ni 5.922076341203128 5.751459659398769 4.760004814304352 0.5317388436466004 -0.9159611576350547 -0.3361807371991952
Ni 5.478541955891117 2.6315235841906253 9.189452969678554 -0.39662351586628464 0.6560164573814636 0.003454534207503728
P 0.13356319727970437 5.5215773723858215 12.514873400565651 0.4339286800746462 0.23491552519910514 0.43043660776098774
P 3.976741171798554 6.16104499225556 12.587439046324345 0.3425424177511649 1.228212380601846 1.5226309462625907
P 2.531945748513151 8.83268110660651 1.4607705402415374 0.8937409127842737 -0.7301537028165103 0.7007150858404191
P 6.274819704414308 7.597834248625054 5.811115587937727 0.2222476999234495 0.5490457103561641 0.44999241840572823
P 4.749626752359954 1.1600137059919302 12.594572885983316 0.5101485190703343 0.5993130911521486 1.1586542698970497
P 3.8695111833885267 6.07676238475644 8.235007130403702 0.20719363380380443 -0.5681420648659827 0.0921989880327638
P 4.929910744555972 0.9382374360491724 3.9629663891512825 -0.23928305813918146 0.08302503484297959 -0.3276007088396681
P 0.21615652171414113 5.737634951674357 3.5160679613687105 -0.3608694981951269 -0.8850855511021208 0.04477653288474224
Ni 1.39162975477465 1.312212572974994 2.6521235787472763 0.16914259256835387 -0.31688897884911876 0.7159722691098056
Ni 1.6681239092628783 6.476970880397658 4.805640873453715 1.4243950080071277 0.48411609956231466 -0.06874821320899129
Ni 5.943571356233597 5.658326697315735 9.372939428640933 -0.5054554844700392 -0.2411540499096492 -1.8411523185088097
Ni 8.71717263267799 1.985792636461501 10.202036107418628 1.0617563337267197 1.0054910834760877 0.042032394480701805
Ni 2.0765473494153195 5.394150420950964 7.151147321623819 1.4195253386196522 -1.403611752713189 -1.0351585286335334
Ni 0.6351713400496704 -0.09307759063384265 9.173735647666197 -0.8823473262353513 0.379750651370346 -0.6267932988502883
Ni 1.8092212545473507 1.233585115122826 11.546384998684323 -0.7779389406205892 -0.13478339836219366 0.2163411046310274
Ni 4.2005416766871715 7.035369252278744 1.6975052710241227 -0.3360712082045244 -0.15922147679989998 -1.220054527381402
Ni 5.354582527995803 7.709421334676392 8.01586236589056 0.8054865112215547 0.509621957142903 0.2826488267193261
Ni 5.079014256756354 2.9938616394994435 4.788980421347749 1.0076153289079421 -0.26149096169478836 0.12503788893965562
Ni 0.45998242890796104 7.067321301648362 6.835084366451755 -0.6456965635126944 1.2757322805596802 0.7095457967581715
Ni 4.856738736042196 4.656766108879502 6.687469529278821 -0.056193002251799996 0.11119404107802787 1.111283236812254
Ni 8.30902151112813 7.1164929639879135 9.263904875624466 -0.5703910088011596 -0.06393536520138023 -0.7897166499818077
Ni 4.614593034626306 0.5818459112920688 10.61060569188779 -0.22113595491650948 -1.2424249246568022 -1.0309241788372114
Ni 8.252515401092372 7.072822137420518 4.734602935055507 -1.3265095111125478 0.6258067665673028 0.49975689142336505
Ni 7.091303493249081 5.942010062912128 7.008633919605922 0.5418962437955764 0.3833530240096237 0.16919761417600537
Ni 2.3490474977323457 5.465652208702237 2.4875823249665214 -0.01722330585682195 0.639385533693002 1.5074539814118362
Ni 2.296308461698971 5.22613892044464 11.712187995323706 -0.70879477752476 -0.7244597377555265 -1.0941370640502706
Ni 0.8929036505486764 3.5198450203865224 4.006941304824895 1.1018501164238121 -0.4858701061389439 -1.7224853660925046
Ni 4.1429372149543315 2.4623138818329404 2.6102872718326076 -1.360315146808083 0.4293449173587057 -0.29362203790137825
Ni 1.0301812735675988 3.3185289547844237 8.294871836537972 -0.04206967547654045 0.18246424937792446 0.6079486553399595
Ni 3.585364876167745 2.7186836915903614 7.144544503239882 0.5014692461287815 -0.260690320170364 0.312366665498733
Ni 3.9239476720446627 6.838410284317956 5.917545867384838 -0.040415941923201366 0.6026285286786267 0.5423585281439757
Ni 0.7832854279940048 7.350460030039591 11.35948366444556 0.49396213911845904 0.04387947499176959 -0.04918520347539917
P 0.1426631772493186 5.373780989477832 8.199149124544382 -0.8880670023279479 0.579683232736363 -0.13701537301650596
P 8.387612659833287 1.6858518502909647 8.046631644796298 0.8785999433777771 -0.21393866583712184 -0.9506242562348788
P 1.8516938792633857 3.215410977273383 10.555177963518254 -0.3518894061837036 0.04531286500418648 -1.090638821089025
P 4.014275752521103 6.291267748010259 3.7888994306522115 -0.3480168106021748 0.9243249562187178 -0.8672724341800999
P 6.930308735402619 3.8905523340813604 10.402062290573166 0.5522976416345585 -0.0523682291890711 -0.2885052855001031
P 6.241242820715951 7.7730621920997995 10.312198967178464 0.03089386136537905 0.945693651702481 -1.3325834852207694
P 2.168718119102564 8.325387859143307 6.036212329374634 -0.10920683544466998 0.8137451516859211 -0.6663180964177878
P 6.922102868178149 3.951651551214002 1.6736047750041783 0.46394990902708483 -0.27798973068076 -0.47109731870514343
Ni 5.3153323400769885 3.005916276307073 0.3968335604265524 0.19769700716727887 -0.3397298880030343 -0.029505979878916924
Ni 1.460653443242427 1.33372574257897 7.068285309501502 -0.2978509883810612 -1.1367703253397647 -0.9630444842761027
Ni 6.811886452426473 0.6474165998791064 9.110669382494239 -0.5396408721024964 -1.3385337892669336 0.7584525497612034
Ni 2.7275068143140175 1.446501953194917 9.170653908813643 0.013272291628873917 1.5863228279945971 0.4395591388875463
Ni 6.518445003570893 1.7593506411278388 2.628846692327244 -0.1776819974979327 0.9130000181242018 -0.05113538522323451
Ni 3.939506141538846 6.7553349559569495 10.450249067300046 0.6752593647714757 1.2969464527434502 -0.005573894543351691
Ni 8.464179573592585 7.382203301813896 0.21273347687968572 -1.169963524262282 -1.455481959219919 -0.03715115512900054
Ni 7.4678838114729365 3.8487968150187912 8.108302730994362 0.7743671641089309 -0.6095548234848147 0.888542656412786
Ni 3.2330753772942002 8.359001051988676 12.524053260658688 0.6591372623986326 0.7121734641890057 -0.4246454550005073
Ni 0.17715414372367586 4.713263141628508 10.405675958429429 -0.6618001539427764 -0.5407539026610171 -0.23684385257006954
Ni 8.600275333876302 2.335903586514389 5.756791657637325 0.11107319922944742 -0.3029973084686911 0.4150099887932724
Ni 3.585691658490843 2.967428580475487 11.728888387491383 1.1669391356136611 -0.2096384957998712 0.7333912359172013
Ni 1.0080508484644373 3.423952563130657 12.944938907793956 0.48684378290612285 0.023346902256056564 -0.5710330132605328
Ni 2.9541848191032507 8.40107427608759 8.073933400162492 0.3042993151095662 -0.7868696674513158 -0.7058228393806296
Ni 5.697222871051194 7.824049311789897 3.4122283395608277 0.31374477679318225 0.888344681469367 0.48793804441156613
Ni 3.1731108210056505 8.62069922906995 3.7075124776272124 -0.04843161313882627 -0.8109997277303 -0.06122439402812037
Ni 3.7519875518009003 4.179028507083196 9.584458364553106 -0.918222957086038 0.7068343113642794 -0.5820866999715331
Ni 7.307642468426951 6.181931829073597 11.195514279730231 1.9583740538381564 -1.1637183146835184 2.0539010778028888
Ni 0.8316791668588469 0.014681603593869367 0.2550372640621198 -0.3732267342088991 1.4287057195673396 -0.4806811057388367
Ni 4.74127564854744 0.3848034322931562 1.402459865599335 -0.31818327218051007 -0.5640506684054285 -0.1025240241078557
Ni 6.0542053271759 5.570730880151867 0.4240726825141518 -0.1275745393185803 -0.02774811664754576 0.2836980939194469
Ni 8.018984044804824 8.823340578537948 11.446079164609278 -0.02974457825228426 0.184688767833069 -0.4095512796715463
Ni 0.01894792836765359 4.703232739766738 5.8258761639263446 -0.6463383108617514 0.788551683139429 0.954351584487795
Ni 8.037474477920142 8.880091775316032 2.5131303485320875 0.3372130351184515 -0.4712747248232722 0.14759726229741033
P 8.457807318292167 1.6196148888562765 3.6498526444451813 0.969083491381331 0.7293011250082277 0.1170561562857597
P 1.9221517790380944 3.417652926124261 1.9302804893251662 0.015323003510315547 -0.7935550498912914 -0.28485200501823205
P 4.634926156952427 0.911559290282892 8.123621560118274 0.4591689426986737 0.2311321468972729 0.10692883804377068
P 8.65332299765927 1.6827746500817884 12.520891641682711 0.31179870881040495 -0.33580072815195716 -0.08977957995799377
P 6.59365032431728 7.765110488904406 1.2589643011547909 -1.105294880439303 0.023655948856043132 0.9537859417923121
P 1.9370022201655646 3.4064606315581423 5.961853919482276 -1.0309254643887922 -0.4185524547288921 0.6178209201483489
P 6.783883022794293 3.8172713981265516 5.980439664108495 0.5821928865320941 2.1583125487414443 -1.1202594721689352
P 2.4267036859019715 8.619791500394676 10.195233588726133 0.3515927008788912 -1.127965068343309 1.959708970599496
