# total energy = -381170.45445849927 ev
CRYSTAL
PRIMVEC
9.21330885929308 0.00000000000000 0.00000000000000

0.00000000000000 9.21330885929308 0.00000000000000

0.00000000000000 0.00000000000000 13.48460881110424

PRIMCOORD
 96 1
Ni 7.325326598360658 0.5429375105723996 13.067799412189125 -0.7081612577058191 -1.2906727039195967 1.1504223689055608
Ni 1.5937641845515342 6.842392602571209 3.1169811439822226 0.053881323399487854 -0.9823246726619533 0.9406391199977091
Ni 2.262631960775324 4.864424236963608 7.4158740737449635 0.8172390237717926 -2.407537034364054 0.2880759112721684
Ni 4.344637006857855 6.071367660822619 5.986073613990104 0.8832130166697564 -2.1776282183509204 -1.8220135407968296
Ni 5.815901040541989 4.304559114538873 7.370309656167141 -0.34446560291580675 -0.6868283005559978 0.7364019977190672
Ni 3.1047375782114877 7.643554276681958 9.8049282908498 -0.371321032545754 0.6498722921569389 -0.11389961293464901
Ni 1.7765285868346732 4.240904365566034 2.739506363512314 0.6145844154889222 0.2876100273793434 0.33504122427811334
Ni 6.478153661206003 4.295870964548803 10.048905915332321 -0.10802695620395589 0.21140175834788108 -0.9623821681017555
Ni 5.648790049534701 7.403289615556803 9.014002602570406 0.19070180679636833 0.22433852101420718 0.8633342754679584
Ni 6.106442726583164 4.717637804681764 1.279354501305404 1.2520465069069664 0.44958309878245156 -0.5102961003917922
Ni 6.508152193939474 7.048568021953781 4.668223145448745 0.3541766595559836 -1.2931715590820503 2.355461396714737
Ni 4.840847380309753 9.182619048199514 0.40692235735035237 -0.10218001050487564 -0.08832253579649305 -0.4350769347464765
Ni 5.224848868577078 9.176418491525796 2.756281034442239 -0.6697209514517499 -0.03056501727105058 0.13093317137816804
Ni 5.180468361151668 2.3590308084382006 13.099420408563372 -0.28973170170803647 -1.0156757373185732 -0.8564568316218346
Ni 7.842202422955424 7.755293283128996 8.66887759118335 3.3382254709069543 0.30176137917906093 0.5036215165850939
Ni 7.3809841954868585 7.349981412118267 11.003858900237589 -1.1194205212074075 -2.760061503028595 0.638031847878585
Ni 4.112424777430813 7.63306031821039 7.43690989989271 -1.642989684559022 2.048950675776149 0.644178069985639
Ni 1.3049361739060676 2.109764744831288 3.784118660854862 0.8510919677654954 0.9848973184851361 1.0641351183715415
Ni 1.8897877891972594 4.541884730227302 12.194468049316754 -1.2040861769776037 0.5500517830231753 0.7240056809372435
Ni 8.359216447178877 1.3464789822891232 4.996344074522257 -0.3544450827260218 -0.908833545451338 0.26669358894165035
Ni 2.123492574614112 0.10552370847959386 7.980298862585485 0.11745004929006869 0.10734407120431835 -0.2172211932431356
Ni 3.88470864259036 3.9365887831991393 0.9804185698178327 -1.3409871359034322 0.9921120910660203 -0.6826322601967793
Ni 2.0448109193487993 5.621942468335273 0.8988466996512637 -0.7353581298355851 -0.011959743465037469 -0.9088870243970928
Ni 2.4385969413271043 5.512202749849894 10.338015853220307 0.9461585071540414 -1.8105052830469144 -3.024644987605778
P 4.346737641213885 6.513320860052337 12.990019739833702 1.3712904148726641 -0.3271494802348624 -2.2165094687971503
Ni 2.4388364873501605 6.909511555569781 12.120491630742777 0.1802145341117993 0.8673138289409967 0.6246631398811628
P 0.6348697462361399 8.596781608890362 9.371236665422941 -0.03751702310885152 -0.22360652794418912 0.6303751026642757
Ni 6.614363215239068 3.6629350917834116 3.473634768394276 0.8956160183197994 -0.037809614648605855 0.48588244743411807
P 1.217584795267844 3.5238970520165696 10.255408407169453 0.5715166377651705 0.8947287306188398 0.7522281661180464
P 5.201677397500701 0.3236414184423648 6.961092263649741 -0.8238629568462135 0.8228928796234602 1.4002335802695758
P 7.837466782345778 5.6166724558280405 8.966199351007868 0.4425025377865863 -0.6194420006915397 0.6871769421446682
Ni 5.481752764996045 2.4024347051542296 1.7481847643220023 0.2797985017547246 -1.0952917464800038 2.332837488667634
Ni 8.691927446586483 3.5327602548696406 2.279114569823292 1.1911635553786646 0.6770331688424468 0.8520129369178681
Ni 6.487099783836285 7.309461280987488 13.388800296392725 -0.26456857217884755 -0.6000569112967086 -0.42823805744777216
Ni 0.3266145531208327 6.363088650361917 10.534580870424046 -0.5998661354421412 0.6632798238120965 -1.426920859752775
Ni 1.4694582252026351 2.5602402544966503 8.237922318404477 -0.102204693095224 2.401675433376954 -1.308881513618139
Ni 8.946454309392049 2.0444976668571107 9.839866999643373 -0.9809136512470397 -0.07388142067049856 0.2947481810860214
Ni 7.687501758604152 8.62443074793617 3.593014371645943 -0.35449650478924755 -0.7342204166867162 0.18107508233988168
Ni 2.6647099604747977 4.21111773892988 5.235291232520605 -0.04891626608472866 -0.8801492901427682 -1.1475705012790622
Ni 2.7530655897481413 9.145913226820475 3.052241067258768 0.15744921539082563 -0.9821436669993988 0.7891669481259247
Ni 4.282382680789036 4.060830249387985 11.807675849880825 0.7978498206119033 1.560837282128983 -0.5680387065188991
Ni 7.965752891000839 3.53386585189913 8.195688511877991 0.12254186199067928 0.06452903292132113 -0.3157114136012498
Ni 0.16329483859383465 4.941078964341526 4.369687071553505 0.4136899844302682 -0.36444436003057884 0.36210542748475705
Ni 7.08508957716124 8.504206284287802 6.527899078217009 -0.5455335834378476 2.067914104252529 -0.8771223303909861
Ni 3.7682984886937296 3.4520056051740364 9.111765941233843 -1.0022316959985256 1.1946535708097943 0.5585505645228058
Ni 5.671224455924752 2.2288928247587463 9.02278104298455 -0.09433274654631496 2.5810949823912837 0.17411150653785498
Ni 0.15803403939518199 6.506982103749932 12.827637940120054 -0.9380986129640425 -0.1932610828831123 1.1625294365817398
Ni 8.849456596671534 1.392527098567347 7.422508577252756 -0.8468036248027868 0.20227614189752907 0.496477449341145
Ni 9.003890075074011 7.8510932657342325 1.4657093299418091 -1.5125298532728466 -0.10336400351064778 0.34989525857181025
Ni 1.952290874597714 7.910537532686434 1.1603286891031739 1.4181382284641384 2.0692827024652813 -1.9705996493700708
Ni 3.0734860355112605 0.030752181375241272 11.692477246062344 0.9676524153617593 0.5164412940575814 0.7841329852464431
Ni 4.790404515839309 6.077881469988027 10.63439324891547 0.1368590499442998 0.04675782498082915 0.9961687776338973
Ni 3.1168899322272896 1.633731517167568 1.61399937418376 0.6468440468535763 0.6997342099843885 -0.38231635521499313
Ni 2.509087965265618 8.98066332414616 5.541378534127254 -0.4651092194425087 -0.18426016493608266 0.47687047374349484
Ni 7.697452131869554 2.588101299639778 0.5486967497651802 -0.7481267423551631 0.8413040351407962 -0.7584960014046291
Ni 4.510476561281231 0.30206477108102575 9.39785483523875 -1.2807911831398264 0.003488472769232702 -0.9181620219411154
P 3.7635720613926633 3.444837651099515 3.09800817762533 -0.0425512430986493 -1.0879425052037843 1.0242542230162037
Ni 1.2995003218444126 3.2711299311496083 0.6106654632680483 -1.1182781800728483 -0.26651746837510226 0.726410433723994
P 9.164818936024739 7.043924514429928 5.046129108760154 -0.5073974386877584 0.5904538409893056 -0.8991152897223095
Ni 2.7477310840808555 2.5453607611414424 12.428790126408405 -0.3754563948703663 -2.993005506323626 0.24240900536267282
P 6.804056025573672 5.015577777511937 5.226539510701339 -0.7424543745607343 -0.5367504379285788 0.64152880528825
P 3.933152219099144 7.235635039343348 3.6066611243132707 -1.1079024932654788 0.09767749464883177 -0.0455612335695667
P 0.02582582527800911 3.1283973546425563 5.470436058068366 0.3900630890399476 1.09158087328732 0.7107501014789178
Ni 0.05682308066145381 1.7859630148196473 12.356782591877776 0.7970954589443822 -0.35184621165059404 0.1676302696888855
Ni 0.6336849147528707 8.908698170834993 4.024966524413072 0.706131371759984 0.015176707740438378 0.12231431936090549
Ni 6.13651496578527 6.892706480721546 2.5501286483311145 0.8806748236289349 1.2155424984436614 -2.4358726480839534
Ni 8.17980568921852 5.845263854983506 2.6893564822546856 0.061232107337604216 0.35405350371455796 -1.0923532326769705
Ni 1.93058431958541 6.539505083034072 5.765627700949401 0.6826152909159147 0.4328120499716998 -0.6325880511551945
Ni 0.19893191617770223 8.60029187945899 6.599542687058765 1.199405740782799 -1.3226813956157093 -0.3787885445673928
Ni 6.5010763729507435 4.977231987205821 12.209207500381561 0.275142491039952 0.7692941204613978 1.5161463669795114
Ni 5.132623649700524 3.3994989595818796 5.352984800302299 -0.24181945140779 1.1278023175131997 -0.4324274129387714
Ni 1.583500558794443 6.7718094455469044 8.120592676311654 -0.9802572486099632 2.4136009811699464 1.1593029592246422
Ni 8.687901230737427 3.983926762678434 11.804183084598497 0.5438983618272698 1.227169026938996 -0.3643140051003016
Ni 1.5368904306928954 1.8369678911134144 6.098400429524488 0.9070936799420958 -0.5424127784206788 -0.0554556098651432
Ni 4.698741308786078 8.456757745105557 5.122492695586971 0.30317702857966494 0.6617610731747248 0.3618490884995768
Ni 3.7359874155069086 2.16580930091781 7.047959943587562 0.6269097698234946 -0.5675404267262419 0.02686905647670211
Ni 6.950372579117985 0.598866900301683 8.908161956275691 0.8433763442887926 -1.0190120007806578 -1.103871517729215
Ni 6.631122223544407 1.8868487437605341 6.5992460185225195 -0.08673719358724416 0.7245816080453714 1.5779824264497015
Ni 7.528784091712402 1.5437819855100445 2.842366504481697 -0.2744004706676048 -0.012370091529578695 -1.3922873288393054
Ni 2.185571847819929 1.5245906637398285 9.933584774509738 1.2442766331535604 -1.1505622369175346 2.639077215333023
Ni 4.109310679131085 6.616657329075258 1.5091169119812697 -0.6315416121685511 -0.18224467716795065 0.5100014519695087
Ni 6.925247886622843 2.5110503999929614 11.70013626948413 -0.16372347843531157 -0.9211576142343296 -1.6443410563805938
Ni 0.564450586104543 1.1863332525676167 1.9919735159786542 -1.0881147691155904 -1.0187811157167745 -1.3979149594387281
Ni 4.9164425772010745 5.2491167233743665 3.3743346498598483 -1.3392009905372873 -0.7021343347854487 1.6107506220196581
Ni 0.7794698603921706 8.807130657059256 11.674245951046068 0.3412339833523865 -1.0011024674900888 -0.011375331716477184
Ni 7.943373764462263 0.1684616620449807 10.889603739217604 0.2542005986809622 1.6915642510336157 -0.1929006142199
Ni 9.106572399187819 5.56460804904768 6.709886798586932 -0.19680689125284173 -0.5212027200019669 0.6391888443011636
Ni 6.882949586936304 6.380474163650634 7.136837046126481 -1.0520367924461107 -1.4370507490979252 -1.3329989754916334
P 4.150844274205562 5.516339525401899 8.218544887800965 0.26961359080192276 0.40637159639198406 0.9965423589232321
Ni 3.7731078357720076 1.7517355734483784 4.619637683987844 -2.289963315011927 -0.2672844284481139 -1.0818361351957304
P 1.6349937404429014 0.9285172385993214 0.19112271582607704 0.41746539231230034 -0.7313796048038114 -1.757537215490315
Ni 5.91055857288342 1.2425805014428783 4.515442534605352 1.6905864605013787 0.20525682179240776 0.2897044480145269
P 4.363229463570431 2.0176777255834195 10.976754267728804 0.5044599533259893 -1.0404807121773951 -0.7589554575395511
P 6.960157112828964 8.659819066188403 1.5835650519544966 0.041144078338477524 1.2245920102404395 -1.561527366217472
P 8.373082476590387 4.8411422061842835 0.43400487791854747 -0.358718256180079 0.07219760521017243 0.18693616910634903
Ni 5.56670868340371 9.02734715871634 11.418010940829943 0.2424660838528534 0.2519771086670821 0.2422344274580215
