# total energy = -340895.1099679649 ev
CRYSTAL
PRIMVEC
9.06898051113508 0.00000000000000 0.00000000000000

0.00000000000000 9.06898051113508 0.00000000000000

0.00000000000000 0.00000000000000 13.27336968464962

PRIMCOORD
 96 1
Ni 6.43095900469778 1.956587145782245 11.421840123844579 -0.28005355518832414 -0.6120631917289653 0.21712092021984541
Ni 4.389685721265463 0.34925096422928525 5.804537331330532 0.28310262642729306 -0.12039216263752812 0.46803950571542613
Ni 2.481127894930078 1.5606173297533945 4.56610550112417 1.1081436627420078 -0.6441173919510326 -0.1979338057684333
Ni 3.226072071290342 4.246169108681144 4.684530059130397 0.3924529294283628 -0.7054384594580173 0.48018334016681175
Ni 5.08530371400196 4.481273352891943 3.1609332136885646 0.6321165108354145 0.4557318919926667 -0.8585088290548569
Ni 7.020986860289301 6.211716406958384 2.6745574541608637 0.2568411216276028 -0.32034325594630636 0.20097593502886676
Ni 5.31584626114294 4.749125684814716 11.626954157239894 -0.8967311057608491 -0.5067896299004304 -0.033906165829141605
Ni 5.662861721738604 7.87323521106332 12.610218438210476 -0.40241595417834564 0.3932674549098582 -0.596104868627496
Ni 1.9641778822582687 6.360266303585945 0.49118866735067085 -0.3137735731485886 0.8665486686401979 -0.9470000292187304
Ni 2.837829026441387 1.771035809701665 0.2088350359952076 -0.4091257620983535 -0.49990961495114555 0.34980732684369437
Ni 0.47614141530644316 9.14162278996019 4.695042821045579 0.30642073232794326 0.22630078694690062 -0.05887312018712441
Ni 8.587689475795877 2.359376834965181 1.395667996125124 -0.3220671806159485 1.1122065199574718 -0.44566165224085824
Ni 6.66672528446742 0.7068172764572159 4.6036157103696675 0.3671933835306257 0.28148900208327005 0.8238285040638522
Ni 0.8224866782610355 7.315801270519383 2.503410379424212 0.4193227572360133 0.2664267084335089 0.13126252969312877
Ni 7.564663157781711 3.9697375214342148 3.7686682532340123 -0.24969448328049254 -0.3691168258055837 -0.029373825176426834
Ni 7.427721555884508 3.88911428693977 12.676983363972528 0.5176941926280761 -0.37281381504119665 0.10573995994199209
Ni 8.03406450696034 8.879529260501304 6.612765758829792 0.15681209602745896 -0.04314465370827409 0.6877243300077058
Ni 6.93154857698399 0.7643445389283763 0.3136552167162707 -0.2537776522109307 -0.6611067274201775 -0.1615886914804959
Ni 1.9195947753094842 6.696135987444415 9.159819698848052 0.17646663703359286 -0.7080599562412644 -0.013028293938867886
Ni 8.82529675855791 4.928528252280309 1.3942477938167064 0.5271458249592792 -0.4025578790728486 0.32483163073496313
Ni 6.457231840505474 1.7373717549836243 6.8646684751726585 0.20642873061332193 0.4721962081962771 0.6593396082174258
Ni 3.467932705793421 4.340631607049439 0.7420611475362163 0.20801304438130624 0.5065646583738179 -1.2623018660863872
Ni 6.192970824764906 5.926569529683429 5.231579110380792 -0.8348374535798461 -1.026140127185007 -1.9015884123076798
Ni 5.352521217306666 2.7886207395609746 9.096120088413233 -0.4863218489643818 -0.3659582255719439 0.41011100882975826
P 0.16657177419644326 5.709458142304685 12.578508748738052 0.1428417498902959 -0.7832379842359994 -1.1119640649293623
P 3.9586461585785675 6.090645520512846 12.736368860498574 0.6642802400521528 0.8393245428169221 0.4156445370534777
P 2.489144873478232 8.549309551343628 1.3975661336931426 -0.9449477746753919 -0.03735967159538082 -0.12491833264265581
P 6.126467992532311 7.954248411708863 5.997651290048335 1.2675890826272556 0.006033093567957352 -0.48316196317916144
P 4.764542951253474 0.8885505718491388 12.463043398990042 -0.055701150217046004 1.174356768233971 0.288772937339193
P 4.0822654284766315 6.1849175702957195 8.4159266172997 -1.2750064581372493 -0.6831053431784557 -0.6922034488249821
P 4.562449795182132 1.073667503775356 3.7007742394298258 0.6387160184298032 -0.04524678765294143 -0.5004413190848994
P 0.10981356125116906 5.5063673984049535 3.5731773147905628 0.5294798724090946 0.2246992467877356 -0.2848854293593287
Ni 1.123655722957964 1.1358988463063893 2.4800096896642554 1.492419969896849 -0.43963575776175257 0.242011512813938
Ni 1.8442224803844744 6.360946477105303 4.785261943551113 0.4332334537798345 0.23170344601971063 -0.6865418796638306
Ni 6.059103607175198 5.575581855734719 9.378949841232247 -0.08567429954036858 0.7766662445557527 0.18397451537486378
Ni 8.589702789413172 2.136171092853 10.24212994080937 0.0727395937565715 0.4829801861856585 -0.3349720616030747
Ni 2.389068676330177 5.0809868793991075 6.981460616732429 -0.15601608248872487 -0.15159224238941635 0.5254501824244112
Ni 0.6681054273275205 0.019896435788229933 9.230858835005744 -0.5185843085425133 -0.0886791478049634 -0.3603833025873277
Ni 1.5604540881087487 1.2359478365136698 11.322993680419522 0.4031314921881315 0.00792722526687667 0.1162295466194063
Ni 4.27153504646303 6.723007375949144 1.651698005383447 -0.02170576710820778 0.7118487338597353 0.45388943946728927
Ni 5.54542749637656 7.743421827648979 8.11047973461503 -0.18288333919321406 1.0235597680523405 0.37034966977142025
Ni 5.280014720143214 2.834836262956216 4.950515088018029 -0.011663295270541203 0.1152944363996466 -0.19632815184421026
Ni 0.954519241144532 7.336750614915578 6.652413526722123 -0.9209298144942397 0.10702165486789308 1.7395047834686364
Ni 5.348004865138136 4.522247005698007 7.410800652518958 -0.8291743417567978 0.246744142402917 -1.2984780588966283
Ni 8.333250165674823 7.031125980217849 9.451913415000707 0.5577666351689298 -0.06589223181743491 -0.5515340239956565
Ni 4.783016464039209 0.34638425956970215 10.196389631979653 -1.4031777504995642 -0.4895069315605828 0.7648363418003602
Ni 8.29654800257032 7.149848000776543 4.621349194366342 -0.6393425962702086 0.2041101097824743 0.6024068995861238
Ni 7.3042020447692835 6.2934551260245755 7.212775840991398 1.5064767051002312 -0.262995828375089 0.40943480869834004
Ni 2.3741139278845824 5.347732795730393 2.5594376325606842 -0.6612468525424676 -0.6329130385947809 1.2735244742750842
Ni 2.409428537009596 5.28045910017586 11.416584649785015 -0.7516064733736475 0.053230577189366385 0.3767378326859512
Ni 1.007844845062118 3.3775603175215254 3.9368416093440346 -0.6162348066081516 0.41248850792299924 -1.3764807008243518
Ni 3.724983882228805 2.5877428268442175 2.3708763019324435 -0.027581766273010563 -0.304708634732843 1.1336793451192668
Ni 1.0264453235714666 3.368845027493498 8.387097235957249 0.029126742162627253 0.1351711207189156 -0.7493547012249933
Ni 3.8258762876000882 2.70433363704226 6.981075185071461 -0.5659332301401221 0.052037585322529736 -0.196185712729075
Ni 4.077386317097778 6.776060910458987 6.207436755174591 -0.19858198087539347 0.6218907193423483 0.12114935251852683
Ni 0.9092287537356163 7.515736009289299 11.498481169107698 0.2179860964336181 -0.1960910961327397 -0.24501713240948128
P 0.29479808606561825 5.539269658781315 8.04562654989138 -0.23061278405869318 0.14718074358528202 0.3238564113058874
P 8.647036882604835 1.5544504231778913 7.9847546475010365 -0.6383185258810684 -0.17671449137834083 0.03802661575541838
P 1.9208009496838105 3.33426500576939 10.573525896706522 -0.4219157147741701 -0.7204416177350689 -0.2939261994053583
P 3.9717054901502213 6.164149605504687 4.038780575037102 0.5875659779185495 0.14741291420074612 -0.7234683203765347
P 6.859268804326989 3.763862600595249 10.35026846140687 0.9063637437546068 0.7934234094094336 0.4962691899850808
P 6.369072283416554 7.742242860215426 10.23029038708243 -0.0036766775206388295 -0.6947704382212099 0.8605382007800598
P 2.385785705476748 8.561452915909213 5.64748707950706 -0.4821065253314536 -0.29107458888917614 0.30663901898633644
P 6.71285011806008 3.9803028834348932 1.6151962667426487 -0.037101532837987714 0.05854144787931854 -0.01935809281163763
Ni 5.202202869528777 2.8787482653659016 0.39585191928549546 0.8414305334163316 -0.5824191436102872 -0.9976350777667787
Ni 1.620354702713452 1.1560682584003878 6.995689846757378 -0.966799837553477 0.4738440282123452 -0.07984612289436573
Ni 6.8801728038218934 0.5673871463771929 9.281536296687966 1.2175705846172837 0.38891843391254305 -1.6000198658657152
Ni 2.8457190392659277 1.8176594372085204 9.192020927050462 0.12333119066119407 -0.6578414264053445 0.18048398572310206
Ni 6.314214021835349 1.8062325220833235 2.325135993102726 0.287663249214782 0.8829638767734277 1.8368737457381137
Ni 4.109372610468071 6.937996621947493 10.625040425266565 0.365774391695912 0.05418857022726151 -0.48356639770643167
Ni 8.35451692438005 7.261623182457537 0.52073268433746 -0.5996792162423157 0.7469499484382426 -0.16512447254789628
Ni 7.520814638233831 3.6695542748913414 8.239456958049574 1.265060402668131 0.04449371153700079 -0.5207772024287741
Ni 3.0975918279739405 8.392570365543008 12.506911870294488 0.13968186410507558 0.13534595573388303 -0.17388936322471987
Ni 0.05017322637987296 4.5746838495503 10.355484938851324 -0.2286335488451353 0.8110228676587516 0.12754522874254165
Ni 8.64544981105967 2.420882659075567 5.762434590482335 -0.027418758332585037 -0.2422208006112667 0.7897043086866335
Ni 3.9165388832402424 2.8548061574845365 11.451054936848001 -0.3481265967071618 -0.7301645014497877 -0.20220106568521953
Ni 0.8119122472800993 3.4775367558867414 12.641383988867412 0.930909808525087 0.09722318072023256 0.08932783713255583
Ni 3.055720346122326 8.615513107227706 8.007797112540798 0.8242398805696579 -0.7397578015651776 -1.429434627313564
Ni 5.524813704249915 7.915206451697775 3.7608897888666464 -0.24502278883643608 -0.5407281916294042 -0.49808181771378734
Ni 3.0964128605403882 8.215652698668132 3.564284272749477 -0.29153815878915595 0.6334383149706316 -0.34755504047440794
Ni 3.432146509694986 4.323155682092094 9.293893689187646 0.359794005742761 0.08211923519925858 -0.13019732165340803
Ni 7.309035811246847 6.04097471563927 11.431436918753695 0.8273087493029688 0.871297496179093 0.6411161432308636
Ni 0.7080778647130908 0.20926127806733796 0.11477157275826844 0.39429306796089514 -0.987374576381035 0.8668885684781199
Ni 4.585367108294333 0.30652427753933237 1.44082426262622 -0.24558406065654478 -0.5692101011191809 0.09867842510952038
Ni 6.154754141957303 5.787714372951768 0.4039750049026692 -0.040856886115361896 -0.5798752941425109 0.4547039649487846
Ni 7.9129936205148 8.788766906078312 11.429658491725084 0.2935132802376558 0.15607084698606022 0.1341125975474142
Ni 0.07426587933352247 4.956161435126718 5.762487190567832 -0.5971219970381008 -0.42390034930436676 0.8873697191506071
Ni 8.084333864530947 8.762911243362488 2.6845523773033078 -0.8330024572536363 0.9028667863449418 -0.26680466059821795
P 8.291741443033532 1.7832970710106066 3.6451324179543234 0.5871278619398662 -0.49817386320696144 -0.7112730638619235
P 1.8016526870529865 3.3187842564688257 1.686235402900342 -1.2210359174580647 -0.5024940878488702 -0.5277636610489362
P 4.739911600872493 0.9749335157054991 8.011713098216243 0.4616351448509791 0.21574306603571233 0.3917420194042672
P 8.570848379456597 1.6674680551542445 12.443597691520639 -0.43085826867943866 0.45533311389235126 -0.3445766745723743
P 6.4124038710897215 7.978390037155907 1.53724203313816 -0.5149400269217067 -0.6769148980970277 -0.5298801931713067
P 1.8614354049143347 3.0821201476536344 5.963153796044575 -0.4945156976290838 1.1344267648082527 1.0819886016131948
P 6.959490105159174 4.02392467847632 6.029626700642319 0.09209974345073815 -0.5153115513285125 -0.13613065641870747
P 2.6168814604134703 8.62262318775005 10.066642452121195 -0.8056495191619802 0.427679870951457 2.3978041233470058
