# total energy = -340895.0755459725 ev
CRYSTAL
PRIMVEC
9.05396965923715 0.00000000000000 0.00000000000000
0.00000000000000 9.05396965923715 0.00000000000000
0.00000000000000 0.00000000000000 13.25139978557869
PRIMCOORD
 96 1
Ni 6.377045798411162 1.8295990183754827 11.318524052387005 -0.5891199526692306 0.7360818953754871 0.8266582602031635
Ni 4.904571557624433 0.40050144062875853 6.104005236659209 -1.414192356442513 -0.12433212112188263 -0.20157628761702703
Ni 2.786024152879224 1.8666025922017992 4.534257862494011 0.8731227223132898 -1.6791910741802436 1.3777641955224658
Ni 3.4067733638178335 4.154939089182124 4.6677921441901695 0.16426572409202678 0.44733595461948766 0.7900300674571684
Ni 5.212451794464144 4.622694321525897 2.5204033192287305 -0.031089265205636776 0.09498914918339124 0.46431474856567134
Ni 7.3471967508548826 5.979042347999844 2.5869518067105495 0.07063180338494932 0.4278593339521147 -1.281044179690897
Ni 4.9265364879162465 4.531584225265993 11.41288723993044 0.7740768865620218 1.0867063188038382 -0.03627775138511172
Ni 5.745757766837897 8.064062903251818 12.496163015758773 -1.5382272580389509 -1.2370762587503792 -0.384463483464983
Ni 1.8688027068188278 6.453732921070546 0.5641664278146641 0.053681291573539805 0.517159917391161 -0.7118201946146451
Ni 2.748658420268211 1.583838067080758 0.3807248547934702 0.3277277213358356 -0.7305103148249806 -0.3396789801604408
Ni 0.5034242510484845 0.2562789477992592 4.864456134440615 -0.024504670009583604 -1.2429635707690916 -0.05865149109462157
Ni 8.613168052607936 2.321111866995315 1.3645626931078154 0.3526481387265991 0.014605665728316779 0.49687674166209267
Ni 6.867716627856575 0.6335506185806528 4.8635951019300006 0.20936004532750396 0.39851996155804914 -0.6317799534316022
Ni 1.1042221345381902 7.447143521461369 3.130073187546527 -0.8569669384890337 0.8086667087217493 -1.3141738723653302
Ni 7.719704222823599 3.8663981314451803 3.735463244426178 0.7163021416453986 -0.09053856961120536 0.29962684933456135
Ni 7.57560124239305 3.8450217091784973 12.571324544537624 1.086840016168225 0.06019415299139311 -0.8782176203376939
Ni 7.80469383562214 8.668207133912116 7.176865325839684 0.23719686503411405 0.5748001936124488 -0.43911382382001146
Ni 6.856471597591764 0.6364361186977183 0.47379966246034944 0.3419718899596756 1.2913450473962726 -0.2559831445026817
Ni 1.8232612396433021 6.393107540512431 9.300839679973564 0.0747450542223745 0.9164910619965959 -0.44953733314618066
Ni 0.18361903082569503 4.790817483351411 1.3579505790962276 -0.1254171266559453 -0.22172216643728268 0.34496542537036073
Ni 6.247646464639271 2.12867879674708 7.1970076920475154 0.5838790159852654 0.15783308109280558 -0.9488589368043401
Ni 3.562230022148604 4.380473472351575 0.520653955230398 -0.5383568631837502 0.35204830035907114 -0.9242465375722986
Ni 6.008621666739892 5.53306191258592 4.809343715982536 -0.18119309597498473 0.09582141527669949 0.3064184183350981
Ni 5.126158410040697 2.9555778419042866 9.310579035091001 0.6686670562659388 -0.9367492980249996 -0.2715817702718871
P 0.21142105532984737 5.62909736831769 12.483892170736311 -0.1733556022084369 -0.041421757479896404 0.0018823046243774033
P 4.040922449790196 6.273957300347437 12.575896799194412 0.025025318399744 -0.45450059068872695 0.2925285477268833
P 2.385576130671208 8.32930799716319 1.5603656508476467 0.5403520392369081 0.9624032511476779 0.4320237497424495
P 6.281942901549985 7.738319184356976 5.7518230210845935 0.5928688781887015 -0.5394477822550838 0.4937798479043238
P 4.669086861845457 1.0321253744748284 12.758381367627047 0.9647660949528998 0.19736687752136978 -0.7699242978462288
P 3.9917775027069453 6.000554579810788 7.990713073793408 -0.66007982881756 0.5675260285485387 1.2420030066280352
P 4.784642676072343 1.1204921179406593 3.743494115476813 0.2360468105900709 -0.08709843358140483 0.5229718960872477
P 0.3459431251112636 5.514854379685327 3.742897458879026 -0.4300727966636657 -0.1847684720310689 -1.5327004146834509
Ni 1.5949201258924564 1.2041870130839114 2.6980775136036406 -0.9366477394501288 -0.5367134140430564 -1.1482541576096483
Ni 1.868558249639158 6.3983135730424365 5.07308675633438 0.8306504120816921 -0.4160003777309997 -0.8329042411128752
Ni 5.83669583767507 5.306097002216919 9.04943357862239 0.46838711886283196 1.3414795021588186 0.956412580781882
Ni 8.644567219241083 2.2659007602684054 10.336741465175809 -0.07449745698794266 0.28589047358507536 -0.5011072348036725
Ni 2.115215543926005 5.219894157489647 7.0817470372301585 1.6583489406239116 1.2210230619422584 0.15048872491259246
Ni 0.5093781414688873 0.07673691949227969 9.168352037165176 0.30458085090572706 -0.0035296104198132756 0.5581834109913741
Ni 1.4267064243707686 1.1099351893667702 11.47127266840521 0.2514343487897347 -0.06774959674114783 -0.19908745975690229
Ni 4.180824388318272 6.780870951286468 1.6914616985258384 -0.11194017521543302 0.720469642759527 -0.030457030938276577
Ni 5.573225321808709 7.739632009951498 7.852342161527635 -0.29516752801162716 -0.265573102183962 1.3009314055331271
Ni 5.528634521443012 2.9478185899421745 4.69668064504841 -0.5638341815192482 -0.23430077443324165 0.62015059672279
Ni 0.9000868085594652 7.549091219353301 7.039130002241053 -1.2249704766257807 -0.4097993911266104 1.0472455417050546
Ni 5.055302043814919 4.426675879309171 6.9724755833147105 0.18735294492879345 -0.3811588445717823 -0.7903098034811163
Ni 8.246925927614459 7.157316900038755 9.364962608994881 -0.23404649233059047 -0.005014936716088137 -0.8920097890257799
Ni 4.633875974003386 0.06727461584513421 10.475841221995783 -0.3154890131777986 1.2258641920846436 0.010503984855117394
Ni 7.9720836259086445 7.101227558258957 4.504110859858953 1.1109685337853126 0.7066021407488153 1.1664359707249976
Ni 7.29589695900269 6.13998571191876 7.0060286893198365 -0.02213385578456188 -0.5562432565458678 -0.09037684722236049
Ni 2.4769668999892507 5.170522861165961 2.4806880815020023 -0.8088376870819747 -0.4014739019800505 1.5650711177046723
Ni 2.216819190972476 5.414798961443432 11.51732115787931 0.3435310069166793 -0.3336625987630318 0.16703737329989296
Ni 1.1755583611536904 3.402690023520386 3.9295033942815016 -0.9551213727742841 0.5953955012652972 -0.8729059783167933
Ni 3.869684722416297 2.709518109612188 2.393507408056051 -0.7163998435655274 -0.30729799272657393 0.19252060517266198
Ni 1.0748329491601076 3.594679449257368 8.287133701288374 -0.11475913272146687 -1.4339535982298401 0.8200857491919683
Ni 3.6931775847250705 2.452394426447625 6.723045058134053 -0.11334759708592092 0.05585644484798768 1.0285181404988804
Ni 4.0048604888040895 7.031140779450658 6.035627847314675 0.5958901815135286 -0.20572964766376825 -0.7992772970870493
Ni 0.6216799590152786 7.548973517748275 11.281221697563314 0.6723110807764292 -0.2591821110559536 0.5553436275497339
P 0.11588447332399686 5.691605974556224 8.075508931642137 0.3319826399574476 -0.5163230233121624 -0.03993128897729897
P 8.415049089439973 1.6279761689655863 7.9851611796240185 -0.14008475597044906 0.10682316570384184 0.6004927132825465
P 1.7742883179827817 3.3017020464078985 10.59259940338786 -0.11203556314271673 -0.535566959143439 -0.7469419780184426
P 4.022868834373099 6.062329814510313 3.9555426109011464 -0.20120604876180184 0.6799439147313386 -1.014105564617976
P 6.906558157515224 3.839254330532213 10.375515090062327 -0.19209277360662402 0.24965206007833135 0.02425141634819694
P 6.268669782090875 7.586873434566713 10.066015098058063 -0.8015252125809615 0.14719359910108842 0.05029309182759726
P 2.259934194290538 8.459395432626003 5.7872177045098985 1.453284180237652 1.2782987557352758 -0.567044718036746
P 7.025545426227104 4.036015198257565 1.3975589799814705 0.025728000893723433 0.45841895190652665 1.0367685534331306
Ni 5.457144377344015 3.1052399596799205 0.15043079979615098 -0.3584133233451505 -1.3423626760947205 0.3646464487390559
Ni 1.3594173221742465 1.1514566940321698 7.106831965452129 0.44426734299649295 0.22703766511292514 -0.5914151764613105
Ni 6.623829848272653 0.7013557970453667 9.101088286083584 0.4495807847896064 -0.4567078827526908 0.5215781010635147
Ni 2.5159714011010132 1.6891628956399805 9.220986384138975 0.8235287134352461 -0.5433579159427675 0.2529104191146289
Ni 6.430998403361253 2.2318125646588918 2.5447720784539647 -0.20130863577793717 -1.1121191024499881 -0.3743266521412973
Ni 4.056087848899343 6.827969701236186 10.31653300498977 0.498261023604129 -0.7501352881447596 -0.16885025813891566
Ni 8.149487106591994 7.293823599960305 0.10546063810348344 -0.4166922615917017 -0.0002637951843479328 0.5465748802181684
Ni 7.790279915991238 3.874836431128598 8.210885696155435 -0.8894029475305522 -0.3259498034998064 -0.2746010167141852
Ni 3.020096429397884 8.359955684318091 12.477530851683124 0.7723645318566053 -0.32302337388163077 0.5920741502015481
Ni 0.007082015034730833 4.788119400405425 10.360063585513272 0.19766641103965957 -0.2669226742333209 -0.15031234723572823
Ni 8.66230394572157 2.3175989267837633 5.759548773359122 -0.18301292279254286 0.5843862946389871 0.7382125685652448
Ni 3.781680137735162 2.5506481047356577 11.353865317391568 -0.7218045595208665 -0.8552273300901078 0.3669097908519358
Ni 1.0411883980618466 3.356098295869242 12.626636150327288 -0.3949949791239262 0.19857246779369675 0.10462307272872949
Ni 3.1965220813625543 8.471645453518345 7.9286970035020605 -1.067079545711846 -0.4796531786949546 0.5790219450032803
Ni 5.687830469225768 7.703905045841235 3.592785358813408 -0.5114718658674481 0.3821895998291418 -0.010461818763272306
Ni 3.304345805536179 8.504076772687876 3.6832797851393275 -0.3265426998887989 -0.38090970467545365 0.5733734884682513
Ni 3.279275363665597 4.302998654335477 9.414509552329143 -0.00396258419217382 0.8616064941435742 -0.47833625965574395
Ni 7.267721005553338 6.091030898197474 11.321969087826426 -0.7954065012777334 -0.3986698568723521 0.5407204783199203
Ni 0.7425450210258077 -0.08853424190375282 0.27516552842115705 -0.22353607971756986 0.22889708691916708 0.5789345274957965
Ni 4.734021931941455 0.319552614470464 1.6849419350043482 -0.8359959926643216 -0.41580188856694844 -0.2861663529542814
Ni 6.024393681813404 5.7854413156709645 0.3514986408685007 -0.10894201181905754 -0.10732015994491839 -0.39281185542967834
Ni 7.62283580188703 8.87554303815059 11.27266116929006 1.337872758644167 -0.11120869636604717 -0.012377033508114168
Ni 0.05441797898842521 4.849414774715227 5.796573171315559 -0.7165026876919789 -0.15018790584272199 0.6244325119275955
Ni 7.962042773602947 8.864723544457798 2.533190240519385 0.7544213171146233 -0.265877006577626 0.3034793903114322
P 8.43028692030606 1.6434403490721068 3.652536125906482 0.2753553783817064 0.6809001079970208 -1.1274765587426647
P 1.779376648907761 3.1137597450898946 1.4474110420918405 0.3310089631902687 1.0697290675195512 1.520364775936233
P 4.531729088779871 1.0086937011049952 8.382968158894638 0.7892160561963053 1.1521023277111448 -1.027360372745353
P 8.508486055891549 1.524643213722192 12.581859743584435 0.03129701034106868 0.05342083882330154 -1.2017446733286206
P 6.3672494032851334 7.780293387503245 1.4669033332811423 0.1334554235793895 -0.9355185109416921 -0.07905782266511546
P 1.7742883179827817 3.353843857434509 6.125194241754811 0.12766375659827692 -1.5660262825290903 -0.9088777684257121
P 7.0409733904551555 3.882043390944049 5.965687742814178 -0.4416489315370394 0.8440492019861012 0.5115276588060481
P 2.485903168001625 8.45860773726929 10.370730972516494 -1.4011540352013159 0.1632794489193575 -1.4234426713961872
