# total energy = -340864.85743643704 ev
CRYSTAL
PRIMVEC
9.38425074699916 0.00000000000000 0.00000000000000

0.00000000000000 9.38425074699916 0.00000000000000

0.00000000000000 0.00000000000000 13.73479954283534

PRIMCOORD
 96 1
Ni 0.32585590983035223 6.174921490842284 4.340800638172785 3.6015817679452553 -0.7177203621491639 -0.261162374710776
Ni 7.904598447278408 2.7992281739358353 4.254285353110767 2.096052257249642 -0.38315479195588853 0.37745311358542094
Ni 0.8681079512000567 6.694564995161983 6.79618517032681 0.8875751502931939 -0.1582287738693275 0.24489140546489438
Ni 5.468315557646916 7.763440546603418 8.437891344400379 1.8615645636165745 -0.4930694521008605 1.6712651344649476
Ni 8.925661240845951 7.6444388620894195 0.14003085215278133 -1.2445370859037987 0.44753392956290666 -1.1671733631116543
Ni 3.558066847136323 4.103704726198059 4.848164850308383 0.2946350525469248 -0.22721532834136995 -0.8212152348107211
Ni 8.161811377713244 4.847969657891549 5.748205530162665 0.10151846566147678 0.729993265979246 0.377157436721873
Ni 2.6770639968990704 5.871190829145253 1.0556747258278523 -0.6465776805660671 -0.4233892139959031 -0.308119717296921
Ni 4.426260195018745 4.679841420390344 11.990520956617736 2.7222963684646793 0.24978138656734403 0.16027228666191753
Ni 3.7036353456917306 3.4053193967117235 2.0235072335292372 -0.28079943221541315 -0.06679854568178818 0.32437654547541556
Ni 0.5266910766775579 1.0715500629221135 11.557930454931432 -2.9434976294014854 -2.574285672778934 0.12877498738458468
Ni 7.027809125654575 4.453943734906474 10.843281280367327 -1.5748474803651458 -0.116370957293277 0.3877223567219129
Ni 4.108237319338999 5.7910211744805515 2.7542119228031448 1.8487288453044868 -0.25593069399819146 1.9337464850974633
Ni 8.458381856042703 2.059223692109813 13.366239925749678 0.9343399172525586 2.6472083290805895 0.5219830498114171
Ni 4.44665217202757 0.15484576890558063 12.988368052107903 1.2691600266588012 0.41804774717833165 -0.1658181561808112
Ni 2.6180745963111836 1.8952526777171719 4.600649604659981 1.8132087980210065 0.9110328670955019 0.7676265029509877
Ni -0.06735546018446631 4.368612742296603 10.8115259140534 2.1830401333951115 -0.740346327078796 0.7480151564779633
Ni 4.603650688068828 6.753366710733681 13.111665846642445 -0.7346803870422701 0.8263810952823768 -0.3441663265078331
Ni 1.1127093869721407 3.6248920971500582 0.13731692681870292 -0.11217543115469068 0.11278144016980576 0.27683941912640064
Ni 1.4865967077202433 6.090960598850585 12.858231015583472 -2.22427111502044 0.2776032938756187 0.4719843492957871
Ni 4.023450613276072 2.708144635579802 10.791033525560914 -0.27303598621991043 -0.26194964649876173 -0.9155983749789973
Ni 5.116697064069519 1.0438008332787188 2.3337618263889626 -1.2589645741830382 0.8664175423789723 0.21146166505153907
Ni 1.3145740061331377 8.36821797426599 5.102780220119179 0.27026922210805066 0.70575573358812 -0.2864208921672487
Ni 2.797623467047428 8.158770880451 0.056107497164319835 -1.5854885050187597 0.3413615100691863 1.5915012868717429
P 7.225375757944867 6.134925813892623 7.503114860175103 -0.9630874216988962 1.2468878455241623 -1.4270563568893746
P 4.770502667459954 5.1009409069605365 0.7849709964294229 -0.20507144525447907 -1.884689322559496 -0.2001387838395521
P 3.463905274514806 0.544478924086775 11.010117306532079 -0.4032060541798088 -0.16633854746065546 -1.0346815889971148
P 5.706318926674911 9.231578432981571 4.198178794371528 -0.2170430157940585 -0.7006955454563932 -1.2744089337625664
P 7.389778447874741 3.007802532425553 1.8178419927904337 0.1646102519156391 0.25938214288190165 -0.4266750838360264
P 7.255217675518758 0.8689215657452316 7.739230117940248 -2.195252102080271 -0.013714007151982835 0.9234212134575259
P 4.170426749452891 7.536989190321794 6.853047161256206 -1.3712407925816514 1.110167378040256 -1.5964982258657021
P 8.330127300230638 5.458649779313234 12.46128189847127 0.17067111339773833 -0.02928666477925924 0.7957024352515973
Ni 7.608872551521795 3.2041210593581946 7.548495220239198 -1.1158500302473298 -1.7572528514806771 -0.01750227054982147
Ni 3.2512956881770467 6.475517812768976 5.064158397488013 -0.04815496243867191 0.39411977560782446 0.9134882706145299
Ni 8.375359389131944 5.0672326780531725 8.788197919714621 1.686164163063967 0.27894618105675834 0.45962685617169874
Ni 2.675956655303561 9.458761760826329 3.1421925114168037 -0.24929699073175776 -0.8169515744383608 -1.4401137042939651
Ni 0.6569698153892111 7.022610250706168 1.9650649347635392 1.0061870811018478 0.8345420338266143 1.2719579011189128
Ni 2.7703809869477403 7.851380360938302 11.497991368161635 0.44598895367329 2.7145617188245827 -0.006751974011852887
Ni 8.567211012679312 0.29557105561825747 6.269386174764945 2.0169725802076557 0.38204381827989686 0.1235582190703356
Ni 6.905766943878333 0.9754177976306232 0.8416312259664164 -1.2040962042799328 1.9440712640622388 -1.5132592752397034
Ni 5.946630821402017 4.528154390307207 8.635274983799887 -0.954607409252343 1.0063686009850346 0.42405255861151486
Ni 5.0150187065496725 8.143793616159197 2.1336595695299714 -1.0735836653789512 -0.7987000844273406 0.22110047369288371
Ni 7.779281161969685 9.592393492352182 12.3756309029088 -1.1526862252390728 -2.7373069829408987 -0.4876647361455214
Ni 0.6841982191126842 3.815561305095441 4.180391885387392 1.0224580503477292 -0.07808903099394293 -0.20956290536692943
Ni 6.458297712533727 6.3818723739419765 0.9523982303951657 1.4898491238458795 -0.5627100952171341 1.6528534647269792
Ni 8.09700374162353 4.9602803715784445 3.078517554399784 -0.9383341260136163 -1.109557512370399 -0.06958664994988661
Ni 8.910768434811434 6.898128163719481 10.837099874359176 0.7845122229627327 -0.13373747359618257 -0.7420831072642445
Ni 2.6091783265438724 5.829599829557994 10.898604254163981 0.14594609984723253 -1.8341352637610284 -2.070201357624809
Ni 3.3989005691580947 4.698309625983242 7.129514697501769 -0.4643733697177487 -0.770896431951511 -0.03661687989208533
Ni 5.341834625237826 5.738028310159872 6.43016654388239 0.679862667871442 0.36434871499297894 -0.02279025842163817
Ni 1.6694019134873495 2.3771527252814653 10.277242040045955 0.2977651135354743 0.49658903521834474 -1.9428080810790993
Ni 8.850446470608613 5.35427814181109 0.9749176170624821 -0.1283543549073983 -1.143801006934301 -1.8758894648796791
Ni -0.32468100162901536 1.1329981372220628 8.791865284930935 0.656244771342186 -0.3074761701756511 0.5000222292696098
Ni 2.281949500820105 2.3845568991700814 7.741962811775944 -0.5969096239169784 -0.08329551489554687 -0.17288791854339902
Ni 7.333585554028056 8.649801804052837 1.9948974680866207 1.1834075655823297 -2.370847135142188 0.44422620534591234
Ni 1.8641438862840118 8.765716070050543 8.293785850546156 -0.9003494192397268 -0.6851072040998331 -0.5224787585009131
P 9.432110488527634 0.43187166807430244 2.3852269346778723 -0.9132486437998981 -0.3389685843569775 1.9729583794102343
P 0.9860407695468636 6.50420546749331 9.01442405397682 0.6928608799033228 0.4313992287845732 0.39966564512671815
P 7.930836812541489 2.0240984413302296 11.133922789035408 0.9391424808475246 0.44072641972277 -0.4829195081510522
P 1.6134342416600895 4.37256351188736 2.3117454355650304 -0.022465528092367758 1.2730213093864204 -0.7187032948877236
P 0.7099091894802775 8.164298204177735 12.173207920824643 0.3884332667460085 1.3365244721463885 0.1819561993932544
P 2.5207599154177087 4.169722930642186 12.388610260203281 -1.3614636585902293 -1.172813077895935 -0.5683081581302019
P 1.5963736736886012 0.8203571293815073 6.412462216305376 -0.18409561433376037 -0.5452253081688094 -0.4184969189006083
P 3.2129047181157926 1.229946832333971 0.861349413767127 -0.5413743098538354 -0.4741551316948608 1.1149527152440413
Ni 3.8420061238763292 -0.09857873947750098 5.426578163747029 -0.05666865633663789 -0.2624684951167092 0.6683114726987329
Ni 6.330249610239468 1.473862279371888 5.389136879867686 0.40662356450178994 0.31474107926818057 0.7955921349259782
Ni 6.700317540908145 6.925070347793268 11.776052350194634 -0.41920500071122646 0.00930173701690011 -0.22668208154571926
Ni 6.029287302531211 2.2787963925481467 11.991757800874414 0.7274363038853472 -0.48394614964335364 0.6489322968411727
Ni 4.511891483654517 2.61983883546335 13.540685640895772 -0.535878833956903 1.0914083522651978 0.8960754744547214
Ni 5.3767628067504125 9.31648713430502 10.182238700126838 -1.348260015415762 0.46991692524379713 1.2245151342559168
Ni 2.2185964236058475 4.334059930816393 9.124576389977554 -0.37345633372120196 0.9249769879804199 0.2939987045145066
Ni 8.231949268262698 7.308463914611292 5.486612969875083 -1.3488966205584962 1.2182835515239083 1.6117428107295986
Ni 6.309097508915081 6.107936708564789 4.296876713834308 -0.5258353336779719 -0.1258431584497704 -0.7214572034837768
Ni 5.913785943569119 2.9836943920962047 3.4270664595374267 -2.485255055171823 1.2414684742808038 -0.5521613731670103
Ni 6.150259679715182 2.1864178275804163 9.697112347134272 0.8032681634139972 0.009309964547016224 -1.9101417011943294
Ni 7.402315806956099 8.600909857335864 9.827331965065826 1.3538521647915585 0.4110808289421952 0.16709985110671222
Ni 0.9467582956587165 0.707822132100267 0.6246326255251007 0.8938548126543185 -0.7050952171859857 -2.7805526810034116
Ni 6.638756855598483 4.348868278593626 13.390935520179694 -0.19543186528218598 -0.9392396685470211 0.44547344748945217
Ni 2.3226771493329 1.8098747638532535 12.392305778172021 2.2762554785075317 0.962069264847027 2.600701443768302
Ni 3.8009124895819677 0.6859136601606426 8.430489047361924 0.9296502250863731 -0.30965672276673767 0.7279127293011335
Ni 3.4906316208199764 6.566329207851536 8.640136964144236 -1.5908060605769312 -0.29831841493578304 1.1121957213241942
Ni 8.041561587841597 9.45172357271928 4.072848371111672 -1.0676367037668968 -0.5650611119478139 -0.19658603349128725
Ni 0.5136788745052443 1.384477290412356 4.423196237129476 -0.7490258571306648 -0.48530369211251256 -0.19115226407022562
Ni 8.561655536200146 7.8079875851956375 7.9347312766273905 -0.27336585875550334 0.08492482296885374 0.6143257625108969
Ni 4.475818423543185 2.166720285131486 6.581221075460973 -0.32076234576159596 0.6594195695257418 -1.2886153071699358
Ni 6.2530641473321555 8.610594404171165 6.409852456155281 -0.04386713369659542 0.21946190964819623 -0.6504273933294605
Ni 0.20786772440376983 3.0246566468792344 6.409494916199444 1.3221625469977618 -0.7978593336936001 -0.16647481592820362
Ni 1.32578818585037 2.3467852896622476 2.247604081282783 0.45476669986592 -1.4252663548684874 0.5781017471818559
P 6.179501005237271 8.169572153132616 13.701176975088286 0.5617508166276584 2.427791156627399 -0.5664921879673857
P 8.155420702912043 7.112333072694839 3.3362785250818896 -1.3813544839768856 0.5449255175402035 -0.9451974287923529
P 4.323981245447098 3.0332056993665977 8.485798883207446 -0.6635616167185733 0.2502141032293885 1.2410743241661786
P 1.4914859023919405 4.854623091715413 5.957250039617934 0.8346443637324334 -1.069234644381636 -0.6128023838878349
P 2.5081287138282566 7.186515575343143 3.1978317344657348 -0.346785509298235 1.4210317479618493 -0.2677148311173131
P 4.958534900927896 6.141260183188967 10.335684338811657 0.29051280284843517 -0.0255199986479754 -0.0342424661226378
P 0.3067523904576573 3.213524078669213 8.670312022621863 0.14701490743137907 0.33768431832791523 0.014324129932155977
P 6.278345319012678 3.847955738889489 5.588497780912736 -0.8477665029366884 -1.2185856561453594 -0.5765313173709425
