# total energy = -340889.69402963447 ev
CRYSTAL
PRIMVEC
9.10851077444317 0.00000000000000 0.00000000000000

0.00000000000000 9.10851077444317 0.00000000000000

0.00000000000000 0.00000000000000 13.33122622077583

PRIMCOORD
 96 1
Ni 6.49185428984307 2.1171276118180167 11.68288662144674 -0.39800625514642424 0.6325402286363945 -0.690281806322237
Ni 4.682639887441524 0.09685717186723647 6.1914483150723925 -0.33743594976253494 0.5654056397714263 -0.5813367091793858
Ni 2.971478604382334 1.5124317932485538 4.833889442723978 0.6249680727160914 0.14453970641800915 -0.12822579974933399
Ni 3.3506385856980994 4.347993198668823 4.843181034646052 -1.6403339921037297 0.516324308863743 -0.64846692716898
Ni 5.038928398003118 4.700765824040808 2.7419532393746233 1.4396565621518882 -1.6643889761704045 -1.367681100254851
Ni 7.221773915632105 6.115372210718354 2.654340295173021 0.16554459080445036 -0.6104773352990841 0.21330746001102618
Ni 5.114328650851796 4.622569258359979 11.559946317898241 0.25689537190430595 0.35659812451328265 -0.0651340134951717
Ni 5.61581593293559 8.131167639286609 12.32606498752289 -0.32444159438539605 -1.3649809277148686 -0.4679857696593553
Ni 1.765329597107401 6.8112077888920535 0.35518638074827075 0.96145142875737 -0.9154842179986362 0.27304575641192336
Ni 2.4826521523854765 1.5976145867543323 0.16065591444128732 0.015450016006483066 -1.0554093084627694 1.673839322950027
Ni 0.853309889773715 9.123448811711704 4.648705219404192 -0.22032657164133668 -0.08119158117866662 0.2888981500631476
Ni 8.88604458481536 2.510332916870513 1.271835033297914 -0.2509314410113872 -0.22047800961753639 0.32870834008155
Ni 7.204659023737606 0.6415033109301183 4.889520583615326 -0.9439177907489807 -0.12463782528775956 -0.13093419981943255
Ni 1.0526979249190893 7.3071479878658145 2.616013503201933 -1.3044656439386308 0.3209569782709053 0.10808557735603322
Ni 7.611199188680228 3.6155778409058166 3.887279254571478 0.6759923862827584 0.1310172464515421 -0.18121135080742984
Ni 7.738545278928761 4.314073104248858 12.660958516939731 -0.5478794579622048 -1.3212606040087826 -0.5137182386994636
Ni 8.18440688522772 8.826538683406758 7.369128671673425 -1.1418037739986142 0.15327580073942634 -1.2054182655254657
Ni 6.59266728797416 0.6616085269379566 0.34834588909698333 0.7812145260480675 0.01631390666867513 1.4739149691141262
Ni 1.616441878689367 6.583495017544271 9.469410092667133 1.4912133511832575 0.7614936505803724 -0.2759349050342602
Ni -0.14750140306606865 5.014326310186704 1.2456735684233102 1.1113302880001052 0.30970685927838276 0.46599522159188783
Ni 6.434989856582102 2.070774400082462 6.973844804444066 0.4572989793694705 -0.3901376510316249 0.5993848249303484
Ni 3.5292564835432993 4.679470125664363 0.22899342797384215 0.017740611812872672 0.09425535634116024 0.37404897299987844
Ni 6.157881630873558 5.433864320117858 4.744636966568671 1.0785857465792328 1.2971362001567532 0.5464959473511168
Ni 5.028162138173795 2.9726900363259037 9.669404754635378 0.554188173789052 -0.4065374325458869 -0.3756127179425725
P 9.36309373227811 6.026372951164787 12.452218773700647 -1.6263813865783796 -3.582996034523268 0.15932303537477077
P 4.048824159672107 6.488065149327843 12.403852581066378 -0.005556668152171076 -0.6513897572427297 0.014087074220685418
P 2.5171825170326545 8.494141796814972 1.6099721034298335 -0.5358811479497481 1.205504397481369 -1.309702723967854
P 6.539309631391947 7.843238502683618 5.837130886259584 1.4289535739120875 -0.8466079638522129 1.241222676818585
P 4.727080311897757 1.0901156875069569 12.596062198807784 -0.5960817286990443 0.5011514577780466 0.7130432683884687
P 4.052713493806728 6.043150828157692 7.884460890255164 -0.5248452018505606 0.775857118390896 1.8577590738275556
P 5.04012161292498 1.0386526011823582 4.066397209662558 -0.37743203053949836 0.6466650980735509 0.0443355886925817
P 0.08354326155207434 5.5190926561779055 3.4639329762523037 0.3678022207592182 -0.5447442547673328 0.81113985285259
Ni 1.6822599781197298 1.2028061837915476 2.4924456232556023 -0.25730546285853106 -0.11527386757435631 0.2649843195600275
Ni 1.7786371314649652 6.387006221403697 4.715987967379864 0.566053043547438 -0.25899879140055393 0.36227640584498255
Ni 6.199115859509215 5.595203372873189 9.29126492653525 -1.1849471421553077 0.6205059231796798 0.7010837820337475
Ni 8.758989966914152 2.24761613831115 10.363268340209205 -0.5578183143424715 0.9449323480564242 -0.639567310686505
Ni 2.260695959897366 5.036888091571842 6.891897353993597 0.04544553392730883 0.7428456964618819 0.47858951331713057
Ni 0.5607454319971699 9.132557322565615 9.23531407691293 -0.7535461135985215 0.302285370003331 -0.13554084535350852
Ni 1.2475380805951057 0.9423118818805385 11.492810216947317 0.7403576399327056 0.7165104010014629 0.0022507437073896724
Ni 4.018374407887482 6.938371708923509 1.366464263410284 1.5831698841879123 0.6121457241404425 0.3782527266685808
Ni 5.825912844291907 7.82719841506988 7.887872938421039 -0.5739193336693922 -0.065110616456404 0.3942141350938437
Ni 5.231655379161028 3.356795939035343 5.03319094701624 1.5876379472615947 -3.109431999445187 -0.3685362707117653
Ni 0.8064793920694157 7.341268469524567 6.869021328983999 -0.3885065431861051 -0.3471256662464731 0.3533063411358883
Ni 5.229013911013393 4.469354997286337 7.248360747963586 0.6070127737892514 -0.6196859983815457 0.08870794416036981
Ni 8.41861402481434 7.09263344874535 9.328765576571888 -1.2326357064805225 -0.017723385421692057 -0.18779157512810885
Ni 4.638727756614818 0.4342591851732454 10.49151526218119 -0.18898842364968743 -0.4080780375601295 -0.49320880589220223
Ni 8.40075223502982 7.234088622306593 4.746929578750601 -0.42599656971176314 -0.4329112945537254 0.5632939927450622
Ni 7.1799111997475284 5.849740708685739 7.173385862571786 1.2621565987577745 2.702748528239739 -1.5301704491727455
Ni 2.732935813629251 5.149414634661062 2.489513593611728 -2.7256758264598733 -0.40488909830918657 -0.5623354854865348
Ni 2.1832554006174125 5.285659740013867 11.606525420702972 0.6657629952452664 0.7964647673389187 0.009046940693616678
Ni 1.0451014268669274 3.3661685967040174 3.7487142115041814 -0.1928093400576744 0.5195019352607763 -2.06533657333334
Ni 3.5952567531907405 2.7604344078972094 2.5020714975260154 -0.45227221557884045 0.09793229097211521 0.9253258866794063
Ni 1.2705370705012318 3.247129468354251 8.254321992840172 -0.7190452516081746 -0.15476241258728185 0.02503714547428591
Ni 3.6113150578261863 2.934106384348736 6.987082203268056 -1.0582647756336936 -1.442765282984199 0.143295806708579
Ni 4.422400623834425 6.6299575314100725 5.812041493112486 -0.8069080741594297 0.9484902406110115 0.8091930135388645
Ni 0.8393984611465364 7.754193700575781 11.641120455777214 0.4198477765015479 0.8159133629818335 -1.5681659545799123
P 0.36887282915735786 5.585921800313053 8.046075020038284 -0.6768637331441182 -1.1017832677416186 -0.20873809547278888
P 8.468792811108537 1.6546885157649402 8.251256068086745 0.6932820266011416 0.7740581175089443 -1.2209143042785362
P 1.9885063300499353 3.2903220268234983 10.372054409778888 -0.924345267933692 -0.6552502686394006 0.24249667998047272
P 4.0623867323335805 6.205546468172076 3.7054943275023726 -0.47756929958273237 1.3039614506087027 1.0270376992986119
P 7.045141673153057 4.008200201263663 10.457027707535026 -0.16898986904057348 -0.4661309758388037 0.8990245297807162
P 6.370765746551173 7.745950498252992 9.980676272003686 0.020476265576480863 0.48076183837810105 1.6610496273845263
P 2.5614316627609552 8.128061637085423 6.040165058299779 0.06782055918839933 1.5075673670612488 -0.887141148079569
P 6.900981271868203 4.040453438197363 1.6990515178789154 0.1616797085324054 -0.7917113118143333 -0.7570631256128446
Ni 5.069478343407137 2.914085877491839 0.7096040031804713 0.9779203729466707 -0.40219226820331383 -0.8116584443602214
Ni 1.5509790111823065 1.0426239119146634 7.006825811394994 0.24890618305124226 -0.5090313747467556 -0.15073400815417912
Ni 6.854017789905436 0.8214082413589763 9.448946912182736 -0.8845785295587153 -0.10044528720195604 -0.9377941943497463
Ni 2.798863215189861 1.4607227771308997 9.241833038131075 -0.28508366141306385 0.5606974356624795 -0.08224830457795512
Ni 6.508021896608762 1.832450213589873 2.616106410012643 0.40463404487558696 0.37055432958305856 -0.1433179181957661
Ni 4.029532333683523 6.992321418711226 10.05627691209115 1.103753504094112 0.12125605329972021 1.2888377075933868
Ni 7.986050844362093 7.361835487032699 0.2386612013941836 -0.3365772013066655 0.17200860126223927 0.944173872623845
Ni 7.84757415385008 4.030288340084398 8.346254192888697 0.6697895999061562 -1.9493600232650041 0.43427500767047145
Ni 3.1794805582422523 8.558630053660664 12.631603608159747 -0.07953784762532755 -0.38113159087827264 -0.5170406182044773
Ni 9.352710029904651 4.777295532235371 10.239008213437977 -1.2425329109895764 -0.0015948552909456405 0.2718381092570673
Ni 8.821474351371982 2.113976067062563 5.8121216480080005 -0.6764104476567835 0.601767466229912 0.31335242645077005
Ni 3.437725057972345 2.80594052812335 11.92138204794338 0.7536237609139924 0.8477904141960882 -1.5034659432983655
Ni 0.7388359470639289 3.396190248478509 12.280192705160422 1.293216553387373 -0.8050702496197425 1.1206304823551088
Ni 3.282370296848034 8.182166191557657 8.184132719051016 -0.10916801178693457 0.802209897352812 -1.395685812997893
Ni 5.630717456692588 7.839276300462167 3.949588755620914 -0.44455273544739565 0.490615334133413 -1.535456123051717
Ni 3.0556048106290588 8.302553379513803 3.7876412543405427 1.1327799732334491 0.04351206435002184 0.1209619190980691
Ni 3.3825456992193503 4.725695818247963 9.564675096837107 0.49916579480658557 -0.3622689496458148 -1.030602790942051
Ni 7.24591146939497 6.3417915735248815 11.60720582646376 -0.056224112600051564 0.01473010712132302 -1.9222886209695085
Ni 0.4856229887295366 -0.1180144208787016 0.3738114637423485 0.6010964083048164 1.368709027298733 0.7275692299187857
Ni 4.440708730650787 0.5267360741708359 1.9710480472962437 0.17525667588589172 -0.6984381168807843 -0.5175216716059539
Ni 6.067998845767161 5.63316764611229 0.33992233825928614 -1.0225997181319162 0.954693026987614 0.9020509753118658
Ni 7.779369624575992 8.91296934289952 11.4611754479006 0.3917505040446995 -0.3369811216133035 -0.10148735531322522
Ni 9.19577038789176 4.770090700149927 5.7532506098059155 -0.22939228138803072 0.023363614426604926 -0.02199578754480083
Ni 7.925706959954931 8.637628168296636 2.8011303235413996 0.32963805098467097 -0.005227566947526481 -0.8514151554328693
P 8.745299875100722 1.4895056714292592 3.3532299570360364 -0.3801404306095969 0.41460683981758273 0.7573726864334634
P 1.9170409538901472 3.370950564902321 1.191201030112579 -0.5083811427572663 0.5572740118032273 0.415101262955498
P 4.71709738400187 1.3095488224885339 8.158683539725189 0.14580160384956825 -0.42988253502973056 0.36114229224053934
P 8.401417156322156 1.5752531926079802 12.609860681900376 0.7755107907950708 0.31317270633979616 0.2154414756348935
P 6.310512947252549 7.7335355979591105 1.6151184120622937 -1.257502130704899 1.0000398305535292 -1.025996402518291
P 1.6405703239413778 3.0270405205911923 5.67862275867765 1.6681384159105077 0.23031145076819046 2.6771488253937634
P 7.156839341754571 3.972421970629499 6.1704777905334325 -0.4953399933025921 -0.7854293354603634 -1.3504683359209904
P 2.33692508723375 8.597441418409181 10.15720832086334 1.5301791909234936 -0.2632722219649272 1.4003325677412852
