# total energy = -340892.0547909294 ev
CRYSTAL
PRIMVEC
9.07416841445439 0.00000000000000 0.00000000000000
0.00000000000000 9.07416841445439 0.00000000000000
0.00000000000000 0.00000000000000 13.28096270555378
PRIMCOORD
 96 1
Ni 6.2795513257267315 2.230058530052059 11.565248015224789 1.1332209174256098 -0.04770553360607913 -0.5286638042657025
Ni 4.570549688454386 0.43483323806754437 5.842720863213839 0.37935547281445636 -0.9801844863904992 1.4910135764676258
Ni 2.6804639483588715 1.6096213459254163 4.962869540565986 -0.4712994074136206 0.6273414580442744 -0.277052049357839
Ni 3.2544776874041683 4.35968416523306 4.789620074662918 -0.09460759747425641 0.29940984822774885 0.012246164357204716
Ni 5.279323901092931 4.236093992831199 2.8437327365361815 0.10592893602434658 0.17175020539453 -0.5377955913636415
Ni 7.220551653791741 5.941021328531707 2.812509430793336 0.15717462157320028 -0.796611577329428 -0.27345070515982584
Ni 5.151577759604428 4.540205669620918 11.529137362429399 -0.6844459163667502 0.14968756916753576 0.3775341033350014
Ni 5.620984486355404 8.07852334180704 12.473533244276549 1.0649115915262497 -1.5377202364955453 0.7105369570268473
Ni 1.8052331922152054 6.74614506030116 0.2084164051940669 0.375113923929283 -0.4280385398424564 0.1308436969881553
Ni 2.6793296773199407 1.6357912473356198 0.511946427795023 0.709812677266313 -0.740326272474138 -0.9622191601613299
Ni 0.49527990285739454 8.948781453716036 4.949389863539336 1.281330086362432 1.2221934281012758 -0.3345316316315465
Ni 8.851279515209574 2.571564854453237 1.4494441268918148 0.8254899509266752 -1.3961131303432988 0.23524462640374968
Ni 7.076181635956673 0.6246757281449175 4.801532642822181 -1.0778846067471501 -0.43363634564520803 0.2524699891431007
Ni 0.8526242806293666 7.5644444844588286 2.642898706383157 -0.15151690906679066 0.019999840160694587 -0.18097789464038508
Ni 7.723070020711173 3.5206139698104963 3.8422750881145475 -0.17700991113157258 1.4099760043683203 1.0098809850136672
Ni 7.518556415307859 4.111478439410144 12.601840169366701 0.9062112773371426 -1.0035756116209296 0.32563227225938757
Ni 7.90383652764344 8.931749239795456 7.081675137452422 -0.20696326296055326 -1.0881024278204166 -1.0247735858547835
Ni 6.9184272198622265 0.6553282687009737 0.3776868482925662 -0.44016926166771936 0.039478260600280396 0.14877405621433087
Ni 1.8644421404473746 6.592437723273616 9.366810239487616 -0.09653129685953053 -0.41449576816101524 -0.7138241124185514
Ni -0.07184382018902326 5.114845526279705 1.1753189467040914 0.516796106293839 0.4176610532628742 -0.17526027543031752
Ni 6.383142031170171 1.8857119909693982 7.075207070280024 0.2270924296102605 0.8652919134149614 -0.5849678781740699
Ni 3.4860232402072735 4.317344095891864 0.6249089342705216 -0.9979065862606106 0.40829915243200005 0.022317432550277693
Ni 5.987000139365791 5.588217664582781 4.865095377010181 -0.3903968182302825 0.3332913314665421 -0.8450948696417963
Ni 5.337208020751629 3.129236016369624 9.131299275132411 -0.3187823392170897 -0.6669665286350643 0.06487458918619796
P 0.24649524509620868 5.797912620091931 12.186478281661852 -0.1967143315390354 -0.6301740423970631 1.1167866831289863
P 3.922699441858872 5.97373370529446 12.651564796879747 0.29310216084216617 1.8399600979729214 0.877006116528096
P 2.458546088134207 8.565261730032873 1.3017883527111738 0.7378490145782389 0.09795671645214743 1.0576148007545205
P 6.441670416778982 7.7252659694425425 5.635085743911387 -0.7768770750149782 -0.4018883638096498 0.8529860994644148
P 4.764764112824212 1.2308111155958934 12.734490898827538 -0.19553933739432774 -1.637790913966902 0.6489256119729534
P 4.072386922324445 6.051390437703794 8.141588811571573 -1.2148272175441917 1.3569611427341857 -0.0031097492735752894
P 5.009222207134502 1.1120302523990973 3.9420682541196483 -0.17119998931801483 0.7712772123296975 -1.3575504395787523
P 0.19982135296946754 5.514372082864253 3.4568888080097215 0.7826402027510004 0.5173303815307542 0.7670606031451886
Ni 1.4563767914817576 1.0767771085091389 2.5955914373082773 -0.406499637329416 -0.020385762745203602 0.4864295781868397
Ni 1.9921338369260084 6.721853511731425 4.78952661072931 -0.38863355568227265 -0.8980310555191954 -0.9912865098409315
Ni 5.80796679858101 5.539434935740459 9.178088409196707 0.7608477894662574 1.2365787502886703 -0.024367115990454807
Ni 8.852341192902013 1.9308015333089612 10.26585161328051 -0.21084048652777237 0.9635941861319856 -0.2944345065003446
Ni 2.3328779311890253 5.329640164379885 7.099445081256722 -0.025483746093401274 -0.250345229490614 -0.2979137232981966
Ni 0.5501205464644349 8.665240916488358 8.783218715789593 0.3705669279885489 0.8932752860017646 0.9648913076768544
Ni 1.4067501649864727 0.9881678549478925 11.729068512835436 1.1202782412220125 0.7635384489245431 -0.7342173313629227
Ni 4.331182202566815 7.175952116540996 1.5822010241218962 -1.3333303906891232 -1.5536700749565822 -0.6554379591701744
Ni 5.673914110116054 8.04915933315121 7.825116302708005 0.5274325029617626 -0.4198189801461415 0.20367173669347502
Ni 5.187965174533317 3.0661342499318454 5.065824146810792 0.8260705060204936 -1.128466947680392 -0.4518919494212862
Ni 0.6007716465620816 7.254570710791342 6.766743422368137 0.2954984289884846 -0.11664760799343137 0.8420907927081498
Ni 5.165207160408216 4.576946977113953 6.939050989600476 -0.7589001788215833 -0.2460615145135956 0.4575038962914249
Ni 7.752170878485972 7.161251963876457 8.92378393485167 1.0543577272698035 0.009414608445680562 0.24859096580366866
Ni 4.816396130516325 0.3225177197926517 10.639020433170812 -1.305621869030261 0.7979873746310322 -0.8238480444478781
Ni 8.299061928448365 7.1047471178010975 4.725060996794321 -0.30359868949811586 -0.7766816711747205 -0.47879340179782054
Ni 7.201976831258215 5.942563937144652 6.878794882345167 0.5801349755618008 1.0779658536070467 0.4833833351613482
Ni 2.1857493661872796 5.534661923208641 2.3786072023945457 0.5203043765574136 -0.7137413228967578 0.6520438458869608
Ni 2.23622896450384 5.139064481502947 11.551648559176428 0.44969545599059974 -0.4745068586073248 -0.15085613555434021
Ni 1.09821936822908 3.447902659130899 3.777689695157848 0.10474237191541315 -0.07147898187659302 0.317059442988712
Ni 3.7012262158814693 2.3266167550541295 2.7121055732608745 0.5631101588690303 0.5353077919447813 0.2670620280246626
Ni 1.306045045066072 3.391996708164095 8.358294469518144 -1.7547773933569908 -0.5424469740927239 -0.1523445471744086
Ni 3.7694548874152134 2.639775377650358 7.144971998508895 -0.4923616274005585 -0.07804995022589138 0.2457866635856541
Ni 4.107730807897518 6.919507045891288 5.968624041118286 0.8010608713500333 -0.1128140931799541 -0.12232666065607964
Ni 0.4913898069022787 7.766154171853907 11.25261387955696 0.2904187004727321 -0.6809219623738919 0.16720526633632493
P 0.16927044309849937 5.486187716088909 8.05426627507689 1.2122872247311574 1.694966077626313 0.8554139921796171
P 8.622846402137293 1.5650762536845397 8.029617204275684 0.10228105485911418 0.7074146093477817 1.2687329664237117
P 1.8017124149103652 3.0433036424602533 10.668902576837224 -0.9325203475453165 0.4336016357525307 -0.17027696328311323
P 4.164054170606648 6.067079674714281 3.5934568559306097 -0.7492567421945483 0.2932230026907466 0.23828315611975737
P 6.835634508188615 4.0749095411150265 10.354223123631998 2.145708486824189 -0.8769858048131218 0.09519997964261669
P 6.125399354451928 7.793594456827713 10.155354558335233 0.008866963472326664 -1.3957320928547963 0.3558157378213033
P 2.4446626106176987 8.47961972950947 5.960044414979817 -0.5503736851389682 1.0061459434512672 -0.6476860831388975
P 7.242846885332957 3.8699875981376963 1.606903632516139 -2.8082995120993766 0.857173398072885 -0.13886862417516083
Ni 5.240894798293967 2.985501190316358 0.5961583393925438 1.74714995871872 -0.9430181617528469 0.2711012310910428
Ni 1.6700190102063848 1.2324172433870189 7.253450958421711 -0.5054223172392586 -0.5455798632947507 -1.1569334305512011
Ni 6.767904915912001 0.960110526528909 9.285000260242136 0.9240899573897763 -0.3173726033537566 -0.32161878022462026
Ni 2.7080494200256595 1.4945245950630661 9.384169123467409 0.7398521610511968 -0.5886666671818959 0.1368539077379772
Ni 6.69887771756685 1.833662561534958 2.5751781882748537 -1.3678366519961087 0.4338816288867947 -0.26601070394201287
Ni 4.063557756557411 6.639741362681172 10.602311792683697 0.1902199820639434 1.097159138706046 -0.7311775160953343
Ni 8.013697483390088 7.182612556081596 0.045079560754420475 0.5896156613587265 0.6702264303332587 -0.07088582837728437
Ni 7.848230024230914 3.9321819477443305 8.16663623836165 -0.940183263407213 -1.820496332821355 0.5992359580573099
Ni 3.3624149194687893 8.40362356990113 12.380765299378169 -1.7285451991333391 0.25477832556130314 0.35704369669113345
Ni 0.19689765593952044 4.7531673257221865 10.280381171580796 -0.8203235762343872 -0.7393507959347461 -0.6862217773202504
Ni 8.669723555634212 2.0879752026314753 5.860955404435685 0.4819342614196474 1.5899146591109132 0.1365602877569584
Ni 3.6916257458079618 2.7041112309784934 11.582247562139447 -0.17786660270491306 -0.028562899239357262 -0.1444353196296609
Ni 0.9206741910473752 3.4502437945552513 12.843912664827911 0.56850021953635 -0.37766651514780764 -0.9659953393743106
Ni 3.3132147788841424 8.35289896904016 7.905572416041419 -0.7381745162384578 0.032688491371956604 1.506295956547993
Ni 5.613679780864691 8.138911931919697 3.4640074930500493 0.40433759668109076 -1.5306993250930219 1.0924355079781316
Ni 3.1406240976004858 8.704559287781844 3.5874134598351883 0.3266491435596761 -0.7455659236065224 -0.1549729859361912
Ni 3.1349164457325873 4.289949181759616 9.287084596703274 1.6390399558826545 0.6621750207836918 0.81690580880209
Ni 7.286584376594115 6.065146876863944 11.290066601845613 -0.3825834928334508 1.1279460421799155 -0.8679779448875568
Ni 0.5782413940615985 -0.1128273013676581 0.3625075795411835 -0.9805166729189372 -0.013564626058312124 0.6790586839129079
Ni 4.783946904634604 0.4007488470561001 1.5994129065750424 -0.3361221160471179 0.9090839708992472 -0.5746976065963134
Ni 5.940449655928085 5.510433893817086 0.4557147141858383 -0.43089992055065146 0.29857398259001483 0.3629086401123427
Ni 7.62385306439385 8.973626526552769 11.194948447354568 0.16515069780014138 -0.17332423474986924 0.577741792739276
Ni 0.2496321850814747 4.937645167493835 5.886162536588044 -0.5417612608796089 -0.8781186328659843 -1.143104752198225
Ni 7.836914536346544 -0.22879970947206257 2.457947193025652 0.988922123373813 -0.7274717851089729 0.22867108695129004
P 8.681619790290515 1.527491048538541 3.6523182635164506 0.46445770190143876 0.0025677607271762234 -0.3633662964750516
P 1.9954912792012425 3.208671285768001 1.7894368800186442 -1.3457202797130439 1.2121314158795833 -0.5761793333481625
P 4.84062415990788 1.0539192785326126 8.444699607596542 -1.6944904235414753 0.11730966705746247 -1.0081758293971024
P 8.465473101111929 1.4350797184547996 12.550244448347833 0.9318030097633179 1.6963835267991298 -0.4535557102769544
P 6.512639487142782 7.413386804578227 1.4613975288084793 -1.3176096375197563 1.480715022755095 -0.4545476418765785
P 1.7194097083255722 3.283524100169099 6.119097344559631 0.9927718361372064 -0.5534780350959049 -0.38297790005839205
P 7.075165329105791 3.909932087044671 6.037486089600169 -0.13741029446207947 -0.5127587029996719 -0.7179808148994022
P 2.2887321023538525 8.565034875825086 10.280394782833262 0.7444495506138921 -0.3477748697946978 -0.041089570951458265
