# total energy = -340898.2720374387 ev
CRYSTAL
PRIMVEC
9.03277862030677 0.00000000000000 0.00000000000000

0.00000000000000 9.03277862030677 0.00000000000000

0.00000000000000 0.00000000000000 13.22038455807902

PRIMCOORD
 96 1
Ni 6.2391660786727785 1.9979693569911476 11.225891321187923 1.2545379058702522 0.584995903198528 0.08054057785822905
Ni 4.599725774480762 0.39285993486538284 5.993990269259759 -0.09087486990470156 -0.5794420632598344 -0.08315847509705034
Ni 2.623164103046753 1.643803136311889 4.664666937060106 0.9314937060530152 -0.9426654063991184 0.3185959342378965
Ni 3.5961479280080546 3.9760756335856087 4.928466529629964 -0.0917385034565775 1.3552341327407498 -0.7073184500895496
Ni 5.066964319128063 4.555121913180698 2.7477378641539945 0.8662848734558499 -0.3149665650154253 -0.4519125182465766
Ni 7.156471855628089 6.1316037497215525 2.524921795174791 0.1576189081994705 0.07344973244971867 0.17686412958232764
Ni 5.085038909338962 4.5334522770407935 11.540470485866036 0.09162640335874542 -0.19145179758851547 -0.8532061858950211
Ni 5.611947990184769 7.8312023601627425 12.47991108706513 -1.1319891019010377 -0.16059161767454921 0.6115510279792371
Ni 1.80673639879276 6.449494331076985 0.4965598476376076 0.7855013263488795 0.07634967970533302 -0.5337599878416872
Ni 2.573664475682567 1.5755966242266768 0.3450151125619857 0.3504706714593061 0.16936807831559866 -0.020771685329712616
Ni 0.7141730360763426 -0.11168127604576385 4.532635713844859 0.6439088754846524 0.7652724008965143 0.5455148143847702
Ni 8.493323105609733 2.330366580964624 1.4170009020852734 0.8448817251897256 0.07534463547958636 0.015501695180024914
Ni 6.8602147792976975 0.6692701898007768 4.724265211028883 0.7634500029757949 -0.45713237188461914 -0.30679122829348454
Ni 0.5591154533580325 7.281512611394953 2.403215038032036 0.5056364901325937 -0.5288419817147795 0.6877053038443125
Ni 7.680607873408054 3.877826099490674 3.7135532759262064 -0.010022931453640803 -0.3347681731223847 0.0735669747538733
Ni 7.711789025536004 3.7951219775661342 12.644848723143102 -0.23954582488226486 -0.028427659213073622 -0.44915603854736197
Ni 8.132472628680565 8.794069472962022 6.839235247451701 -0.0978117062338509 0.48060448686463036 0.5238730677452784
Ni 6.7517672380322935 0.8082250379019092 0.42390017564536203 -0.12255857416122763 -0.3839891149317258 -0.2834996047553956
Ni 1.8671295572885522 6.466503053399387 9.121245750837598 -0.11759994460437165 0.7625483170971319 0.4057488752063206
Ni 0.10830843647317502 4.847395534097294 1.458340317157341 -0.3300044331851542 -0.23230174172534188 0.03367759475810329
Ni 6.487955902850105 1.7025432963026366 6.974440589107784 0.1474936468400105 0.8422723125913365 0.5244708492302774
Ni 3.4441533605523715 4.24760096179134 0.34997681791073515 -0.6575755743384675 -0.48491854085895203 0.2633835507318109
Ni 6.109274720735372 5.6627483376840715 4.742574653486402 -0.5052914480883491 0.40938390085574655 0.16184194514188258
Ni 5.416966428819203 3.0947022503629134 9.068324506895756 -0.4658201294666043 -1.093056172281266 -0.3232763704327013
P 0.1781272995592096 5.636607476079701 12.504236360147566 -0.0250469156662988 -0.10511158232937381 0.055960831636335875
P 3.880942408147726 6.136869859713034 12.691965503481983 0.26800356600232556 1.0713015542129938 0.019320297595166725
P 2.3070620118771066 8.421033777544846 1.4486635013187914 0.013514746656983176 0.38089427805648596 -0.5748323324019649
P 6.4624473357558605 7.849800851539177 5.837752102363256 -0.823088283463718 -0.9829949592561007 -0.09506062585127499
P 4.821706311428727 0.9910764807296352 12.426130825867387 -1.017162863387061 -0.3621969587572988 1.801817268354613
P 3.88936999068984 6.289794803376475 8.202838878156795 0.5816560401920176 -0.8618378934280899 0.25063576414783933
P 4.693594410898392 1.0751174539041568 3.794726341858369 -0.7442009249381958 -0.7947662965905732 -0.6993930245948858
P 0.26504882586629314 5.486744644401015 3.7127999421812845 -0.03868584660597209 0.8833356582905496 -0.9428713517623375
Ni 1.5298094689148056 1.1300638468341457 2.553887206683683 -0.5500960059975494 0.3076687458024314 -0.4947807783650124
Ni 2.051994406492095 6.353421696652629 4.771236563630433 -0.8970352672648294 -0.07224105685359816 0.3518269283768844
Ni 5.981948671953337 5.512162883708099 9.162982608173174 -0.4771844054394878 1.1603242014003048 0.19898615829234761
Ni 8.702440965665982 2.372594821462355 10.311133691108422 -0.2470148795658004 1.0342087631257544 -0.311416899990954
Ni 2.2557287304335545 5.133653324388971 7.04100494202241 0.6645926290862489 0.031602457396629445 -0.4676530689102849
Ni 0.5641656799381997 9.076949004013882 9.06636800702585 0.13735604418537636 -0.2999392383686576 0.1956519517127921
Ni 1.432264491559726 1.174884494823395 11.409522292818847 0.5169799401698709 -0.964516440835939 -0.4080824084355037
Ni 4.085435485501337 6.978237066002157 1.6488063924427325 0.12497001181619768 -0.029496466797220167 -0.044472885601394375
Ni 5.674472884457559 7.781531110002953 7.959914037199828 -0.15694605050216195 0.6850205579232976 0.496631458420506
Ni 5.570532699771486 2.68814591313032 4.789216309664815 -0.6419111283283332 1.15269239588666 0.35173102622896846
Ni 0.9104498979097962 7.312982812441818 6.834515620572543 0.029665388274916653 -0.17223871499517435 0.2673121963622557
Ni 5.134475307252136 4.588100588273151 6.87487768898753 -0.616481375401319 -0.24194337858016396 0.6800056212072096
Ni 8.087119046747066 7.198682030568387 9.26649825225959 0.12060556419991487 -0.05703503853712112 -0.5867409109140928
Ni 4.5231549093044485 0.26878297658752565 10.344554069080091 0.08932680869129132 -0.4115924784712911 -0.47993008650542507
Ni 8.343875781751988 7.222104025779214 4.791226102929145 -1.076750493142707 -1.127801031961619 -0.10814856938348472
Ni 7.182269471641248 5.998017985289264 6.968478051877291 0.5421911493281759 0.3874624181923069 0.2027183716412702
Ni 2.497093610506254 5.020743590437819 2.653027372760025 -0.6747906526651734 0.6813680487723749 -0.5796459517405244
Ni 2.3278283701454026 5.411384171572658 11.391912890711826 -1.0487190409267875 -0.5941222909798284 0.3637784443118057
Ni 1.092478454596486 3.3671489219976856 3.6937751036494513 -0.5682824470985891 -0.07672326099466788 0.7370817973949112
Ni 3.683657488209556 2.737871359962407 2.414888097966842 -0.44195489281323236 -0.560882297979776 0.4647675198323737
Ni 1.1081141945540416 3.4005340721323627 8.260784153620527 -0.20890958805364668 -0.24595352818082158 0.03011970220351587
Ni 3.649513584662728 2.5401438338671496 6.969747157286902 0.28221790982949463 0.3276151070173713 0.4205399174725661
Ni 4.031500763787551 6.881486973174094 6.14578701886156 1.0997407833902932 -0.08133864827949218 -0.9707086856895798
Ni 0.7234713784866879 7.454318701012512 11.294148416833945 0.15104742562953985 -0.08541436101076258 0.0016017972694811124
P 0.09571312983145606 5.564254918563802 8.034675636799307 0.43490518505530257 0.15768601399198007 -0.24098358577005596
P 8.567798366123913 1.6946396149260559 8.036711625121914 -0.04648914470047478 -0.010268986026175863 -0.2426910553794659
P 1.8855925569842447 3.4292673412282517 10.460457265897757 -0.39768461014094736 -0.6154130820378046 -1.0396109079779323
P 3.9668712320739106 5.994160988777494 3.885431699169623 1.1324593566692367 0.9347533506408934 0.33216878782632475
P 6.95472474300417 3.989968047250958 10.397964889628344 0.14858996522798282 0.18426607847335363 0.700051227004175
P 6.294293127177089 7.7255459475206125 10.35433747170749 -0.6856553632938192 -0.0690390049765327 -1.0121471553400245
P 2.5387979498384516 8.452503978591713 5.804410309566416 -0.9340244428946689 0.608673706431442 -0.03881054510929445
P 6.955899004237262 3.9888841138050277 1.5974062684366814 -0.41843932618979546 0.4157602366957356 -0.33169981860970615
Ni 5.431807284249742 2.9021324409145435 0.36632343755324714 -0.44453885149032474 -0.0780293814006011 -0.15008866126069634
Ni 1.4381990271761986 1.046790659850492 6.9376609207316 0.14663618393572167 0.4013453468219862 -0.20157680183765925
Ni 7.083116659674704 0.6698934515321872 9.2978302517921 -1.0215789901768857 -0.6013802580938223 -0.124588717217379
Ni 2.658572595613834 1.641237827156519 9.207455494181852 0.291272306722279 0.07343147761727353 0.009083964579139195
Ni 6.302955561965821 1.988683660471005 2.548519929570581 0.2661796254197093 0.2289395101213283 0.2057057364043683
Ni 4.100655717637952 6.802368864399842 10.542661875159297 0.6233428784078426 0.6069400115697869 -0.624987355989801
Ni 7.882318854917109 7.286453541352656 0.4303486763707802 -0.2203214294350141 -0.8315443846508711 0.22981857029217195
Ni 7.652678521617896 3.8013545948802374 8.27475786229432 0.2222232744434173 -0.13942526800957925 -0.8233168545347562
Ni 3.008818590330309 8.465032442670932 12.433348919339418 0.6709887624205798 -0.5519387156332429 -0.037156811555955356
Ni 0.08169877365343903 5.087378399026431 10.21110740944003 0.043781258851008475 -1.2905680600209322 0.2585226230950838
Ni 8.672497304222137 2.4083104285057835 5.774267023712945 -0.006245723799395695 -0.3295992273269356 0.3085136103012299
Ni 3.6792494921961034 2.5345706093993203 11.384509625276117 0.027962546651197 0.4905829382335809 0.04886381558023843
Ni 1.1451305217325873 3.3071622385441173 12.504117127468515 -0.6109257356904124 0.9457887825194484 0.694194768223398
Ni 3.1090553357427835 8.453000781421098 8.101094561976604 0.5645885431867697 0.07536083342950246 -0.2895383547503078
Ni 5.386471767873675 7.8822014287938 3.7486925916875484 0.14349403876231415 -0.010089523025518108 0.2411851602579007
Ni 2.9593099301874073 8.318457542444904 3.558094637832902 0.47099601724058887 0.2162986814288662 0.21953955696366706
Ni 3.4908347609571364 4.478316195757766 9.331159398698734 -0.07960983851384354 -0.47315214435164316 -0.029604453129994174
Ni 7.278432433852766 6.09730628893655 11.488170697099862 -0.3939133160239732 -0.617883397955168 0.14198582964790388
Ni 0.47422810881781285 8.958610570054358 0.2877563282806773 0.6282724544989761 0.22169516985408916 0.3540679018922612
Ni 4.4105974537232235 0.5887592265485038 1.5877944886048878 0.2847645875107483 -1.381596939004995 -0.2176521101329671
Ni 5.7458950657656995 5.505370234113597 0.4103492010154805 0.8706351800047458 0.3701244411344916 0.6475562424292525
Ni 7.760069227773517 8.691601631206673 11.678543734764478 0.18832867857850147 0.4631307555598992 -1.0321056007398226
Ni 0.05691373213435367 4.818075134384858 5.794666651165367 0.09726714658429055 0.125710489526648 0.4200745478003733
Ni 7.9841092382687515 8.93306587184525 2.502340751662432 -0.5225834023995775 0.22810724402802005 -0.07179419912416667
P 8.647097130472487 1.617571946920357 3.685724187979798 -0.572225490906737 0.06931822677984836 -0.38257166575890883
P 1.6930227475358752 3.236968515141365 1.569709059059528 0.741014299680098 -0.6028997800621423 -1.0253094037535957
P 4.763589413169391 1.0994607925440252 8.272166358080675 0.15524372309907458 -0.025604587941981713 -0.1970100084025833
P 8.536454623979074 1.5475859774280751 12.383415718596861 -0.43490544216561877 0.9903472858561136 0.5688511751178654
P 6.119517891799422 7.988752086528823 1.621638503898342 0.6231862982253203 -0.4723098509560059 -0.3279331524784223
P 1.8403112372804746 3.2495240775567336 5.908414626981374 -0.9010536443956031 -0.1632390825997253 0.9314541110643313
P 6.92007500384924 3.893109561078302 5.876051084119487 0.8028061361759141 0.6902692079167467 1.1195740160661363
P 2.347519827746483 8.509202730592623 10.206242354823544 0.26157812209195597 -0.07216649486192088 0.4732292774464817
