# total energy = -340869.12785686884 ev
CRYSTAL
PRIMVEC
9.19882569331132 0.00000000000000 0.00000000000000
0.00000000000000 9.19882569331132 0.00000000000000
0.00000000000000 0.00000000000000 13.46341123371491
PRIMCOORD
 96 1
Ni 8.842610208312356 6.901428051253285 11.389372207182397 0.7512660593150933 -0.46579904642068165 -0.8371097945537905
Ni 8.119886083049188 4.685716145134763 4.5330496770234046 -0.3294827563537293 0.37800075855877485 -0.4822641339552404
Ni 7.231914255999933 8.047564916747573 12.517997268518915 -0.6368869356408645 0.6280297423605506 1.0372069265221298
Ni 3.584322367008965 5.385231633590633 4.934609687330061 -1.3186427067699613 0.3125119328273457 -1.4096327620962885
Ni 5.223359900773344 4.809237974325566 12.77312853430479 -0.9393347993639887 -0.15315161645673625 -0.13489986933539996
Ni 5.325632442994325 2.657733870392909 3.3221374418081706 1.9586301357130205 0.5406572291821528 -0.697193960061038
Ni 2.2750719272511 -0.018172279830684483 8.51858249896896 0.8071356167892036 0.9518236758596187 -0.09589906259217032
Ni 1.8071276726386374 2.0963939401940435 7.127637289696386 0.6303385929993853 -0.4810392604092038 -0.44586554072154827
Ni 3.7026284621253573 8.687324834573158 1.0141116419853444 -0.3751555758004958 0.16795397157689138 -0.5438919340693665
Ni 3.542145751962805 1.7671495768936845 2.1010329079078445 -0.8123259027408914 -0.059581459108058676 -2.7300844970505302
Ni 7.911689064872584 2.7271666054787134 9.902136451929737 -0.1440031171882488 -0.34320036305013796 -0.5016240265390909
Ni 3.4411794429668077 2.713340770710038 8.85122306865428 1.145208428804789 0.48287837050047155 0.2887001751197286
Ni 7.451444227227108 1.9782994180647966 2.337288183710141 -0.4106314001096025 0.08569898213071692 1.8968694095654561
Ni 5.358426256001864 1.1694282917313374 5.106523777976335 1.2229123085451712 -1.2118161986320097 1.0087152468403402
Ni 1.8565621610264373 7.413508270749386 10.017154886802402 0.4389261332892377 -0.6037559574148506 0.8626205372303853
Ni 4.309944122313472 8.087956959641287 10.296560933274279 0.5820123950901718 1.0033164444222722 -0.13258587649024262
Ni 9.053392096462346 0.20542173251478837 6.388321242828255 0.12876778829573307 -0.3217977290046458 0.21160384705635818
Ni 2.6342216723431853 8.949196999705999 3.0292275194610996 0.6548828579976528 0.704918068178173 2.33821983602547
Ni 5.134398059091466 -0.02531148832301262 12.834171940509002 0.2989619620570529 -1.2416301966696486 -1.6795695405655848
Ni 7.493114906869224 4.542260461024652 7.172928627066347 -0.8162470921721684 -0.5978195373257575 0.29806953214977056
Ni 3.8942951908280357 6.701289204239263 2.095822693128751 -2.5212438145616063 -1.7470645980937654 1.6449223828053607
Ni 5.887671483933325 7.333377301574446 2.196003422424652 2.257636577854764 0.9542523399057695 -1.3320294124895125
Ni 0.6379836246161171 4.773555730102218 1.248077330113706 0.2917363908428911 1.1056975151943602 0.11651339640841224
Ni 3.407649723917025 1.0587112276755954 10.898603826669708 -1.9446088817332636 1.0233543369097535 -1.6055839902170541
P 7.5245564925241375 3.8307037099525503 12.017561842258786 -0.363303047337284 1.3170136558069707 -0.05725538207804333
P 1.716841200080719 3.694009162605564 13.080605716758098 -1.0452552507479032 -0.9040101559207657 -1.1186957272262412
P 0.043227120921464204 5.751400082560629 7.449991732676228 0.8217914190291653 -0.06985610156118938 0.9181877329727284
P 4.5338619333175325 3.5975502781183164 1.138314184265224 -1.4468731345049854 0.7655120277111461 1.9156649450054042
P 3.9542071414922972 1.0804112570962914 7.1640287633679485 -0.4495874696578257 -0.954271623179479 0.596778754766069
P 7.288799793065462 7.530627717372657 9.932497175585102 -0.6341330270448111 -0.5711332862838228 -0.23511941367979508
P 2.5753859842657074 4.730477630154308 9.657910393807377 -0.9686152934956609 1.133079763862055 -2.121371195630404
P 5.857655716235262 4.029361546056555 8.595028418637359 -0.11005787059105561 -0.12090484060788856 0.06526154021197147
Ni 2.8460430277778457 4.693387965625166 7.128754946998045 -1.2655476267171946 -0.05718621940300474 0.9610091990136288
Ni 0.20119119265443314 4.467326828273067 10.941943173262615 0.5997612344331607 -2.002597799543222 1.0581539610874422
Ni 0.30240127052692417 0.04555902319282767 12.920108288474701 -1.216531087609176 -1.186095396827138 0.7570574691858898
Ni 2.4054468814603083 0.9795553340066306 12.84507714817252 0.35302737644288873 2.0953997112673077 1.8899042911015325
Ni 1.647629236807588 7.173786877488115 7.193702334756368 0.19964410359132068 0.7153634318812131 0.1768358474475535
Ni 7.440966764950646 4.662746677791195 1.836490323724208 0.545682450310886 -1.157365375882297 3.800908083185841
Ni 8.02186339822217 5.248307115605445 9.567786740461306 -1.5449810318230168 1.6868987272371463 -2.374858570294426
Ni 7.8858679616153164 6.831783743180336 6.133835734594448 -0.4972950601464339 0.33755396339763805 -0.30627700766122734
Ni 7.10872358452814 9.074714974036391 3.7525753250950697 -0.7921412002629002 -0.36205940473817 0.6564496882641404
Ni 8.71687146216929 2.6236338241603874 0.681558461142542 2.614602884340742 0.801600031682955 -1.6650628623089776
Ni 4.445249647005721 3.0608999956367664 6.651248513249164 1.3846766063715832 -0.15936494435629975 -0.8427446242420648
Ni 0.35931348418648473 3.727980425280693 8.532759728872808 0.9687811296495636 3.234306623334101 -0.59412151964888
Ni 3.8537099725982307 6.04263489877904 11.080993539827338 0.09504854166641695 -0.4813632194075258 0.43006456913354973
Ni 1.3872196849337095 2.3166874139400484 9.812712829206351 0.49113058320693487 -2.025453363985157 0.6740764002069681
Ni 6.417919383847344 3.0971893623449667 0.4864844874642695 1.0509502442501515 -0.11841472719618315 -0.5510131184951801
Ni 7.363944998804192 5.640637024377247 13.475259248858288 0.2634753391146688 0.8774354907560309 -3.734670037993214
Ni 7.233800015233186 1.8613271526499728 6.770291434290353 -0.03916407179397126 0.1825483244512985 -0.26562195314402637
Ni 3.5873855759098094 6.525334069538513 8.64738721366053 -0.09400287401072198 -0.5408217797844751 -0.3232172350599917
Ni 4.5173132461925505 2.243703932200412 12.968657849846702 -0.8668376606355265 -0.4587627083991906 -1.220398540984382
Ni 5.785914075941913 1.7516219594023177 8.631338942644275 -1.0129146296336684 -0.5366535073393983 0.5314431667830525
Ni 8.106143037710265 2.190516322997164 4.514739414809799 0.1729336841796699 -0.624699392435737 0.0848065522234346
Ni 0.2905329458306199 2.2183059749174356 11.818895727211805 2.1056807814783416 0.6413758246501534 0.31976630039691384
Ni 6.240014098134644 5.943572746667351 10.968667601186738 0.42710600072585797 0.3947854342162814 0.12702303769048448
Ni 7.379343832738166 1.7077159651568825 12.103767715812458 -3.215546826228094 -0.35414117833235786 2.5348305521071057
P 1.923814774462091 3.4978442082196635 5.052656375566563 0.8028925252421334 -0.383779570024081 0.9841059329320923
P 1.436608179193869 1.29798187848599 1.327385004403884 0.2659256004273743 -0.9467136083265631 0.15257697490018884
P 1.9378613810434402 6.229159484011532 3.5112579356046822 1.8490445767726928 -0.7072791122111819 -1.4246534038748366
P 1.1546365802822154 0.18314585661603588 10.873966612257902 0.3724890847119262 0.07989651651632693 -0.8956967509590639
P 9.213451660650607 3.319690554217706 2.8138121828926255 -1.2463165464017245 1.106742925739739 -0.05060548086169349
P 7.3736405609107685 6.479330743072679 3.480413353726541 -0.7669557021362082 -0.7427302539299402 1.8931495375117076
P 1.1993428723485917 8.9540815760614 4.689534577611461 0.975531818109836 1.7655575146916302 0.9673526247331535
P 9.009348119833989 1.729250415718073 8.158773198086513 -0.25878744672069626 -1.3456061227326825 -0.8445695932659455
Ni 5.481754909856577 5.259088139124333 6.234973141745267 1.8450454829156289 -1.8923483817666504 -0.3999466667022467
Ni 8.306281884724289 6.907425685497581 1.7499339749179184 1.7636831804870527 1.5168385079505295 -1.4096875265936237
Ni 1.6392215102749403 7.516608707267893 1.7302908028852968 -1.5511208261721674 -1.7483203248777375 -1.1452590795370663
Ni 5.452603831758152 7.137460715477802 4.577411933015031 0.22437580201004584 1.50686597011885 0.3591730843293105
Ni 3.3637621273226466 1.831017022535012 4.305894799316019 0.04642152468733296 0.1714871815411305 3.0670769315177435
Ni 1.3004103684253978 1.7931546566615129 3.5939093829743096 -1.3914735746887585 0.34696394385762824 -0.11652188104884448
Ni 3.2105740858038465 3.620078201836538 11.22645180825491 0.17801238425415794 -1.2948569172042732 1.8984033297114786
Ni 7.092855610492235 8.95217741917709 8.195931853807116 1.6099129566097112 0.2614068866214143 -0.9991828818698728
Ni 5.635292506745443 5.020489002577487 3.5394495762005302 0.17361502651741068 -0.2893815174574694 0.07300441738218395
Ni 2.930414655521221 5.262510102220771 0.44171288373664386 0.736619513046512 -0.6539330924898737 0.7934385789180852
Ni 1.1717004016367685 5.581838131601881 5.462603874989707 -0.17332680585303054 -1.5831416020531381 0.47483081760564677
Ni 5.71305937775967 3.0600445048626566 10.660827065125071 -0.9324987502787617 0.7663041845951383 0.7665504962779895
Ni 3.3583440190866187 3.944851935930259 3.147920885132223 -1.1200915791325032 0.8060351846361731 -1.2491437314378746
Ni 9.077391832265057 0.09673668901819497 2.592205116861214 0.9645799470840226 -0.35357039343055235 -0.906406166956768
Ni 0.23106069902659995 7.21778485998883 4.218140763425976 -2.350765276790648 0.5293973399976173 -1.2545340492155104
Ni 2.426309817757951 7.957765981942641 12.404662218717887 0.6120336240426105 -0.9907764029737324 -0.1668144586558095
Ni 7.867185146967826 0.34705236964013225 10.527646469129804 0.45902804624543525 -1.2762927810488407 -1.155829398853745
Ni 9.168975339222431 8.23159662026196 8.995631751089098 0.7780615822413826 -0.17552767015909124 -0.6508999620905047
Ni 9.204528799888388 3.3841099293907173 6.233693585114314 1.3181336283440266 -0.6018723672388925 -0.6874649056987322
Ni 6.099741207657242 6.396578108622243 8.153051528608058 0.9286330966757683 -0.9263890378365982 1.666123185252692
Ni 5.656523396064207 0.8755607716467955 1.4408948318899455 0.6022719166701563 0.12106733432768182 -0.907807932400301
Ni 5.0441943759633 8.310384560909803 7.913819512864882 -3.3140103071133313 1.8757830212088018 -1.209297545975214
Ni 1.699795776377222 5.713970061486949 11.898383698482334 0.606888075285929 -0.12394568431674136 0.509485945785671
Ni 3.4738536712424803 8.654181466195555 5.5613854629227895 -0.676325344142145 0.5231924967384861 0.1939694218040466
P 7.738530373132364 0.6378520814110659 0.6818399452037006 -0.8664867050540108 -1.2295812359249148 -0.6412218155707925
P 4.878643112934786 9.134866094164382 3.09795746427656 -1.0649239328214242 -0.6318285472813506 1.4591532374239193
P 0.6369735935731361 6.919880895262575 13.376006681058168 -1.0321544516998868 -0.3236903180416683 -0.09973771961197016
P 4.356563770089685 6.77896408699821 13.30632005838779 0.46157420970605667 1.3212860579300794 -0.45639755060112364
P 6.691593642132686 8.724589276787334 5.903517380787962 0.6337501897840957 0.7054942523966172 1.3930082661657301
P 5.3674319061938345 0.7598588640373971 10.868324972561544 3.4212127105334624 0.7378783251542775 -0.8773285328645212
P 4.154401181459488 6.767566742168942 6.435766025254335 -1.788457302107939 1.5944315731446606 1.8660058872173797
P 6.377462949174932 3.3877894596019416 5.223237556393821 -0.5473984045607282 -0.12521992304347468 -0.13140239770510273
