# total energy = -340873.1686485956 ev
CRYSTAL
PRIMVEC
9.15199267135139 0.00000000000000 0.00000000000000
0.00000000000000 9.15199267135139 0.00000000000000
0.00000000000000 0.00000000000000 13.39486637211783
PRIMCOORD
 96 1
Ni 3.5674834076264266 4.26533201183501 6.450338264666902 1.213418767232439 -0.7096221585220617 -0.6553052902470521
Ni 8.805342784054963 6.59186010557626 0.66181720849221 0.615913675823307 0.2568282661117964 -0.33445681252955306
Ni 1.2216812170147984 1.9184132780998366 1.9465959247772562 -0.7351262163304372 -0.8278476525255744 -0.1515343925682874
Ni 0.2222250287596378 1.9959489612365184 4.545896418799886 -1.5877988983194913 -0.8921434863901667 0.36175370057229306
Ni 4.637891335386478 1.2906323308901242 8.940537852330658 -0.25095972314616133 1.1179485646475715 -0.20472408921738938
Ni 8.036392347659307 8.02778947441232 9.724994510154369 0.21602948692787957 0.3677963072219472 -0.5111131969764489
Ni 2.5091835663618696 2.387031918247459 4.2392341891210625 1.29457023920179 1.0918598379803195 0.9011783428989254
Ni 2.2496879620585797 3.0036840421929822 8.173695119880513 0.5496769161822599 -1.2521010142939857 -0.46979274096110707
Ni 5.1372606713956745 9.009468831821788 2.7111479134255694 -1.5229842158369513 -1.815533332389125 -3.290799673324823
Ni 2.268376331388738 6.001547416955024 5.768593507017254 -0.41976318720754163 1.061226943585811 0.0652707961833521
Ni 7.507910522502592 6.517417796011367 7.731717930820106 0.39087195809448816 -0.26751248529851995 -1.1112025041729894
Ni 3.548575390468686 7.540052321272189 4.34388814217067 0.8064450184800821 -0.9838771047507379 -1.619361760727437
Ni 0.3884627414677352 2.937780541925366 12.06277406386354 0.20292560255606987 -1.348582431752187 0.07600489477140458
Ni 8.7746561521431 0.0998665456075863 0.5952465279483115 0.37298145096731244 0.4515044841748805 -0.1718445648805492
Ni 0.8096099948790529 7.7873300151661935 8.06034768885504 -0.4466440707587856 0.23837108784787336 -0.5703406151791983
Ni 5.869108928915491 -0.5554774583659061 10.553399952679527 -2.263072404158354 1.4517494887606803 -1.4836064853702773
Ni 1.9081355901675312 5.251202981954183 8.19507325989928 0.4027820792685127 1.4043319187086654 -1.6415406108173212
Ni 2.926038535142509 3.751658111054494 1.9886420101722684 1.5151066128610875 0.04583608449750816 -0.22062353405646523
Ni 7.128532964303244 6.0561207501165 4.040267119704585 -1.811386914320919 -0.47541085847883285 0.47932690570378744
Ni 3.025310201217059 7.5070227791994455 12.551431907480953 0.7896369457838078 0.128895572122849 -0.7482491268656404
Ni 3.3645379669328577 4.78543061157232 12.123104000506245 -0.8302341504798798 0.38065773656564766 3.3514023746085444
Ni 4.895702973011635 8.90213426007639 13.06177631327503 0.8610917592906848 -1.0384585395410437 0.08397814278486827
Ni 5.646386031746666 7.729370444662816 8.317556210153628 -0.18629596441918886 2.247856101429232 0.668305559161462
Ni 7.982917253635743 2.7332518064746387 2.6534290403332523 -0.8619268535974703 0.7499895065955148 -1.2686501769019185
P 4.38087592113631 6.9109260311185325 10.664202214502886 -0.5465404274358072 0.6001528134446243 -0.5852033912236437
P 4.275435811903813 1.9446245855247017 2.9322170454925534 0.44215595308044503 1.2687388799609827 -0.5854167927860304
P 4.6819673327880675 1.3459652794553247 11.632316488160562 0.6828731725629916 0.1295306346036866 0.3088457968296681
P 4.990764722390851 4.936914396661833 0.6174950224838724 -1.3023038604006216 0.03610523036298943 -0.7273763971816892
P 7.408199560772877 1.9309698122433125 10.315587249755772 0.051571701429704735 -0.1427389057638445 -0.37599452676202344
P 2.607091585506844 4.675487721874378 4.026014721292315 0.5521778282272426 0.661561555569409 0.8406733435353329
P 4.395628933555612 3.503931969512508 8.25036685489537 0.7742262676556925 -1.3491393326969217 0.9681095575038359
P 1.589920799957141 4.086712568046222 9.89911483427484 -0.791744993265746 -0.24273245014036257 2.0992267983228814
Ni 4.9658804539242976 2.759023818244338 4.977854006125398 0.7155323533589095 1.751712638388738 0.005101325782307343
Ni 0.825789802978361 3.795432092693156 3.208927548282635 0.061110237047759274 0.9485874283105082 -0.1134419565719401
Ni 3.8517992164465586 4.7774134658655525 10.076904192315222 -0.3257412870334261 1.4996234296238238 -3.7538029021679225
Ni 5.512382552935607 3.975140623627042 2.4916593305178987 0.40704188298613125 -1.7788652875441298 -0.5881840711185226
Ni 6.335201619045912 5.763833555553681 9.73359372260423 -0.1322331211365142 1.296464113790393 1.2508488870544394
Ni 8.811291579385326 8.878448902668726 5.334345175889912 -0.10312077715159015 0.14221311516736154 0.7196288920257865
Ni 7.7449837444068175 4.062075403385699 10.01815480483183 0.21966271280509267 -1.2243845222153238 2.304219310710309
Ni 7.115811694289081 7.972785997588492 12.120009711735175 1.209689382096994 -0.6518553840252387 3.408250751056156
Ni 4.4289787953769135 2.8630179126119155 13.371036793714302 0.1324930596661202 0.2566686006054805 -0.3660469286310083
Ni 1.3500836762224997 3.6160072735365647 6.026537848538243 0.11003190244912663 0.41792716244006733 0.06792880263148947
Ni 0.5006021094415031 7.680388979111881 12.259785352415252 0.8406622877917393 -0.08876065177517617 -1.68119164955004
Ni 6.760577093138196 1.03046863111127 8.271410031977071 1.256428952245378 -0.13587868830890146 1.2975303502713784
Ni 5.142577979221738 5.492101736855474 7.8897911507371 -0.5609033810256985 -0.6223861709215281 -1.3537040692494686
Ni 8.942878932092977 1.8051482150097076 7.466003547398382 0.5526696802619966 -0.610970987106051 -0.8091248793050902
Ni 0.6626326510521107 4.311814983347192 0.6947689586260182 -0.2505277778150653 -0.8772038343611988 0.0479076223145562
Ni 7.255105024947757 4.074027906003322 12.564344454144969 1.013749466830138 -2.758656652261268 -3.2198837630405515
Ni 5.711328572768608 5.8676903700290195 12.05061106541115 -0.5410899458441971 -0.1622255537335464 0.9765340341221054
Ni 3.4881264779193724 0.8531075863346739 1.013266545414421 -0.724400602382817 0.8903977073436536 0.5051466949803688
Ni 8.251702130647217 7.469115224955804 2.7156616762823935 0.21031623859318616 1.752158724787221 -0.23019729378782935
Ni 7.3090743265833815 0.6084363799946505 3.5482331059373693 0.709994454259816 0.2976401579218358 0.4231143630679617
Ni 6.294740658806622 0.6202314683358399 5.958987904763037 1.9874671145493708 0.08741750748372042 0.9674968636205016
Ni 3.0737150912205893 2.504030994406493 10.79093168942383 -0.8508240588160896 0.4965347849416416 0.17395235525217137
Ni 2.7606162649943125 0.3878385755576877 3.2627348596454175 -1.985516675691219 -1.740095365864784 -1.3381231840920762
Ni 8.32727013532847 4.195959906290152 5.687138940556785 -1.9817919185414643 -0.15760656690429628 -0.04864372914963235
P 7.202362090349469 2.6047029153818824 4.887398454730447 -0.9578068900262473 -1.389081420307498 -0.32641003096567656
P 0.2226359532370737 5.840582167308192 6.767890450597418 1.068984733154359 -0.08499809940895038 -0.20924948789156864
P 0.35484838705405264 0.32903610651596277 2.9835725379799443 0.042353268155230286 -1.682041142034529 0.6080090762642496
P 6.0250314305207375 8.220072843475313 4.301788060018044 1.3506899650134934 -2.430005133559583 1.972105801601952
P 8.184132967687098 2.1942634935652197 0.39349816791506775 1.3047998873495978 2.3367332241776144 1.0039209107754905
P 2.1420330705646244 2.625148467332702 0.22492669703890458 1.0594449119847238 0.05136986983154379 -2.4375158401143313
P 8.494147572334402 5.147218039579422 2.392671376220643 -0.012502503342384919 0.2364497024554444 1.080719505092784
P 3.442210929961779 7.327259336308663 1.9227394251039336 0.3266784541357148 1.8374753838778548 0.27906830845691943
Ni 1.8714269469827776 0.7204823976416959 12.434909650147631 -0.18554057431040302 0.34052770131398125 -0.29404344170951296
Ni 6.030842945958862 1.6129106059107936 1.6240073972001263 0.2816813205997342 1.4138799674084166 -0.6770894760016791
Ni 5.329388456580796 6.439799744939342 2.2495342085792713 0.37566208312326915 0.513396850804303 -0.06442696012581807
Ni 4.806104963343539 5.124841417144437 4.280155494598995 -0.9083126399508615 0.974166305220877 2.0379736079393544
Ni 6.666357327098048 1.3048179197548382 12.786806519518542 -1.0434847891110415 -0.3416952392595212 -2.0152429991110585
Ni 3.4282175329461997 9.196288461173664 10.525324384318054 -0.6588014763257686 -1.8920509051308898 -0.0336768234271549
Ni 1.1989568188528084 7.7402521641209745 4.082353473867987 0.6678548447772884 0.8174053741463277 -0.6758833715087198
Ni 5.164899689699827 7.2383111181304995 6.057305933186165 -0.16496326437968364 0.04672054398499051 -0.25847531479691616
Ni 8.602626143181793 0.5124237385618585 11.514213681667925 0.843057013276161 1.5104801698326698 -1.121025146690366
Ni 4.45994913906607 0.6404052061000264 4.73966607149619 -1.741934733066368 -1.2359262043063362 1.7565038891297944
Ni 2.4079167658534435 0.657955982723163 8.223389525671811 -0.9515300558786 -0.6996460211459564 -0.16986841499078487
Ni 0.027984048433313473 5.936961803652904 9.355001405388492 -1.2165190034243176 -0.18968982059208622 1.2776081574261546
Ni 2.2765765169518244 8.387755655849046 6.16484001837495 0.101578886585767 1.2700640265303094 0.05009074600880406
Ni 1.7143604462755382 8.43807331235111 1.0278200443903358 0.4558874437339245 -1.0716591946627287 0.9225375253009919
Ni 1.9944388824218877 6.806986848707851 10.23929074644637 1.9172538867590787 0.2612024839200921 0.39913831186833837
Ni 6.36032383932568 3.2207418558087375 7.134145881497264 -0.14793304837027427 0.4766563008501597 -0.5780701226129722
Ni 8.576643635577327 4.096203184596356 8.05556577260871 1.5323016365831352 -0.58836687655329 -1.673389894117434
Ni 1.7362520130912773 6.1385161414384495 2.2494536710424913 -0.8352118062001292 -0.77642867462365 0.041283946350451475
Ni 3.2614682238396906 7.248817605883203 8.144481043612737 0.6507827197863502 0.4091221625539277 -0.1912545939760448
Ni 7.058300571433687 5.171004068908061 0.8526847642665771 -0.5195944949745825 1.4800599056695993 2.790529589710465
Ni 0.6673532489465748 5.245318250573531 11.605459965242172 -0.1850790612929522 -0.6554857816889743 0.20416307450759677
Ni 0.2883710568368766 5.694305866130952 4.3627211129873205 0.5335453007277199 0.9965259038629999 0.7959232930131518
Ni 0.8262721129997613 1.8917535230269904 9.78847273232576 -1.1211552445103272 -0.1795005387639102 0.3101783995981626
Ni 5.386533499723554 3.250531592424637 10.71637589514802 1.8124089278275304 -0.8073785860379449 0.2985266742918472
P 6.366501434476442 5.384785469095709 6.0130359135368785 -0.28685695126340277 -1.0512958005150281 0.2437341519319996
P 7.980052679884352 8.657593012034354 7.2992240367155805 -0.5632636537277589 0.31625314503733276 0.8503556038201031
P 7.878666903469319 6.202973626841146 11.32461001610144 -0.05665502948988307 -0.8381886294402661 -0.40479139638905764
P 1.3011205146571965 8.811099387536192 10.079731242896067 -1.4152519080552788 0.8443842167280168 0.49786764482045226
P 1.7536957113984677 6.02141639335844 13.297097843754285 -0.2300736237257715 0.09817191778674705 0.782237310885627
P 6.898461016903217 8.693358999959067 1.2933825047313154 -1.7944474582531031 -0.6630139717452194 -0.3316867059835836
P 4.233437316871443 0.049763045737416585 7.046958506736886 0.7026215588345125 -0.4968572012780669 0.5833210865992663
P 1.655677868339702 1.4469849761577198 6.131901996230366 -0.17904288240120134 -0.5314341679219879 0.5540472773358136
