# total energy = -340891.8344108296 ev
CRYSTAL
PRIMVEC
9.06968815699799 0.00000000000000 0.00000000000000
0.00000000000000 9.06968815699799 0.00000000000000
0.00000000000000 0.00000000000000 13.27440539589428
PRIMCOORD
 96 1
Ni 6.463776385958518 1.887619807165962 11.227598420152539 0.013553570314718594 0.3287674754542596 0.8984149212211754
Ni 4.584736503921705 0.15161525835776382 6.123563308242337 -0.05782282454573913 0.18207369880772514 -0.0854686112874657
Ni 2.5080136957591725 1.331430242028614 4.646706056181137 0.42934388891744124 1.5251912507905991 1.6681294170494432
Ni 3.363856692547633 4.343083728931171 4.799693558378268 0.3025854177422531 0.18654536142583358 0.11095287160149923
Ni 5.219523987842567 4.759454979278921 2.699801324491714 -1.252343983542727 0.12281157071229816 -0.17131234652616303
Ni 7.209585924325378 6.338750732781649 2.679545082648753 1.0161156530694693 -0.38079606191572485 -0.17903054110602715
Ni 5.257380866795071 4.48302901935693 11.637021382295805 0.9043174027485393 0.26559804188462643 -0.08671199677626358
Ni 5.639604740703872 7.862666969541689 12.496406092364321 -0.3256986067209488 1.567299749924875 -0.8079753390816794
Ni 2.114960614023518 6.485852007273897 0.4514727579955637 -0.4499517949757799 0.3415767114037859 -0.8267425923868535
Ni 2.8797167312432235 1.748708461206083 0.16563427555874222 -0.3086503929894104 0.4146266373119246 1.0683632975202761
Ni 0.9177708284817266 8.814820986358091 3.9263968534306795 -1.2966548896449603 0.7784392772957756 0.5419039571050602
Ni 8.61911525228116 2.3506999522442795 1.3805380693137905 0.4412882057635109 0.7196286349154704 0.8750235388804286
Ni 6.74388463932917 0.5970902314823907 4.866901762598161 0.75819775343792 -0.20208459471201323 -0.7700654514097834
Ni 0.628599235595685 7.413735538206999 2.118488722771128 0.8921200893513991 -0.09864654343032044 0.5402787627968115
Ni 7.640133097481647 4.017518197814964 3.895069243083329 0.7898431482573429 -0.31801229382028456 -0.7804761052201462
Ni 7.538851888266841 3.7049767390935338 12.7869825799676 -0.15335936159216815 0.9282708282403432 -0.06748245912269023
Ni 7.851329859170191 8.646795940964207 6.995054238249954 -0.12615014816722792 0.13287743958873247 -0.150383823903612
Ni 6.860148973610947 0.9678808563237435 0.36584401684406126 -0.1353906929288894 -0.7161275637407474 -0.34850403465123847
Ni 1.8672674266270506 6.720475773834103 9.443677801101416 -0.4613075863082314 -0.5249375044540507 -1.2532492689658157
Ni 0.17334169667370075 5.199670440160002 1.3538169536525866 -0.25519201605995406 -2.50166512109873 0.1531225629910137
Ni 6.373587405531185 1.757433501347987 6.833623763216963 -0.06454265976807594 0.15990101936542783 1.8508096390929156
Ni 3.363793204729553 4.398617430374912 0.3926113879155807 0.43861605824798655 -0.43701914607451187 -0.06632083471442127
Ni 6.138972708659276 5.707645542309448 4.7314758978508955 -0.7501280890559081 -0.09981073894175069 1.0064020253261314
Ni 5.156643838878097 2.9216186911762767 9.245570413563389 0.7462529223712181 -0.7672256679681433 0.4936659480342789
P 0.1394591551330298 5.621256761278641 12.449082272767205 0.9489381267817077 -0.11208595676467792 -0.9691688520062857
P 4.267896012947403 6.14290895338026 12.637645627310093 -1.4275458949312834 0.4568132979823035 -0.38436938108928
P 2.4751451453701283 8.632620018155688 1.5229330825486231 -0.8789161890666153 -0.7111573642196655 -0.37885359347737335
P 6.465191257332881 7.597841140951814 5.665251098301857 -0.7656953473665459 0.7704673148338924 0.5743903597685397
P 4.8777418540509725 1.1869954558957414 12.599004220319882 -0.554234196535639 -0.0022962522333444327 -0.17585060071614875
P 4.016275650518248 6.211702539114504 8.156617381191523 -0.15547795059706773 -0.26918601634620093 -0.43918632892915976
P 4.438324525740044 0.9480545177060695 3.593965568273494 0.721595271723538 0.9162995148110799 0.8779211721431978
P 0.18839375137172998 5.7833683699027505 3.524474523509195 0.4925547172479711 -0.518471694224049 1.502419247201406
Ni 1.8986031996938684 1.4763638610178322 2.419778326191055 -1.5179808490850888 -1.327783235618649 -0.35087639153815703
Ni 1.7606169619403034 6.427425075263351 5.121053475031064 0.0031850825962009663 -0.05746904075074619 -1.117596066404159
Ni 5.939475844874116 5.30013537742806 9.307655150864194 -0.23724160222912044 1.6866495873408176 -0.8249842149348503
Ni 8.557269047782569 2.29337952220599 10.10364092579764 1.4667598461265836 0.025160815536343764 0.22386055293652415
Ni 2.315627467599016 5.298502833534565 7.228590549183325 -0.37474394218437396 -0.29203129637549063 -0.3167077160762481
Ni 0.5698702829648411 9.0607637239132 9.432089460364088 -0.3805389515995962 -0.0810807666324152 -1.0318713732418294
Ni 1.3337520822326963 1.0900495576869957 11.555303490738055 0.4479715313209575 0.8214494623087143 -0.0656502910099579
Ni 4.258572373377883 7.010315802747648 1.4831761038978575 -0.36115694752855865 -0.33408683078464396 0.6811669885051624
Ni 5.641445887428202 7.680085074430803 7.989612675731075 0.14548870059483973 0.7995398067198165 0.5145602749847848
Ni 4.752580155549644 2.369700949226908 5.237018509599032 0.21481952578017843 1.1506306282616248 -0.6934303792535476
Ni 0.8619314785423698 7.552030145362669 7.354445171870559 0.04625671697469453 -0.6310667294146616 -0.39624504948094336
Ni 4.9886278631725105 4.582723033119728 7.060178228099152 0.07681093561246771 -0.6760949732988937 -0.5324232713081346
Ni 8.087450124299433 7.198203465512394 8.985671239656552 0.17947045685692317 -0.5283017929405934 0.9398086536766137
Ni 4.69096976294678 0.35283536291939066 10.448456870324648 -0.18605942292835054 -0.6289530255057684 0.049661628891185444
Ni 8.624203347415888 7.331128817196123 5.091544337187302 -1.1419804087857943 -0.592645963544618 -0.22565338317088876
Ni 7.090446498853389 5.969795812851649 7.14591761944788 0.4368697649808412 -0.6777515350657102 -1.0609127547795019
Ni 2.4558992668034745 5.080240784662504 2.6030712848644413 -0.37356894803966634 0.9067260121900319 0.09021821015730914
Ni 2.550550533873029 5.486970956350333 11.386931076282389 -0.8934691471801257 -0.36519100838861623 1.7536291386851606
Ni 1.0292010189010967 3.4174404110074774 3.7365465101184197 -0.1339994690083176 -0.16238830456365583 0.3293894253089747
Ni 3.739994805609014 2.8946726472453026 2.5683053556836235 -0.06798896644546355 -0.39664434180189106 0.7991217453457915
Ni 1.0866484245755468 3.3329744038956757 8.112082490745793 -0.6353473590678864 0.2678878663600677 0.5342047886885896
Ni 3.513814918853499 2.6880923569000315 7.625999802208124 -0.08908872453855625 0.22844945785878723 -1.6277204171047774
Ni 3.9502755287795415 6.966019445104135 5.935066162424019 0.5206856711562323 -0.8007119726510468 0.6138076852238977
Ni 1.071610881378793 7.510028418858346 11.50460846800087 -1.097655104505858 -0.22068421209107159 1.2423591044158733
P 0.011486760228400814 5.388374374871496 7.936461581403007 0.6809134777334596 0.89752866196148 0.46015598920229134
P 8.574537734300433 1.3929862165016942 7.916019410949953 0.7210800226500163 1.1822482551669058 -0.22649927611095186
P 1.8208669012985874 3.276651639570078 10.329465280771906 -0.9839917759517309 -0.19516704165657356 0.3680469897801726
P 4.060055035928822 6.247700131966082 3.860833890667897 -0.17179519969985252 -0.7402537673649896 -0.36146110903253875
P 6.950800508141437 3.79418619318477 10.256403499725 0.5531160237707957 -0.08967930693470362 1.082293020227491
P 6.411299169470933 7.765575956320187 10.355735632924738 -0.19571211552676618 0.2582459723949294 -0.7385103023113216
P 2.069829845056663 8.606898382144834 5.885128458659649 0.9342303882578877 -1.3554609040395753 -0.6972764924725152
P 6.899366305808029 3.9320182462372824 1.8097928118877091 0.9667561287997352 0.03052927893710871 -1.8708606442065197
Ni 5.215161467771616 2.923895182938873 0.7428301457612299 0.6816603832018131 0.09388666014783185 -0.8736793661477081
Ni 1.558952442652114 1.147415336166771 7.178705449611079 -0.14134253963695012 -0.03586688909993823 -0.45412238141370176
Ni 7.052453574576428 0.6203648655906592 9.129445752481388 -1.8991407220981358 -0.5881372770409871 0.452225421501305
Ni 2.58427163496201 1.497514374126897 9.39566377822488 0.6747271464170895 0.44583623014550966 -0.010262558268272649
Ni 6.431542713750278 1.9037819917115684 2.7692932762248423 -0.4605992473872971 0.46872650448012176 0.06493963809617848
Ni 4.175203798550043 6.810564987690167 10.190429680082355 1.0666699689782533 1.2798010513124152 1.3191273597158637
Ni 8.21381809134429 7.096060635909355 0.372990931222253 -0.704008154769394 1.070420180049305 -0.9105351015234772
Ni 7.612524966304977 3.5042736067648472 8.115041930037169 -0.037559960531644995 0.6464074735367901 -0.7276795302444048
Ni 3.0229361791442715 8.572986817601613 12.64965933642856 1.0209683531760805 -0.5121946029660855 -0.5726870039241878
Ni 0.01850488503277235 4.77032953554726 10.100362233478204 0.4857592915926925 0.1876905307738703 0.3713367162750379
Ni 8.50587112420235 2.2475503872402505 5.770742456824222 0.7622171590099582 0.21659975760905278 -0.259646709397198
Ni 3.6824385636749977 2.931658836121274 11.596268551870006 -0.8063964246303339 -1.0094282137469648 -1.120049155930342
Ni 1.11841954268063 3.5798241102805037 12.391697447942006 -0.6152040513507921 0.06829569905260495 0.3869463977878368
Ni 3.2048197082562724 8.335823538318191 8.03681586847384 -0.13146641817381874 0.5138357381139345 0.2565552149560678
Ni 5.588660301538512 8.024198118114779 3.5612711558997563 -0.4160528282354899 -0.11351497590172065 -0.2616226021766462
Ni 3.1320263899829643 8.178754676387323 3.8117061100684664 0.5126162638845365 0.17404542918660992 -0.7592619330363762
Ni 3.3533539934994785 4.442514721733349 9.536916917703097 1.0232437794738185 0.35159347220983966 -1.6007017224240885
Ni 7.335319013189428 6.068401464018781 11.367629872617123 0.03319139915030413 -0.2943553165229769 -0.08914940257316259
Ni 0.3605681791615814 9.07186502238897 0.3237098728905999 1.0846136979408676 0.9712666150755789 0.15135210135415225
Ni 4.63663326035827 0.3690038962468049 1.4860167302725396 -0.024437307106757913 0.21169614965984832 -0.29482145752611805
Ni 6.199657993055825 5.8658843940306555 0.29681280527643056 0.04178916812164416 -2.113418259331915 1.1695858292078891
Ni 8.118096601055665 8.97059288286246 11.30242606951091 -0.5602420932926158 -0.4744919462089893 0.6687447035814096
Ni 0.09214531219303888 4.682680067843142 5.8519152601153115 0.08511894125753082 -0.020820279179460915 -0.03276022515015648
Ni 7.914264426264445 9.017428753229188 2.446738881623305 -0.03590776964020268 -0.924765386190246 -0.22566006803910812
P 8.600077976545343 1.5582903554064185 3.618045590702554 0.28019753696535615 0.6564656291037404 0.7750400218062394
P 1.6342762039603402 3.312023423929149 1.3580642886821643 0.7869056628955738 0.7595943766751305 0.4037621837935949
P 4.858124118264134 0.9459050015796336 8.268401289454484 -0.27856102980319764 -0.1835256007629033 -0.6606045909727785
P 8.571435900902792 1.8235424593462606 12.433020761761696 -0.33592208422116987 -0.9994381924137884 0.06472906474726917
P 6.345108584277984 7.884615615220906 1.3557950526702054 0.20045605796965477 0.32737445176147495 0.1692570066590311
P 2.000510217401181 3.204919474827542 6.041235026662186 -0.49779719659383304 -0.22373122644751145 -0.3770707905453377
P 6.677431033175603 3.6823115880388366 5.789087715342964 -0.3937451658772251 0.4165176836870504 0.8101695185195209
P 2.516675248082996 8.692869957513972 10.327646808268318 0.5698932432291347 -1.6056305271842735 0.40229254122660396
