# total energy = -340859.7748149735 ev
CRYSTAL
PRIMVEC
9.39604896101861 0.00000000000000 0.00000000000000
0.00000000000000 9.39604896101861 0.00000000000000
0.00000000000000 0.00000000000000 13.75206742163231
PRIMCOORD
 96 1
Ni 1.696823059498977 6.23142199008513 11.362851364182424 0.6988952590228609 -0.12600050996324108 3.696008102646641
Ni 8.598822261431579 3.1041632510486106 2.6262736310703194 0.6540017409442801 -0.3300838802728379 -0.3669257316915358
Ni 1.1173405409154507 1.1182989378946073 2.812270296578153 0.7411917057982267 1.5664970515179217 -0.6327487451027748
Ni 9.271391435627883 8.070679753574632 8.521482444028292 0.18204053157694455 -1.3528581763094056 1.0547799024088866
Ni 7.551040669895497 3.418442291821425 6.245983046934138 -0.1607996199202973 -0.27126963834810697 0.5100348763106055
Ni 1.2841861797280214 2.1178787990084054 0.14789380835219143 0.5991436554538198 2.0021393718495646 0.9363739169634517
Ni 3.9492532775419047 4.576063694007895 13.477094831904205 -0.0947369239632691 2.5295906438644047 -1.4105359906368482
Ni 9.077222086860539 4.7109251826533205 5.067609531334285 -0.002697601436821161 -3.9057802958108994 -2.7257298196262605
Ni 2.647825348237881 3.4114516315028713 5.438200032261834 -0.3928797325531363 1.4697857774371008 0.012700221175487806
Ni 5.055177619146815 8.31585085531121 10.044455110322922 0.5282406006853548 -0.439272717995379 -0.20741654844788796
Ni 3.665351662588826 1.675898058787393 3.664128297033079 -1.0916636628091134 1.834552553804105 0.8337071966301447
Ni -0.18834097968724087 8.474437367215167 10.79412168386308 0.45905350016673196 -0.022803628158076857 1.069968437223867
Ni 8.82281466913856 0.7597466547091696 0.5550358787759828 -0.02971603900719398 0.2020167175885553 0.8133710561759541
Ni 7.495406664860342 1.8672391968613467 10.494381149422118 0.8395729113823024 0.5965458128196565 -0.18736220090017408
Ni 2.1135284284069398 1.3327449600052848 5.635322559171816 -0.2008437803263767 -1.6920185649622148 -1.2498009054058992
Ni 5.754478552222535 5.569987133734907 1.4951659994307496 -0.7605960784667675 -1.5609416689173312 0.22523917845160563
Ni 9.071979091621623 4.228259551062234 12.828821960734397 1.512432151352718 -0.016504939633558674 0.8801516041356131
Ni 6.8489679024192744 6.7696840425161104 13.612180886116317 -1.2866232164405713 0.6412053605105602 -0.3173309514825438
Ni 3.1855048456423156 6.665547633496585 3.3447227720266586 -0.08797569398003559 0.3925940829919174 0.1853834799072485
Ni 1.8464269487355456 2.3020507518363154 7.651870609336933 -0.7197160524229541 1.3419165896962375 1.2452459390453652
Ni 5.546102377646515 1.0296472173226299 11.570136657490991 -1.2641769716219131 0.5373711022317132 -1.4294886204799508
Ni 2.059378999084597 5.374521130231054 7.632080651322232 -0.11697388098459854 -1.2494337518744676 0.37433745077457464
Ni 4.1327017346110395 5.6314278969378915 10.349723340281901 -1.8593891532318108 -0.19858172376507735 -0.915665737881823
Ni 5.638728626867349 4.01939478194782 9.405011706224816 0.12662631647269804 0.9976484475032174 0.7111532504546075
P 8.677655110991608 7.216127905924371 12.646084784560578 1.3380038849053923 -0.07877474420705788 -1.1990244461839803
P 5.164425478721841 1.059291751334775 2.1648505866407715 0.4298478251370533 -1.141420936737899 -0.6256753831957612
P 8.28970165145834 1.9596399409106127 12.598309634754507 -0.23891616171806596 1.5113355758544293 -0.35162046879303316
P 7.270906870517337 7.475693754445928 8.17961942274852 -0.6893806346642062 -0.4166979180186566 0.972874068772015
P 1.6679020212456068 7.642887047064662 1.6879560082320162 -0.8349485252364137 -1.3288088486696856 -0.1050889566215545
P 5.413016742227175 5.941055893547152 3.6876033853931243 -1.3084580529274754 0.6006739760554172 0.01746807487777637
P 1.3345490013778147 0.4794747334134255 8.851751680674916 -0.3314941303568033 2.174345690944907 0.6532928878027136
P 0.8988138148043059 7.930218219835312 4.735194237138256 1.1862303797431055 0.3842143435686544 0.08470807897235734
Ni 5.534808326970574 8.760236984028928 6.726383291155867 -0.23796511065870632 -0.6105063887648067 -0.04514754307091579
Ni 1.6065928027260359 5.656834812934354 0.3131195683490114 -0.40620164647302304 1.2466057955073693 0.5207712888915031
Ni 7.427961826464407 0.9511620215687635 5.822240037463546 -1.9568581314142621 2.3437492504841315 -1.6813207189287367
Ni 2.982465626793364 9.092199388672062 2.4257685265868427 -1.170441492339965 -2.500398081460849 2.8388547591784143
Ni 3.3268777961167166 1.623045284201556 12.674111318966734 -2.650292367322552 -1.6545565634610149 -2.6243627919409835
Ni 9.165159707722555 0.3527633775103561 4.551672490888362 0.6034546241243478 -0.0005481591939861528 -0.018621728866245347
Ni 6.874553343343227 3.9895153467152933 12.472561373855001 -1.0086921069118886 -0.5961624613383087 -0.6180363785932647
Ni 3.9049039271338777 3.6152237421594138 7.3869640466687825 -0.4434065376580944 -0.26354193068654613 1.4700593428134618
Ni 8.484293822422375 6.120304316795866 1.2385617854957638 1.5240823339971366 -1.062510952504557 0.6603104567711272
Ni 3.6317795801719015 0.622024069199497 7.7842750312171685 -0.11294881898560548 -0.4716539625395619 -1.0142348911069887
Ni 3.3716123845261694 1.2728357527591876 1.2228327997790187 -0.5694307017704193 3.1553341612939403 -2.7306524537388586
Ni 2.929218218157286 4.025624362312337 1.6081393923610277 -0.34561231492574024 -1.678615404182432 0.4940770674297684
Ni 4.895172303871752 2.640205152648705 -0.1881145349107931 2.7549560634812296 0.40678657244221555 1.2999726411642836
Ni 1.6536388191440423 5.626372822675281 4.926994841999275 1.634170286495179 1.28683713222359 1.3226860236013995
Ni 8.974729986383682 8.751348321849694 2.4309391722498805 2.546573551575646 -2.7028053496196036 -0.3433515439160216
Ni 7.25294162518256 0.6648813270556607 2.7880670144349247 -1.3803013601220226 1.1832193608309234 0.8172228258218763
Ni 5.017649800178666 9.230631375867286 3.974952410656522 -0.46364883284689823 -0.6579460703040088 0.026064558297535755
Ni 1.2426462479157574 5.1286265327357015 2.776184771103147 -1.2619097728542914 1.857474709817917 -1.499396144104366
Ni 6.758784625890409 6.0564863532426205 5.688212917952915 -1.034947698174308 0.2791377282422741 -0.23264035601168323
Ni 8.696155931108857 6.694609612482184 4.093357659406902 -0.12195127959453189 0.9507314712367047 -0.9421100481162807
Ni 5.395352170454486 6.409383154646153 8.076149193589995 -0.8663753762871272 0.5007439379269828 0.2317846928796073
Ni 1.3117635830008096 7.37259091079608 6.747080907486121 3.4404928989193135 2.0771808742664355 0.4680595603200842
Ni 8.995185184654503 2.676812158832958 8.689091981609543 -0.5854705288421014 0.19174233224574075 -0.8510904251035987
Ni 3.0688904837961246 8.600616906755294 5.327866929048644 -0.06898706869267474 -1.0593626366835627 0.23315097709951463
P 7.2878197583848054 8.611140481428384 0.9721311837097791 0.10674988926374518 0.7251004566633189 -0.9463986481893056
P 4.921171170943578 3.7674115448201793 11.44900843379395 -0.9665704951514902 -0.12096603286312717 0.3952957981937966
P 2.4188624307076267 9.071377744497447 11.615201986818741 0.7940026789516712 -0.1060384650190174 1.2405966131988118
P 3.6533998884958145 7.693193492421564 7.509990272226507 -0.538586462696053 -0.2264630235563777 -0.22237214131645572
P 7.238659630983365 4.02718410641567 0.9358483412096529 0.6174766494350528 0.6374782893679601 0.23352738660232686
P 5.789544606401086 4.525202881770893 7.002181753610666 -0.06492318303594626 0.0694750640726868 0.7406484317002471
P 1.2374126487256576 6.344954447919916 9.50937549962567 -1.3589887146871755 -0.4219270276280798 -3.8181450158894177
P 7.779468012643281 4.151108594240133 10.095846799317986 0.7471844330465519 -1.7381896642016386 0.4278871018662566
Ni 6.922398023910531 7.389165540906198 2.6672413435097346 -0.8143118228226686 -0.28482680820725137 0.6489410385919211
Ni 2.439637094638167 8.280653256449247 9.551250870380638 0.11982754838330978 -2.4558344359178608 -0.018941574099509317
Ni 5.233514625660448 3.1504857717078423 5.408825164850687 0.47938604107649696 -1.2696421085015426 -1.1140877961405844
Ni 5.770874657405164 3.008868523964244 2.4849439024204685 0.14859047944861506 1.0320842605835838 -0.25731960392591813
Ni 0.9057772265812949 4.036514382889224 10.044963436563828 -0.677553303011975 1.6369517058950582 0.06123030756539133
Ni 7.639654806272213 0.6593630275864586 7.957647165536818 0.6639925336084048 -0.9859123900132117 2.639949590635647
Ni 1.011973249501126 8.622613057031817 13.572919496141752 0.8219911937447971 -2.0373318605902977 -0.006757116218175459
Ni 4.588043656247351 8.901750875235559 13.219614906219636 -0.5445570784571913 -0.3133488269063442 0.027745288434068347
Ni 3.904537481230083 4.335477864093164 3.6878918440917525 -0.06670495752671739 -0.7370817973949112 -2.0012304868820503
Ni 6.570055589387098 1.0597803458731685 13.525625424035022 0.09584146988135751 -0.9877072771301053 1.840566364098353
Ni 7.913032846552201 8.258262472122482 6.340156825394844 1.3931974993584004 -0.40824464504498076 -0.14911832692762708
Ni 5.875311739986778 6.254263784755026 11.490691185548206 0.5372651727814682 -0.06855538047189484 0.4058208660948366
Ni 2.8722781623368108 3.1833625465124364 10.669334638757377 1.0129804498745971 0.13903985964570248 0.8548030980684955
Ni 7.1108827631446445 4.653769017710095 3.750339863727733 -0.04712112185751885 0.11105031641131197 -0.46179172503350147
Ni 4.230570979070787 5.382742672944406 5.5815376965435055 -0.1847597302803205 2.027876885824985 1.6448763600587735
Ni 6.046441977059107 2.3574404596022727 7.968332352249532 -0.19870333694460618 0.695800422147621 -2.9457054356860817
Ni 3.6366937137022823 0.833755572807446 10.00739333537601 -0.2377987602841711 1.3331534987916267 1.6719860717913722
Ni 7.591951066437138 5.191241802040594 8.174242064011546 -0.07335922961844141 -0.32280354456134086 -0.27858622661417826
Ni 0.5021060565898605 0.28988032081422893 7.006155342654639 -0.5570942916922534 0.9336701448790435 -1.9751489593036502
Ni 0.6855422987955359 0.9008142335970747 12.104211830569893 -0.003392570621316738 0.7690660636109916 -1.69671159956251
Ni 4.616833149817308 7.709176171456321 1.804037614110382 1.1488239140701892 -0.37887390519234754 -1.2721617895996025
Ni 8.93937265469186 6.269250482615366 6.460679943548183 -0.4527674100477041 -0.08969370511240682 2.0097390385736937
Ni 8.283913685388141 6.169257731123371 10.39195576089185 0.7986987988757599 0.9128904891295311 0.4986261202530316
Ni 6.833567778411063 8.436326993220472 11.89489135308794 0.28031709326235593 0.3056619997850478 -0.32155733085906557
P 4.548495686783923 1.1400789790483798 5.9084516041582 -0.8235976189999688 0.24584631317899594 -1.0552519569492986
P 0.0655280444376228 4.258749729467752 7.093274567664848 1.183270268673517 -1.009660898583061 1.4277996628133023
P 1.5061302487932764 3.279380769355578 3.569032766183596 0.025372417326517592 -1.825167255934463 -0.015678587077521386
P 1.9513620219043688 4.145978351587002 12.621496264415924 -0.533013596593966 -1.3427912789917067 -1.1312493955215355
P 6.719734647014189 8.327304638817012 4.655528897653193 1.2176811420532192 -0.24885167566422303 0.013595222185931425
P 4.5472460122914935 6.682094075460258 -0.4963133924952528 0.7513102822894674 0.6285627320458852 0.7211378724711452
P 7.165605351444719 2.4584291922686865 4.246596879930094 0.6789147021358759 0.5091969537903425 -0.2087859179915888
P 5.900446170567598 0.8874145283816325 9.293522889007347 -1.1206546507248247 -2.2051091973800085 2.0577952706509723
