# total energy = -340865.7360913418 ev
CRYSTAL
PRIMVEC
9.31807415421152 0.00000000000000 0.00000000000000
0.00000000000000 9.31807415421152 0.00000000000000
0.00000000000000 0.00000000000000 13.63794341005860
PRIMCOORD
 96 1
Ni 3.960870997861338 4.500545891134356 8.883155714763687 0.4104786765818221 0.19690073651822865 0.5568556933188861
Ni 6.948599616907114 0.009224893284187517 6.083654986433642 1.0060145600797255 -0.5772005755238253 0.059183966559323876
Ni 5.13369038494645 9.352550898322233 7.441093374164823 -0.5514995712132954 0.05101274360244118 0.6378387580311724
Ni 5.844603524566454 5.56552720753472 0.17880824968443226 0.7023307670669711 0.9644881587011649 -0.26815628953010595
Ni 1.9091988230138874 5.8815869603694235 8.899876066793128 -1.7910620867206382 -0.5045540557016923 -0.27069293990903054
Ni 3.6813846855725294 1.9943473834491456 4.4857376078947295 -0.25687840262344147 0.19469524422647758 1.5312927357026467
Ni 5.8417149216188795 6.25187790402632 9.152886935356317 -0.7401576081067575 0.9677557737088429 0.30765383340409597
Ni 3.3838213096763234 1.004898375090827 2.481300613891929 -0.21942180043888018 -1.423441900065239 -1.1475586742045205
Ni 9.117493162981916 3.3381627469566073 12.22091964815205 1.063022344923337 1.1119146997486657 -0.02576451055861369
Ni 3.6003081234859478 6.669625798689648 1.2995759434616665 1.0212668582531057 -0.18831813705554018 0.19548817244141817
Ni 8.560868693058456 7.250915210555779 8.97180321199512 -0.88504775588565 0.8276908152327358 -1.194783411519439
Ni 7.839873397344018 5.95281431821218 12.19766732623148 -0.3388590553623067 -0.7363397770225641 0.3769291227611508
Ni 5.925801221615353 8.530668815145273 2.4266128374425384 -1.5175581597253736 -1.083878619547056 -0.5532903445651309
Ni 3.8617825986855294 4.363001800459718 0.3588809620139799 -0.4491596380917877 2.388764124631925 -0.16771794430668535
Ni 7.9427635707217945 1.4759270170258563 12.874900287290174 -0.11321441394216632 -1.3306577289529662 0.056157521028174257
Ni 2.1824140714842537 4.276390302402624 4.808561350663767 -0.7478326081535122 -0.19621528041542982 0.01630413647666224
Ni 6.179168972413678 6.362604577658644 6.66775379761814 0.264201418647416 -0.16030005457605942 -1.1866651532876789
Ni 2.893234030364012 6.764269476555802 4.432877105761531 -1.8066691971302757 -0.5941541726590284 0.07858319702154208
Ni 0.9180818794051955 1.8644254773264926 3.562244722903547 -0.5318566001713873 -0.1313985410503608 0.5171252074984836
Ni 1.8893047349717256 3.2212954625421832 8.442309246401194 1.1700170032080366 -0.13521277259012843 -0.08323817929505019
Ni 5.279974829056006 2.5330531970236234 12.611537970293242 -0.44009058591098404 0.34503381671445094 -1.1965014226518105
Ni 4.043932309715124 4.814947026792711 6.396359300812147 -1.134433192566156 1.6896413229792902 0.5599860114177517
Ni 0.2949086566066456 0.3443512891876834 9.09221229634623 0.24773864510570237 0.9072296912993277 1.275533791395629
Ni 5.5946368707870455 4.379988649406258 2.5657195691310744 0.1064272158170038 0.42609427163189195 -0.3272456394930945
P 2.6599280929402873 8.967938074889783 9.76958130128568 0.6505659757898539 -0.2738402272887607 0.3940156459297924
P 7.470598123755784 0.03328136499306319 8.65357514333493 -0.5399008106321024 0.21087905307519167 -1.1281977531794054
P 3.3613647512774425 8.407903189873382 3.1979341191555304 2.744587318652396 -0.45580902508750537 1.0837480075064627
P 8.566179995252382 0.7777386392936179 1.4781624229843173 -1.3883034044908928 0.43150310135228914 0.2871076338216281
P 4.261518656259631 2.926769778777942 10.303984028275675 0.7940795549361938 0.7295219827697823 0.6794500058140557
P 6.9691459701309855 3.8807635154732973 12.081526851590962 0.1324285249767719 0.25673879172178365 -0.7986005827349988
P 1.3416628884078179 4.804445557367177 7.0955083719763055 0.19757899353217584 0.4889826836259967 -1.4727345756527799
P 3.323524052664225 1.2625151676442938 6.687829588103778 2.548129840319173 1.5767745221845297 -1.7888740779303836
Ni 6.84926894780667 3.218444131890707 0.5225445459865031 0.24415632707108276 0.24962274950229268 0.5788926185142675
Ni -0.0367318478043103 8.890812376189562 3.205721233617748 0.08549123699528502 -0.09632483727567927 0.006301516737995599
Ni 4.657620664964204 8.482019150663714 13.45058487763061 -0.6422042340887197 -0.20212598947290997 1.0395741412027257
Ni 9.086286933074094 5.483127478936669 10.257097343399538 0.3810729697261953 -0.577265881544122 0.4397972230402813
Ni 7.900571331539166 2.6512436479495167 2.7582468192016774 0.23902671915400128 0.3082079061353531 -0.5161119357426208
Ni 2.384122419891129 8.334970624484155 12.522605339996664 1.030189357553716 -0.10937395715015356 0.11756729159422334
Ni 2.118492083676651 7.155404951805353 6.842783568285665 -0.36467293110161714 -2.403640270412809 -0.9247980392003945
Ni 1.7581714792258964 7.920185877360596 2.1409393240015073 -1.3408814635635036 2.2653300898442796 -1.436388690033894
Ni 3.541762664390443 1.453507730923073 8.879092102681632 -0.816084341342059 -0.7940037073929357 -0.2045806216609896
Ni 4.975693121788185 2.804470057207274 7.385969511851089 -0.6108791987231932 0.021392863853479285 -1.128938745110488
Ni 1.9775934863532174 -0.07000109930114172 7.3611750486794785 0.774295430330731 0.9645498651770357 2.8003977407537963
Ni 1.0008170586681258 7.80556424878606 10.454970372537959 0.16236259353204296 -1.4295367001090669 -0.18710534769436163
Ni 1.2935536722196763 6.322322543651025 12.396494526150002 -0.20011590102141666 -1.8787318194244806 0.4041712463065555
Ni 0.8542297771527764 0.5434552359047305 0.12255410499153484 0.806448618024508 -1.5966054408675276 -0.5305569075233572
Ni 5.034816301473205 5.075610829552168 11.251535248590539 0.2603733031505774 -1.3328925318207563 0.1786818995173568
Ni 5.876881332987085 1.6837293858447104 9.155137250233219 1.3951769916822747 -1.166904425720984 0.8854874145262298
Ni 6.23736966277028 0.8435056057580577 0.7614441232470938 0.4718311115473745 0.2313576326445177 0.6724278088599517
Ni 4.565874908119648 2.556506789343118 1.3036209193956725 0.6293032097563356 -1.6592362283248714 0.07690786620164819
Ni 0.576316355759292 2.622693069138658 1.0183182653008136 -1.8458312120417177 -0.007207830602348877 1.1184093063340739
Ni 3.8984399018976448 1.0611329518282728 11.383099931163699 -0.8765098936179678 -1.1398304523223273 0.12602005034726682
Ni 1.9082390613893712 9.065218767704852 4.951827670596811 0.2812699440939285 -0.12640854403493712 -0.6525356979217148
Ni 7.269057500681348 2.42880258483828 5.335395006123718 0.6702855657059682 -0.7230965388594127 -0.6418391374398172
Ni 7.096346998638504 8.046883729870796 13.154082830365788 -0.7849053446360934 0.2347689723189118 0.8572556733740462
Ni 6.623948599821883 3.934305168817683 9.615513469943515 -0.29139623389465297 0.016011544936907908 0.5518952639898174
P 0.9021442455938072 2.366809438353735 10.0604375274991 -1.3942506232132634 0.9558492520792442 0.9133095789448207
P 9.338760148766076 0.7469545181391023 5.300864087403978 -1.7717541304206454 0.467275373855892 -0.15323903396421995
P 5.950484799706073 0.331548255478114 12.133664271179867 0.2037434704716749 0.7286328952966096 -0.10381626055671798
P 3.1416072934852424 0.6860832677670989 0.22076101436463172 -0.33478308552072017 0.009709256867963924 0.07926993867592155
P 4.257744836279737 7.223808933218708 7.067523400258729 0.02320626291313423 -0.1681239214958524 0.4484438429716857
P 7.072818861726814 3.252194196007199 7.274601754725885 -0.6363300346961299 0.21401502760101207 0.4758001234974515
P 3.3574604782612054 4.804352376626932 3.026341785995618 1.5864521544836097 2.1393768881792057 0.13235550564699142
P 6.426144524431244 7.845846282793678 4.436995694480329 0.4423672977603027 -0.47938167020112277 0.8847592781109536
Ni 7.09207000266129 5.022469853390833 4.555591481626285 2.053596659188593 0.0910191087920497 -0.02625764814494833
Ni 4.540362021440753 8.619302335265667 5.315579189903361 -0.7909865178331669 -0.2153124062561969 -1.0889331512518279
Ni 1.8426957287015175 4.301111152789442 11.150695983305539 0.613140483953544 -0.41584945397543216 -0.7162311791981472
Ni 8.470324967763052 6.50600973689465 2.9960375456533606 1.997634799110992 0.30745405868846404 1.9334667490735156
Ni 7.994236611632756 2.057626424149062 10.551786093459208 0.4949304165689993 0.05433538021777094 -1.0488069726549034
Ni 4.951717717323322 8.621547991105556 9.687617658551973 -0.21916186190927417 1.9538401705235446 -1.5310783056989954
Ni 1.4706902594241253 5.830244372494804 1.9369564337252676 -0.8128547786611678 -3.515014267166656 0.15553811441104182
Ni 8.197724712178298 4.938420825690457 1.3399511582095296 0.9620319838511884 -1.1626235389574429 -0.3482258412891874
Ni 2.4871150920831746 3.05603010164486 2.3500359733023553 -0.44825460977901516 1.6079090388058048 -0.3316172861982289
Ni 1.4267648584729538 2.2237397297826087 6.17597007760109 0.980470135951718 -0.05749680866488807 -0.7922463583821968
Ni 9.007754205196182 7.13233340052086 0.5440077976943795 0.874216469598101 0.10571604868259213 1.1888747593444882
Ni 8.945248564640293 3.8838105256792868 8.455825112773633 0.335350527988416 1.086892466672715 1.0346666765987793
Ni 8.781828182399808 6.594261215980043 6.358486920747247 -0.4950414882255669 -1.4449918583218726 1.0886194766661508
Ni 2.5603271996931354 2.707785721129769 13.321474575755486 -0.8327286347669594 -1.1298237188186024 -0.9361677144899166
Ni 8.753678280771998 1.97320467348771 7.421945663852019 -0.1578600776759991 -3.0470161562121265 -0.5129127120790328
Ni 9.203135581340469 8.776870967018809 7.0807932694769224 -2.2488063811576433 -0.6227427829299985 -1.5379470077943707
Ni 1.15031623831611 0.7029787995881988 11.35994265359818 -0.3409904998830128 0.798417005969283 0.40065731961602613
Ni 7.291709738634742 0.5484702233446799 3.7976900901232806 -0.5062103603581927 0.6953335098135315 0.01238757503107544
Ni 5.055409245067199 6.007688456142059 4.323105534716711 0.16168999294505057 0.34900180022326344 -0.04994702134208818
Ni 9.042687664713776 3.9071523011104885 5.840121530960701 0.42282048597662664 0.9935125709579727 -0.5820154804139653
Ni 5.391558765498578 7.508327005480709 11.435006262516797 0.6662821009735299 -1.984862587046988 1.692096212277686
Ni 5.395239404738228 3.579258594264757 5.083025221053408 -1.0479605654942081 -0.1776028075205651 -1.0751926617372838
Ni 7.540660722345487 8.857872984513197 10.75807334344169 0.02011091181726214 0.08788082027338413 0.23579535670089713
Ni 3.65251729224484 6.6882899009605845 9.983601620901037 -0.5652002086288395 0.7522762457471625 1.054046623787288
P 9.009123962077775 7.919598838697056 12.181711056272045 1.1587625133401398 0.4317365575193338 0.11781231772549387
P 0.9272573868970534 4.496930478412877 0.1799553045968398 0.5073542441546488 1.421060544317256 -1.2635815041297593
P 6.83457434507014 6.607502199168761 1.8693118753449047 -2.404602891436394 0.16281845012253893 -2.28659671253254
P 0.40837950303916426 7.173342244302384 4.613729740886923 2.2612055261529442 0.636938100593774 0.02287124817121868
P 5.801022892354186 2.1910519261049015 3.0382204667619632 -0.8338542637309704 -0.4192949893218714 1.203513078082953
P 0.13118636876776849 4.08252777232432 3.282312074868968 0.3924889248726208 0.5464226709110203 0.6193810655466172
P 3.7055091792217834 6.125058916553803 12.641596213481256 -0.22498849589338027 1.402011755215921 0.3222751828616966
P 7.485451133750728 5.400252528563373 8.17969703436323 0.6440387161942973 1.8183463763578875 -0.265291309277485
