# total energy = -340891.4646292117 ev
CRYSTAL
PRIMVEC
9.03479624616784 0.00000000000000 0.00000000000000

0.00000000000000 9.03479624616784 0.00000000000000

0.00000000000000 0.00000000000000 13.22333755746907

PRIMCOORD
 96 1
Ni 6.287576503457149 2.0783283187642256 11.361940731592341 0.4638473220109496 -0.6854404190695357 0.6082291626948557
Ni 4.667258130055535 0.1077842120799585 6.195146927076559 0.2733203502295486 -0.12866391572801714 -2.186542233011099
Ni 2.8087644660939106 1.6734700779143425 4.43489582720307 0.21888084033374564 -0.8627367510932754 1.194229595898498
Ni 3.4557281337375345 4.267658140442505 5.117497247430487 1.1235527982082263 0.0011875925501979548 -1.7748152858444723
Ni 5.116332662233871 4.464996153355476 2.631629160381502 -0.25964182430119154 -0.7186598432442978 -0.07023585349811129
Ni 6.673633333956702 6.170837905121442 2.57244130870152 1.7227563603657041 0.06805350113481183 -0.31557231692022425
Ni 5.037133641027246 4.876278134118422 11.412877104140678 -0.6891646619986583 -1.0817268633113757 -0.13816002814391046
Ni 5.608756145330458 8.03298162664267 12.331594784933467 -0.8275080097979685 0.06785989706676701 -0.1636553442015375
Ni 1.9114466029636812 6.605077302366939 0.5959821211155901 -1.1437259307219916 -0.17324324500028873 -1.4488199738187113
Ni 2.7112428787217553 1.7059772737050607 0.342265174580262 0.5919895609075418 -1.191573903443206 -0.11899373962810476
Ni 0.2931737073627948 9.048167437601055 4.941243737801784 1.304123944328496 0.07764757258115014 -0.8141925236359849
Ni 8.716771122536146 2.3189701086157495 1.3301749365969648 -0.5937263410929904 1.5344492790537574 0.703604234462756
Ni 6.936139329982084 0.5308665398196298 4.908793461225486 -0.8739233638377142 -0.07794684898912381 -0.264123514221629
Ni 0.6603776291751634 7.7110899169062295 2.7256868069904105 0.49645533785395785 -1.105648921344612 0.018778051938451532
Ni 7.630915137738126 4.048952835132355 3.7805389860420626 0.2853276591030699 -0.26329690455527555 -0.10853012109261953
Ni 7.423123865923026 3.7990413446467906 12.521469152920726 1.206388599858535 0.4234172390203611 0.7020672289929394
Ni 8.060221536400595 8.723194862449208 6.995859331142909 -1.747191610589933 0.7248544020907839 -0.0019794923238740103
Ni 6.857753440410024 0.7477097736866258 0.4001411738898125 -0.3887898787544788 0.5728530971884069 -0.3750586452113153
Ni 1.9568283829683444 6.604490040630864 9.001694254246889 -0.5841613231123746 -0.862883561083785 -0.039380558680151535
Ni 0.13110030996131114 4.832793661261077 1.24976705969362 -0.533521646578636 0.21680904540638146 0.6604510961140496
Ni 6.395072505546634 1.8351477512536711 6.857755247369211 -0.5092874566216197 0.6503500031243057 0.48937220575493134
Ni 3.59404182477703 4.479424722471034 0.4881156923925812 -0.6422543706003648 0.3405295010861942 -0.9520586746885602
Ni 5.938481023146542 5.704028068513651 4.793631434781242 -0.45873776869852606 -1.0128521518268492 0.7689668190289659
Ni 5.1134505623291355 3.023151138944926 9.348304262194508 1.5853080135768376 -1.4882923208817207 0.10786137716036907
P 0.10281778475195465 5.965251123515607 12.430148146001926 0.6163386791758676 -0.9569463417981648 -0.2414106460051455
P 3.9619748546217255 6.35643971810886 12.522434069127076 -0.6718202571829398 -0.05799817378133882 0.07554492441585053
P 2.2528625067256196 8.639189329802711 1.2468036466254275 0.36935028197262837 -0.33425035294570177 0.5927403230306373
P 6.2926992327549085 7.482898075859489 6.013484285118811 -0.15821874656699847 1.0306135895753281 0.04661924252043584
P 4.7888845529945705 1.096625461558035 12.697497696130531 -0.5497285953558017 -0.2181935844587339 -0.3855567165291618
P 4.049865349522256 5.969714312709774 8.085515351113129 -0.9289007485148583 0.3653799844709707 2.2184123422468183
P 4.77730194459999 0.9931770480494957 3.8083209835563645 -0.13936407575434062 -0.4604820050831424 0.410318496854874
P 0.17929733238075696 5.642492073368964 3.649098967753422 0.8505957448553674 -0.6279811485108023 -0.8781086055636554
Ni 1.4729066428509305 1.1885906494273297 2.4899147721503363 -0.15977812063431837 -0.4677520563819944 0.4026800064730097
Ni 2.165938734990628 6.262775988602918 4.590283475609242 -1.9599617100402504 -0.5267303346884155 1.0593160997163436
Ni 5.942546681319366 5.652945332271093 9.233883089017311 0.5842253435810907 -0.4251115960036485 0.5133140612825094
Ni 8.682059436536163 2.443108204825997 10.199279043032101 -0.0283060460335448 -0.973632287094278 0.26833986629582174
Ni 2.2286131144237054 5.0613559289413415 6.871705875779565 -0.026327582150935305 0.8576122853825165 1.2128940050772208
Ni 0.669410618155586 8.725137343576225 8.625516973107299 0.9949801566424348 0.5435944574336057 1.6204524226884545
Ni 1.5379119996364277 1.250668732328393 11.54410570820433 0.14554372220249126 -0.7930220602059569 -1.3053207928500745
Ni 4.051554856362963 6.998199343291268 1.4820715398520712 1.1531130283638464 -0.6062409286202333 0.36381238287353473
Ni 5.806148367019067 7.859721344908761 8.240995154437885 0.0017676334233840527 0.2340110111069647 -1.0203404897840944
Ni 5.4530324025153325 2.90895131826825 4.567314313891971 0.06612183132973773 0.34619055602671345 1.076308520509282
Ni 0.5199091393040702 7.068878551926841 6.705422263470222 1.1965312474484813 -0.7840070011915401 0.4613003872193797
Ni 5.18456344116981 4.296171956427916 7.34116019715888 0.3024599479079823 0.14340842102704332 -1.2623584303559356
Ni 8.1640042373589 7.18598757689607 9.275522656543789 -0.3888248457574723 -0.7239311189455662 0.33714978598068385
Ni 4.47417550603012 0.5225382649224969 10.46641717893572 0.6802503902281639 -0.2631701491694242 -0.22709551493405403
Ni 8.037761033694723 7.037708505935184 4.752189729285843 -0.19797957140470418 0.43398061635850427 -0.3282810227361443
Ni 7.272784861487908 5.824967846961276 7.3128099109799765 -0.4128127240316375 1.267308061051727 -1.2875074188177376
Ni 2.4656319511034455 5.106340177924662 2.4818223054272273 -0.7710203591238851 -0.038553177682849736 0.5167539402019939
Ni 2.403888155652148 5.172050248793449 11.272246891422265 -0.1966217718252291 1.1287518259106626 1.2719779557235706
Ni 1.0727284262977657 3.2597814793992628 3.7209409546264225 -0.7594259694180662 0.889308845154849 0.08293556045296684
Ni 3.69516829572909 2.5585186881585806 2.437960178099607 0.0380708387297925 0.36845965183755897 0.42850365240433297
Ni 1.3934094733782982 3.1803656230900876 7.980773154826037 -1.8746890168136745 0.1816432961385259 0.8199222270309104
Ni 3.9089225328643327 2.4762659059243672 6.653665531450569 -1.0177367336126601 -0.2628811571740956 -0.010282869983246807
Ni 4.051419334423868 6.672675645587105 6.19668013194751 0.2310737828555117 0.6449892530330247 -2.166380413351243
Ni 1.213743521323205 7.475616030332162 11.238884100456065 -0.5689948997845814 -0.23549865139608472 -0.0033881997459425514
P 0.167445487067176 5.246596350091174 8.231130964231017 1.1226066322448731 1.12330417253253 0.050804998467009276
P 8.566224317794417 1.6024836862168232 8.088847383855656 0.3180387761828458 -0.4687817831980894 -0.3315229267122097
P 1.8031736084233898 3.270334121056728 10.461656744955139 -0.2348345354495246 -0.8294358229483005 -0.5345076646409892
P 4.074927873458735 6.078357733883591 3.598850143176091 0.5247670403144575 0.8091495618954386 0.5062180736676766
P 6.7458394231060685 4.04140878052278 10.438912549656763 1.2382157716714612 -0.14849406308006682 0.031698102434229276
P 6.368763179770488 8.15427376213194 10.276146183406711 0.8496128121168077 -0.578407708458049 0.4702647955015191
P 2.240990784860972 8.116842602554135 5.77625764813246 0.43609817692213926 0.8740444627966107 0.66135561020619
P 7.015988856496361 3.8162074569320508 1.61044334143962 -0.3203247440035451 1.0531796478013022 -0.4776672586131773
Ni 5.258323515220789 2.8602989421334484 0.6219309585337452 0.5539829997567814 0.015392423295670267 -0.6497902739660939
Ni 1.5308829283954106 0.9564415677590397 6.903573408017758 0.5459434172817565 0.4111654182362015 -1.0823745241977034
Ni 6.691404777569916 1.0943215885934343 9.203588514752203 0.4055807250595725 -0.7441297053806281 0.019262190663721663
Ni 2.9193594031906818 1.7533105696326798 9.020114396208566 -0.5058293228696902 -0.44782754954392556 0.5468528164699034
Ni 6.427010509193157 1.868495183066773 2.61089520717969 0.4114245854348592 0.554731962107664 -0.14518659597338868
Ni 4.241918006810555 6.908483819610937 10.189150133304203 -0.8840116013116518 1.2229133369864358 0.6390584893708865
Ni 8.163064618581181 7.111929354579083 0.78574265067401 1.9191073950280495 -0.9649962086858347 -0.6277541201016608
Ni 7.529662179642912 3.688699381836329 8.370346327905287 0.5111378795667971 -0.6590305616174392 -0.0028680655764144153
Ni 3.161220890494053 8.429301985329621 12.30469910090084 -0.14455847547108652 0.29828601903595087 0.6150374438659407
Ni -0.049975070260361146 4.755356425262676 10.460096435696368 0.0394306951917966 1.3261382438160578 0.1997790865072882
Ni 8.43002476900479 2.255572945507503 5.890163837941098 2.0948978319302247 0.2900762295316488 -0.7635291929531625
Ni 3.769877023353729 2.7870719210429056 11.610116637777907 -0.4599101917400724 0.03628649313586008 -0.4743950156198088
Ni 1.037465617745466 3.366139097200357 12.569046388338714 -0.2394828328548134 1.0757693601763603 0.03684390830122687
Ni 3.4042026924939357 8.28949755296009 7.968766814501889 -1.1604455574695174 0.1689027086434059 0.7024148421403451
Ni 5.5793840237307855 7.996237111556274 3.6182225526298035 -1.3721766741323596 -0.36323491310350997 0.3735884884236921
Ni 2.905996939995998 8.24635640234845 3.642949885636923 1.0381636340084444 0.9839709500161248 -0.46441682136117435
Ni 3.3641514420936427 4.25849685735974 9.325322451762922 -0.9846831455918009 1.5796541577251697 -1.1412458446126152
Ni 7.1056863105848125 6.290024933156784 11.585692873914358 1.046160793281308 0.13655540266095192 -0.9018578854644533
Ni 0.2117512228754316 9.196338091010666 0.5264015436662743 1.368784874841991 -0.9655158286347307 -0.2636432321511008
Ni 4.406098318625156 0.28126855675317014 1.6720516149518236 0.5375593069831194 0.6593100405310709 -0.5025750775984507
Ni 5.917122765545303 5.512833716839615 0.33127886271769574 0.050384623100139025 0.3644042508212627 0.6679276069967529
Ni 8.26675697158009 8.927055998030578 11.330430073793762 -0.8111642783326223 -0.204967315576447 -0.46429572240227784
Ni -0.06683128904489234 4.759792510069024 6.023375579713497 0.9827414484843978 -0.6509966355693692 -1.4625802608275973
Ni 7.638603749082735 8.865375446150859 2.6187762596778126 0.36966087123451175 -1.0872531924462436 -0.41088568221225363
P 8.49771346018435 1.570256569100233 3.5725091956141566 0.2995162918986261 0.7318655433012944 0.5365468065582051
P 1.848672840775268 3.298929250205595 1.410692134531179 -0.4566484902696652 0.4704386020752221 1.0089677291707784
P 4.756431565979489 1.1251392775434457 8.100259234606979 0.5478370347600435 -0.29432317773346084 0.6773936375056592
P 8.575268148529968 1.7425320580767247 12.435834646566317 -0.9946901362058418 -0.11383867778972653 -0.7625048654537062
P 6.316840207505547 7.7806036368655915 1.1103249226412664 -2.3579180857853457 0.06763312576794159 1.85525301957625
P 1.838029851158407 2.9814194164998655 5.829164509675225 -0.6664358529425748 0.4753576366433942 0.47979818891325104
P 6.973913811805595 3.901712765704524 6.0373786099402995 -1.4789692437085817 0.14480684403646674 -0.4631040160870218
P 2.4662914912070373 8.819614204716732 9.951274797969386 -0.5797958470548272 -1.0560184028016781 0.7029326623170281
