# total energy = -340872.6944817961 ev
CRYSTAL
PRIMVEC
9.20320693722620 0.00000000000000 0.00000000000000
0.00000000000000 9.20320693722620 0.00000000000000
0.00000000000000 0.00000000000000 13.46982362704117
PRIMCOORD
 96 1
Ni 5.8557337944884145 4.266496380189094 4.199365426527625 1.0255477450166466 1.0972666108181877 1.0533825078407277
Ni 1.755235661038819 1.7612361520780246 4.04726494285301 0.5227440963471579 2.3285283197693185 -0.9625456902628133
Ni 6.093903591426458 4.431657135081096 1.7662574218801574 -1.5838859364183304 -1.576183168457434 0.5085258958652468
Ni 1.7247638422799079 0.03247351630649891 5.263024248242334 -0.5222514729814554 -0.09287930192924003 1.4764475057279927
Ni 5.302989175140724 0.972493692671513 13.115957983001266 -0.20625492403961895 0.18897042592755844 1.6631707874925872
Ni 2.4624377054033637 4.909855776794482 0.42373222136334465 0.9499372574701834 -0.7604832070379871 0.6368694521393676
Ni 1.5627873970498154 0.31540311105002816 2.3567075807794207 0.26107058632791813 -1.5471507857808258 -0.7261209275080334
Ni 2.9710713530471997 0.9044709482405665 10.25960092536401 -1.218784402419727 -0.016401067065842722 -0.03821456339650838
Ni 6.501780527571484 6.8279974069820435 1.1384127918298197 -0.4895899781926923 0.43590842950883635 0.3128001534917258
Ni 2.5815087990617123 2.5224610222096517 13.11295405619882 -0.016796502732048493 -1.4690391290790634 0.3951500166445517
Ni 5.148863065580022 1.8862893303613484 2.6083775622349656 -0.503087755568811 -0.1598745370028666 -0.743631682698287
Ni 8.794170575104596 4.08824866477907 5.869973916857989 -0.9846157826889753 -0.9780844093283608 1.3405310222026203
Ni 4.729933077689465 1.48806655848032 8.682392102764448 -0.5786164820347454 0.13912599160160555 -1.005916086828648
Ni 8.723075800138547 1.586329200850871 5.143613556241428 -0.35768415848860985 0.884511937986838 2.090814662999786
Ni 1.9094353962564437 7.074394871081207 5.009158381569067 0.5836758988355238 -3.636353881319118 1.577603445843728
Ni 5.606262459212727 7.7643316988973625 11.981327709295854 1.1765823151303803 -1.246395479268776 0.558998707803818
Ni 4.71503308536972 5.409111356387781 10.043545514803434 0.9987401379054992 0.2841390381116074 0.5720869084463437
Ni 8.767913825204515 8.208331222970122 5.602221330968378 1.6490973401186568 -1.0806685972501904 0.13358012208271186
Ni 4.626424607263166 7.1407223847615064 4.839990550299044 1.058560195386925 -0.4759135091468642 3.1789371454248605
Ni 2.794756311131398 0.22917826358635 7.512915725958201 -1.4640640444619752 -0.519677284496376 1.4124401496380965
Ni 8.329279770880001 4.3598353067529345 2.5606138376270304 -0.2787150388825587 0.30575018862347986 -0.4317437566081855
Ni 8.772819134596993 5.51596059099695 8.225065414467956 0.3359822480351439 -0.5282483139948386 -1.0878226917964684
Ni 1.396706321446279 2.4911793212245894 6.154982516088875 0.33592285555211826 0.37759246737676255 2.092454255485738
Ni 9.110972573636158 1.0408919279527655 0.942333862633812 0.014701567876232747 0.21633107732869838 -0.41354574554292006
P 6.934598154999098 9.141978178407758 1.1329212381440925 -1.066295359247654 -0.061859970729590236 2.5949632557329436
P 0.5445197131487053 7.832849575871114 3.5029624253922274 -0.6213387034936202 1.4020966016202432 -0.5273851946635949
P 2.8667622036018665 7.913754969622121 10.313871317402494 -2.6808087907438543 -0.8062339309105405 2.1840698602112063
P 6.4474447927624805 9.105680729544833 8.775509232036809 -0.6400925870623557 -0.08934274953089129 0.49048677897534887
P 8.212730355971257 8.48080137282706 10.764921418446322 -0.34300110255513827 0.33855129431390085 0.7799716547799018
P 2.889825440632924 5.2076347462186225 3.8941797160170535 0.10405023094439499 0.7956255592670749 0.13575090448178556
P 6.8901282582177465 3.021403692761028 5.758094209239572 -0.12636509239151142 0.015076177606832102 -0.243003187303246
P 3.25955508328484 2.826470562850881 7.351600991319701 -0.4934872563645695 0.18710740457689068 1.5896994577763137
Ni 7.029575252429471 5.899356996215155 6.034049613631092 1.0281566433944034 0.2397952218889096 -0.39745038264295424
Ni 3.5354488261886874 1.4770963355988274 5.706504711433788 1.0375486261322648 0.640635089829387 0.4897599281116533
Ni 3.5957758488297813 8.748872389682862 12.25483229963256 -1.6819691511460129 0.6372905988371863 0.4553477691803706
Ni 1.7416149145081066 6.890873717994089 8.234790443426741 -0.955560774304548 1.152004625791016 0.17720042987582385
Ni 9.098520634409093 6.631536544690749 10.19351821699298 0.4659345435572815 1.0148028477953168 -0.6267956128431335
Ni 1.959151121093544 7.259894713698124 0.5912416347111831 0.6494501170178557 1.503096989994721 0.036123742305750696
Ni 8.490161034463366 3.0286006007252286 8.117871979912673 -1.26709337393776 0.9728882098394017 -0.8661352352518632
Ni 1.367835860725438 2.947014169647685 11.075023482197912 -0.5765133196488136 0.27457324880004325 -0.7212299179643192
Ni 0.46848281596171537 0.8991662196592809 11.7200265715941 0.4320569169732301 0.530266629976448 1.1901636533592406
Ni 3.8384368108401135 3.4056283866196146 4.200767074971292 -0.8502054513954841 -1.594585068003389 -0.3844524277213895
Ni 5.0424647881195055 8.994340329863375 6.751843629064689 -0.7797801075943861 -1.4298691437478213 1.412253487548587
Ni 1.2141883179347337 7.8173329686746404 11.769905193197141 0.53182189027871 0.05574871562552979 0.19100751096224525
Ni 0.6149785465030839 9.194233988408694 9.559883849346377 1.370776451350723 -0.9306105321171135 -1.570114593665851
Ni 6.732992699930326 1.4866768742059027 7.36982518204951 0.724068930075011 0.50438950509937 -0.25316033034190594
Ni 0.5970691054566203 3.559367961481472 0.8633372140385268 -0.5320412053783675 -0.9275051537189124 0.10431274057716228
Ni 5.847211624699605 1.042870617482565 5.098571219977502 0.6381948558190105 1.884275374950529 -1.8389524826440136
Ni 5.239247762659837 6.401005409658444 7.3804935397376195 0.8040865455502346 -0.3184208421126129 0.6226034291386568
Ni 4.284985623283824 8.01700575024919 8.969003900674828 1.757766815002618 0.09875555820435895 -1.154519936013702
Ni 5.741963748128506 8.659601280664006 3.2563569688122573 -0.17914032721101408 -0.5406613429472108 -1.0628174280013825
Ni 3.856392267922154 8.838364375672489 1.3099265205935453 0.5646978150711243 0.3326850653411109 -1.0492283764630381
Ni 7.2082187057454545 2.2466040921342656 0.39368559077316256 -0.0051586613828040195 0.34749770487391124 1.111283236812254
Ni 8.220626707676224 7.8137897339352325 7.8934922685162645 -0.056379150120677096 0.9632717697955604 0.3178243461791946
Ni 5.259899759426673 3.886836477059719 7.174957394909883 -0.25564195911317905 -0.506756976890282 -0.6895251306618705
Ni 8.888889982735739 5.943182668498434 4.300053113973069 -1.0642832139136316 0.7819712017084339 -0.3055249599865512
P 0.3822229963109989 5.731610140123741 0.4969271681931157 -0.7503366055222884 -0.2383245508806541 -0.3897841243469481
P 4.276399031045207 6.723467380565943 0.6824794690905904 -1.3340626408694574 1.2204965000148271 0.6596157446969478
P 6.8297000002983825 6.1341584193489815 3.287889917351568 0.43327896230578933 -0.30166367725893206 0.08967185073553588
P 0.5083032525083951 0.4187146328440579 7.324149665136048 0.33227934526226005 0.25207506769752713 -0.41216352048341276
P 1.1730039660935598 4.647159432894042 9.488655627877156 0.8768893884445738 -0.29188860015003926 0.3076332645788057
P 4.593090591091383 2.8141934845590093 0.6225389811483408 0.47255359153569576 0.8918583510495802 0.05011208616504273
P 3.624222962023316 0.7937830559435868 3.7414322468822303 1.5342412768080094 0.08001530148237833 -1.718583717045253
P 6.720292274111148 5.068509864255935 8.278957554694 -0.4930319139947057 -0.3931263013463036 1.0436125729381576
Ni 6.282698182190669 3.1792018819607533 9.484372455285675 -0.6204033361635445 0.5868656094174151 -0.4456940481406905
Ni 8.69817192168442 7.72519966224291 1.3051979127776803 1.1657476864087213 0.171104344280415 0.8432614159774832
Ni 8.161744588552239 6.770928319659782 12.440553939540955 -0.06737447278991622 0.2141906339469279 0.5247981506627091
Ni 3.2015196592154678 8.00852039328884 3.3279892110738425 -0.969898788193775 -0.6294757307784579 -0.7648592246184956
Ni 8.007379195606537 0.1768239792692803 3.6073129892695794 0.09692596119478791 -1.5122228635553892 -2.239680250486659
Ni 5.288024760371171 5.313821349915487 13.019056494963078 -0.44162707716016847 -1.7378860169182908 0.4328562729460739
Ni 3.4095305464365215 4.080453548352372 11.61202509545409 0.36463873542957204 -0.9443764755529542 -0.41317473535674654
Ni 3.2485296411606557 6.219260475544588 12.208455498336905 0.07473734091289065 2.5969214079005796 -1.7770194925846428
Ni 1.0230745189774555 5.1847371669156415 11.751289866164932 0.42046689814278554 0.24326441138443267 0.7123434141079668
Ni 7.562036003294938 4.579782753602593 13.613277207817497 1.8232558978443631 0.6703660412349165 -1.513770153437851
Ni 7.601195649570736 0.14355622618872702 12.707755253324358 0.02590335012932313 -0.4831424227951356 -2.314264610761453
Ni 4.691003511591551 6.086577838562642 2.8370551713542405 -0.8147625372068419 -0.2011217165781117 -1.386379962215935
Ni 7.951515728416387 1.5478413886944933 9.878607477523621 0.11061040066041596 -0.6981825492265523 0.5830837737774797
Ni 6.275685338368775 3.2656384031880843 11.965136507017826 -1.5257584361479788 0.3017737204742351 -1.1016647398858834
Ni 6.5218803319114 7.089616975649989 9.691363627158347 0.7804989880382817 0.001956095285106309 -0.5476871394457407
Ni 8.18238738211196 4.512866234666911 10.401626658209455 -0.6779726499375808 -1.388169707126506 0.2859408672070366
Ni 7.160380435159886 2.490617925590554 3.5123782265919377 0.2702944189190312 0.07185127761434723 -0.04554297873712156
Ni 0.8673737406793176 3.8582421125523383 4.089950337774697 1.8696424555287026 0.5977274918325834 -1.1629027607607585
Ni 2.869909700435315 2.8395851329902495 2.007798353584552 -0.2308531822042734 0.017310466253989545 0.08148880070411127
Ni 1.437071587854187 6.080200016031708 2.5642500247583033 -0.4096420396131396 -0.9377291454397657 -0.21621280658327924
Ni 3.221849543733267 5.21023005062515 8.292010463345695 -0.11683632696546975 -1.2947551015190863 0.6102845025619876
Ni 5.750752810923661 0.6967794123064152 10.931610826040183 -0.03864059519033345 0.20993263000152232 -1.7501136693327344
Ni 2.9476491909386437 4.5900811423646655 6.083726684998307 -0.5418085691777766 0.8558425950766035 -0.829712730758771
Ni 1.2619529628633803 2.301436800127498 8.722774855265875 1.7909011356627413 -0.5399074955003217 -0.28276812590600975
P 4.38988377798454 2.426204678990246 10.611769928519136 0.8694907819876574 1.1460203831831228 0.49920564690558544
P 0.44283255741053407 5.939694653001718 6.340919511043771 0.6103549507886069 1.5124180102853308 0.07178340049088928
P 6.76889441088729 8.442313560670682 5.699729310355471 -1.0375077455920003 -1.283231674260519 -0.804781257624414
P 9.176324547362231 2.033522237792656 2.946295399171976 0.12011268372389639 0.9127688759500022 -1.332372654761544
P 8.366028176891579 2.752403151986575 11.8044420685389 0.7312052840094763 -0.5206386199683808 0.7800685853690823
P 1.8344936807161802 0.26787038694068827 0.0933886238822636 0.23131083856698229 0.15819586374886302 -0.42668356847645866
P 3.4650258853420586 7.220366939137712 6.882433456748605 -1.8785420720111776 1.2204072827351304 -0.9287251421689424
P 6.537682238528449 5.675093245228401 11.425508298450929 0.3020485714021766 -0.17485069869672468 -0.5579972631224971
