# total energy = -381168.49686338054 ev
CRYSTAL
PRIMVEC
9.24088313914259 0.00000000000000 0.00000000000000

0.00000000000000 9.24088313914259 0.00000000000000

0.00000000000000 0.00000000000000 13.52496655691320

PRIMCOORD
 96 1
Ni 5.363694928677913 6.5992194601968945 8.544275617826063 0.13547014001657312 0.9925332377638391 1.5089827593515366
Ni 4.564996174854356 0.5978897469861624 5.903295958311588 -0.5659525134138317 1.583667392649621 0.45558456778152506
Ni 1.381687577060827 9.134501900585896 7.798644482491041 -0.18880716087681676 -0.8720703697893755 0.5394945763326193
Ni 8.416503777521456 3.6909565023798128 1.9952165943431908 -0.5456091738707893 -1.6986656379650875 -2.288427337983375
Ni 2.212248895278913 6.280159494753177 6.354543057931057 1.1925259829438302 0.23915218898827204 1.3593844074636974
Ni 5.051731961335993 3.7489245610941073 3.9557549272584946 -2.2379725237669326 1.070440491764279 -0.9920190171315817
Ni 4.474213740802192 1.372539102945228 10.761274326938732 0.31679796179720926 -0.3630204830998586 0.1165473349701412
Ni -0.41209809902276817 7.60301961098582 10.124425017456241 1.8933683383907327 0.7221568006539627 1.2292457069623668
Ni 3.626122467637347 8.352214954872748 7.351359873478409 -1.04306981306081 -1.5108182698983785 -0.0561588065797549
Ni 1.34573130152164 0.3789612168701159 -0.14563446703738803 -0.491173006409096 0.7609115528246573 0.4913810086548441
Ni 3.7555502741657074 4.1516514807223 0.912411514815566 -0.9216258121199998 -0.2573882523803245 0.6754005183350303
Ni 8.379022756296335 4.71381135380143 8.931157195468382 0.1473416946431785 1.835703893799729 0.6381799434206751
Ni 1.5124091072014942 3.446230199346072 2.1172932784887646 0.2642101603981643 -0.07273110911613925 0.7585870184565388
Ni 1.656687012622549 7.086897816738927 13.416834251563905 -0.6091210783815058 0.8229975235221245 0.7074922566632526
Ni 8.348675696704793 8.87658885758957 4.157642345135576 0.2374210652297782 0.32136398390133686 -0.3662420753609499
Ni 5.20862367197704 7.952463599552859 11.000206596365926 0.4962288236654487 0.3569094851061143 0.1611292353455741
Ni 7.737613071080463 2.044443701879763 10.991010069659012 -1.2167421751787175 1.665226127359719 1.7536234822582057
Ni 7.1156831671127545 2.7303944428907725 8.872999698653713 -1.4448964703945892 -0.9203464311869439 2.0507813012269844
Ni 1.0544124666789607 7.434068548101483 3.9531850377114766 1.2548937465477743 0.21602665871440213 1.6560467748532963
Ni 0.800864816785876 6.608561992854339 8.415896651511966 0.3595932025858646 -0.0016185094400294705 -0.6042141279981917
Ni 4.074989115810172 3.528936101704263 9.319485895379891 1.172487062015084 0.644008120066678 -1.943319216387563
Ni 3.8939417371507656 6.53008841488498 0.2526734623664831 -0.3579402403634739 -1.0111158858620326 0.19145822534641865
Ni 3.1147135236924286 3.2299565749001378 11.24778093952333 -0.6697800868244593 0.6371836409456768 1.2920526149862588
Ni 5.730853689850612 7.821566492636236 13.843344431627772 0.8010135630518657 0.06755830666594816 -0.3933160487596065
P 3.400672646426979 5.780837625700383 8.333719327658232 -1.5695324959101355 0.08705369638639847 0.8039063112186284
Ni 0.22063439710770266 7.368356629479238 6.220456922310096 -1.263308967194663 -0.16119968357219333 -0.03912884768066164
P 0.24385858412520056 2.981746458996114 9.242556468950653 1.5943968632519832 1.6120145763337463 -0.1407378161734157
Ni 2.6164081517635895 8.483028893842866 1.4982280482340218 -0.7291586858930926 0.357754606715229 0.8484774129607839
P 0.7104196749612058 7.542325491802736 1.9767006371861955 -1.5630615434738113 0.06391968147209637 -2.212949262249718
P 8.59736633852196 1.74400411557032 0.5844655163318894 1.0397913994198542 -1.144374620049584 0.6751274671793018
P 4.950803037810164 1.445819304699469 3.174648042297429 -0.11213275084221334 -0.21630742317961457 -0.22003500854284685
Ni 1.2608815143201975 0.18612062339623803 5.358362015130325 1.6736300351526983 0.13133426347132865 -0.6590246480801681
Ni 7.775731713228792 3.2313057438101156 6.872616526655945 -0.6025287698759688 -0.28685360882929306 -1.9569321791853074
Ni 2.9373255346792617 8.413361877320138 9.880109933713555 -0.455884358410131 0.0924463281568795 0.165499853609444
Ni 0.32944949013883623 4.277207357296685 0.010741602335325312 -0.719896029644244 0.8604983486810599 0.2939591095258227
Ni 7.031849877035268 6.311633942064015 10.280975739516615 -1.1262411436736668 0.6369298730636579 0.02614940470185819
Ni 1.4607156080068884 1.3765404052604344 11.157163917275883 0.6318524585407506 -0.4123087878120254 0.4132698661737141
Ni 5.607025858386951 4.887299690211785 -0.2109166846026888 1.2534127911268738 0.15923381809507414 -0.11547235673840758
Ni 9.39372714896042 6.169860315921069 12.018271898157126 -1.345753189833508 -0.5064229905896311 -1.159444627008829
Ni 7.711415167931249 6.7344413003318015 4.521436500827983 0.10744023046255045 -1.6071330798717292 1.995729868778795
Ni 5.374405112011225 6.58435087953831 4.185896344740065 0.19435920104329754 -0.7541163842796947 0.25960377197440454
Ni 9.091633444603811 5.651141833566616 2.94892931139336 -0.04793333334616907 1.1415996284076082 -1.4348658256314644
Ni 3.4395213183279663 4.076347525603094 5.705642712999928 -1.1458056960691556 0.9553129199597999 0.963860809529811
Ni 8.01618872834192 8.740655469467896 0.5086958207122521 2.019212525281768 -0.32782670880754505 0.15781739736352177
Ni 3.6723453641284833 -0.5777834338743242 12.928434182063866 -0.14316313778545667 1.448055584848861 -1.1714123408936665
Ni 0.7480346889890291 3.6899584870217472 11.254070284455732 -0.8382451937098144 0.10484804425534203 -0.3722651416265782
Ni 6.963735328847309 0.9232418296271638 7.430941433312879 -0.3934559167715804 -0.39549942956417045 -1.123231924533698
Ni 4.660657795101507 1.9510738206029847 13.19823007643923 -0.13149958540459933 1.293413242779211 -0.4351083022050442
Ni 5.781586137218932 8.001967009489489 6.292693828379842 0.729065611958654 -1.2222345657518565 0.8756452316248274
Ni 1.8325040515350572 5.709747513204118 10.373852157644128 1.1308714433568265 0.06496072114210102 -0.1117260023220979
Ni 1.8366994123921094 4.281411959036683 7.861846577305411 0.44298179141585003 -0.7776316937928156 0.7999043891480869
Ni 8.08851711915282 6.198516293933666 0.592751816068715 -0.013567454271789537 -0.14842849994945403 0.21965062862023463
Ni 5.682385258803827 3.083396171391656 1.9246162486430143 0.23633965924014133 -0.6764544135208415 -1.75586728398706
Ni 8.947678970085834 1.1004505455111964 9.374329611570467 -0.07583211663896618 -3.9531801252511007 -1.4430977266229534
Ni 1.2866358550880497 4.9367199322019095 4.635601140996005 -1.566366439477328 -1.355446762972188 0.5684194868970855
Ni 7.526006092521778 4.519900666082515 11.56345412136769 -0.07206339362515331 -0.46950863406178495 0.6463887044837126
P 5.360885700262617 3.5816553389057693 11.569931980312166 0.3196259181643076 -1.3863730202373996 -0.17346564542374
Ni 6.7437099059256855 5.105966703340487 2.603055999996288 -1.1100550208321076 0.8630812789168877 0.5154341929493059
P 2.9774494484266656 2.0362747613563394 6.657610751350072 -1.1692269032065734 -0.2969837552847595 2.107551516138493
Ni 3.155696839553722 1.7954481109254095 1.4007940266380108 0.6651194481239965 -1.4890873059791903 1.802340744958251
P 6.664922137936195 6.625750035132131 12.504034619664647 0.9912983369154733 -1.1666730264364682 -2.0793300593989543
P 6.971303611979304 0.03714095673274216 10.335739060025567 -0.3713853101247862 -0.19221027302109478 -0.5781498268109722
P 1.15827075009837 2.7959769891517876 4.245378984169053 -1.99513517261759 -0.4468245622007079 -0.6551032015385749
Ni 8.473510784409465 1.6916267910377805 5.202189245182402 -0.9199797918761445 0.5771111011338125 -2.3502703394321007
Ni 6.321161292380361 0.5723008180230265 12.529691007073284 0.49217830774515886 -0.48657304574323945 -1.623061321066211
Ni 4.951172673127966 2.7051021462701725 7.064076532217833 1.3068863375649815 0.21073070042278544 0.7545331601021392
Ni 7.127668592292483 7.494420754615601 2.5144802887914013 -0.2808359418803034 0.9882983737468849 -1.2376850959789718
Ni 2.191863507502134 1.8232539277070627 8.99914699173658 0.7699574650770095 0.5456004321200411 -0.9258434497457733
Ni 5.943661983192151 8.977831971135531 4.219302136586418 0.14395992265513918 0.1493237580702138 -1.45420412094876
Ni -0.042107931315706164 4.8648351037723705 6.673718534411587 1.0884261297084223 1.1295498963319257 -1.4447476035215505
Ni 4.6320202988547985 7.966518982512279 2.307197119362706 0.24122269836405552 -0.053085052750437615 0.9448097064356309
Ni 7.104631071110476 2.9903127574861745 13.398318294406911 -0.3723214487858104 -0.40548996511797913 -0.3387474694851069
Ni 8.392311145971316 3.843994764832774 4.177618361797889 -0.908395429472655 -0.05303080247373448 2.0933250881264662
Ni 6.218679900519764 0.5365515382618087 1.300548928450116 -1.4475233664944747 2.012985570535449 2.0196421566200184
Ni 3.4350764536313974 8.138501055002592 4.653697562067295 0.47720163183066844 0.297248836020688 1.0065732607966729
Ni 8.728660803405221 0.14195474744866937 11.79271580679289 0.16323265484182212 -0.7319020529661846 0.3280251979715963
Ni 0.593117755033339 2.0833293373125303 6.792522097818025 2.8572350614578146 1.3852396779639047 2.7484054068469055
Ni 7.6712542906520635 8.028987351220813 8.319369160532865 -0.7796667219449734 1.0517133476684208 -0.7375569372591169
Ni 0.5312297137737548 1.1274431645936853 2.4900547869910468 -0.098239794910205 0.2355125353531557 -0.49548346085899175
Ni 2.5469074711338737 0.568074038163961 3.456900646882721 0.220951092599213 -2.071751732831064 -2.0344745936471607
Ni 4.875129447373156 5.551312575111249 6.580910498817869 -2.2196444148817065 2.1213665676447144 0.5596476542417265
Ni 2.1217529285980454 5.739549360701902 2.04571894372618 0.46765538290313013 0.5760952582747885 -0.4001487554107238
Ni 6.300341583105165 4.495902093074222 5.524515862747195 3.249230077413152 -0.5275782845110076 -0.9997477532344072
Ni 2.0737742643473496 2.899317783126274 13.378152839644224 -0.30301890573524587 -0.5723211359443369 -1.9269073506884427
Ni 3.0746265734768046 5.999421470882579 4.261473829994445 2.3759039808398046 -0.33514663950772605 -1.7618013900833076
Ni 7.286288348044255 6.2236422546612555 7.016509087258191 0.03662253631904015 -0.6750739882335471 -0.24577946449680255
Ni 7.477306639401369 1.7543723862346652 3.0473105234912388 -0.3248658264070083 -0.5361351729420831 -0.8078969204352603
Ni 6.193914334227032 2.121595833587979 4.958536732746876 0.08413729407055186 -0.43980107969502313 1.003977732155355
P 4.501224841650571 5.73989127337087 2.2532322111402068 0.11519004961129839 -0.2447913895519204 0.8289681392832627
Ni 5.104977928865367 9.295681380913447 8.804604227624225 1.114312510556881 0.07226034012730782 0.49713282353695676
P 2.422137069609818 5.210878447415632 12.686391431437368 -0.19782967609040122 -1.6009927713019458 -0.8534653530936784
Ni 4.438904327069158 5.452527536428671 10.8282771969084 0.048982343435973706 0.5718979323639893 0.22749429303436947
P 6.262879043645935 4.439338648567576 7.956967605900276 -0.586301509383829 1.052272819716317 0.07390456059895013
P 1.3768361135146758 8.1063797458856 11.470253348248804 0.17393435753004238 0.6058346943207501 -0.31069339156136816
P 8.782174756540002 0.13096271718553323 6.543757528937297 -1.2197241406251769 -1.2650917701266988 1.7967797059307056
Ni 3.1130871282940995 2.2179412791730635 4.572236406641802 1.7842993140755077 0.7082813282234512 -0.17776838656415192
