# total energy = -340891.44862823765 ev
CRYSTAL
PRIMVEC
9.06615952193917 0.00000000000000 0.00000000000000

0.00000000000000 9.06615952193917 0.00000000000000

0.00000000000000 0.00000000000000 13.26924088181126

PRIMCOORD
 96 1
Ni 6.2488593046810585 1.924709336579229 11.574532468726455 0.44500087872840777 -0.14968088429931642 -0.0436439619421958
Ni 4.762199582863759 0.33455940732960915 5.966063133386038 -0.6352375729628995 -1.1547387368927273 0.3471729745446408
Ni 2.9093123595809693 1.605943178601096 4.911171084611015 -0.0851348820971308 -0.13047448657419464 0.30825238622004336
Ni 3.565530029678103 4.3430257115862005 4.749380033734606 -0.9663424383010841 0.09975546022378304 0.8019602432358511
Ni 4.951881765947334 4.545445848366001 2.818532907367231 0.14816496187542225 -0.2361360278697675 -2.1100241460487013
Ni 7.164568583812611 6.01112647776119 2.623846204397309 -0.8323720227584891 0.19723086616413776 0.5057938416460643
Ni 4.992389365317252 4.3782477401341255 11.537551605290938 -1.3233491111066953 0.7778816050200925 0.4446190699089569
Ni 5.623892685395945 7.955427784402726 12.530209910754667 -1.1827681322261179 0.3334993337122901 -0.4693443405697788
Ni 1.8412372086922928 6.568251027644985 0.6452829754686521 -1.4506786242940048 -0.44900151524736864 -2.5253853475338053
Ni 2.439748775389802 1.601627686815044 0.11139499165135154 0.48663706621195546 -0.5466946936254843 1.6319737930644926
Ni 0.7778918730657667 8.908879484343805 4.825173124766948 -0.2980762170179899 0.7476456889536865 -0.08621551675581926
Ni 8.690829289078389 2.6142814064261226 1.441158481952093 1.5781235800132563 -0.7253585954207121 -0.4031528323443702
Ni 6.759447259317365 0.6112975710375704 4.86790011991255 1.470161158498649 0.1309372851432261 -0.871551521171428
Ni 0.9147482662548256 7.4298172039481685 2.784961826412247 -0.4456678228884454 0.1563536683338017 -0.1841498646104635
Ni 7.806978493426221 3.7389293908126247 3.7788540361450558 0.5696353615820576 0.22303162927732556 0.13583343689326285
Ni 7.100634029032696 3.9092462578142513 12.70704897269513 1.5280816849645167 -0.5330933007919658 0.5570955772438342
Ni 8.068863568493239 8.650611806803331 6.725342181584653 -0.7407193941474985 0.48688569188765174 0.11868932101380851
Ni 7.119890551204071 0.4614339592236189 0.5232778576886938 -0.33055182104819203 1.3198889204722366 -0.4349807754882444
Ni 1.6342386615092233 6.590154868306963 9.271350876046771 1.74465418888006 -0.10761506547751788 -0.8062408728890761
Ni 8.917447004801408 5.151491393370672 1.3336782578495172 0.8288889493058951 -0.6565625596929208 -0.8229872391094795
Ni 6.542503135476102 2.05914234541028 7.0037575847472775 0.06230682845902173 -0.7837192947477922 -0.3228637083753149
Ni 3.55058899929278 4.287522684875674 0.45890450080280265 -0.6734521363594079 -0.10351492726621528 -0.3132045880189961
Ni 5.879766896903819 5.20068437326798 4.749100796030802 1.080645714432055 2.493928414576105 1.2198953760957185
Ni 5.232769510727724 2.7272910810335578 9.31650578862999 -0.05636166661918036 0.650612255646757 0.2483256279574239
P 0.024834929935992584 5.834291042284413 12.381833149051875 1.062866278961447 -1.3173496989901505 0.49799414309598744
P 4.019708341682442 6.1307816470727765 12.679622027839741 -0.4736632796601068 -0.3297547790681934 -0.7689210533926951
P 2.0572293858160426 8.580856777807774 1.2653030982863922 0.9527603287412754 0.1332294236115125 0.006174761352144204
P 6.237925516668499 7.47357048831684 5.729127221861115 0.102876522351268 1.1050421409985485 0.667571766319231
P 4.604992382086149 1.073605508009457 12.835017810006317 0.012698678513591034 -0.12248915437587292 -1.504256557520461
P 4.01560137155832 6.296483839034277 8.296234682046975 0.3317664101815835 -0.09031359808459286 -0.8256910111938877
P 4.813178596126304 0.9974588367677525 3.750152389304124 0.466477560544945 0.6057069104936342 -0.3659551402481504
P 0.005474146933651781 5.491472363910489 3.6495851116025246 1.6285750517955888 0.5936440657918293 -0.05278809033530908
Ni 1.9455524366131234 0.988773456240362 2.7729391926780376 -2.7572294328964384 1.086590104940948 -1.2235651116378217
Ni 1.68060299973164 6.4957308200890385 4.87311497469267 0.700846983432593 -0.5595016155821655 -0.38538393839672336
Ni 6.128161527059817 5.6469751267557955 9.21185148635454 -1.213868196065032 1.2766221393638015 -0.3561852053455801
Ni 8.454284129015603 2.3903835384674204 10.055112180587939 0.20166910444114947 0.7480917753521696 0.001992604949996568
Ni 2.3321062670372887 5.340276026692021 7.091971313903341 0.4580893364812498 -0.15146111612819077 -0.113927637959107
Ni 0.7263444116204805 9.014799422445583 9.086417547159696 0.5394814637064967 0.04831694193783292 0.3086385659148685
Ni 1.3066601967746985 1.3527978810167554 11.277580396434077 0.409478774562398 -1.1087571279562904 -0.02556782116677532
Ni 4.0648940792069865 7.09554791371342 1.5770094380842754 -0.7822943893758075 -1.0009937098263664 0.6764366729090285
Ni 5.911090476989554 7.983269959350134 7.996973459002692 -0.9271655109913065 -0.23017569652127454 -0.05804316808666132
Ni 5.496159568224332 2.900481920506148 4.84294098359532 -0.3021997522680602 -1.3310570212739141 -0.16891067906320587
Ni 0.9584018228721382 7.510333763931212 6.972548238267643 0.5394326127464322 -0.4381149502418519 0.6279988891226153
Ni 5.200720637904837 4.646968699248797 7.107138091653104 -0.08963842639443917 0.354799380741647 0.01824634780469761
Ni 8.221011852429218 7.132755431129298 9.265419794688714 -0.53438939389557 0.7976161073345425 0.2557021229271531
Ni 4.661891597315692 0.32337629993865274 10.421741312906628 -0.38310954054024987 0.08201664818312326 0.02869942481722154
Ni 8.14161949618876 7.154786198020278 4.735207813650662 0.18728018270932908 -0.04873294642932897 -0.20312666282328243
Ni 7.336091249989752 6.165323713679622 6.966483884369135 0.158719597462817 -0.8895158189593326 0.5644242496947635
Ni 2.2423240923371335 5.348771017875911 2.379851381308058 0.5880562872914066 -1.1121707816235298 2.4843243158274375
Ni 2.3248533396657725 5.212842092774484 11.36958921983729 0.6195409881632491 1.1430379035160314 0.7765387178389529
Ni 1.3825439493991856 3.418866772066833 3.829834862639443 -1.2299815566871268 -0.004951687578320505 -0.20269137505807674
Ni 3.5094286364594263 2.6207546441052005 2.806590055834108 1.496038797596359 0.7451483764531296 -0.6218362119553291
Ni 1.153106658160488 3.5079599186666943 8.268820429814488 -0.5729808810155229 -0.16736518895295693 -0.08644923003318015
Ni 3.891295262569749 2.708306543638615 6.934425038771111 -1.1784270816486027 2.2305690322140106 -1.1096446727675664
Ni 4.049137094492368 6.793798936580707 5.882559273941852 0.4374626613698337 0.6944773324608233 0.8737773251781532
Ni 0.8178128919345128 7.471866050384533 11.221133582549333 -0.4136773860247779 -0.008944867898113627 0.8606796114539307
P 0.09181752744378668 5.508009038317547 8.214748043027992 0.3242071097770868 -0.2087956881836017 -0.7798189312521214
P 8.559206789603799 1.290685624238934 7.93325467881208 0.7912695962912243 1.7970229322897633 -0.6810646585993432
P 1.7984449372003477 3.2628563043055214 10.466949715829209 -0.47900500358799447 0.9402789084448129 -1.3852216802417756
P 3.9195907454778762 6.264906406490538 3.8044904145556013 -0.8501154627848391 -0.3541208666173837 -1.441729385520517
P 6.6824302367910775 4.000787267401999 10.415557285706488 2.162854659586172 -0.9602571513389526 -0.12035308186947662
P 6.390128197559764 7.999063208701611 10.312190378039483 0.4411285402571951 -0.7954694933051848 0.20509689917577578
P 2.65305736938609 8.615824953897697 5.953470238237244 -0.997499580630179 -0.1603069965545949 0.17345818922457223
P 6.928784981123837 3.9026007631100996 1.707446083933621 -0.8792272925491309 1.146556201081935 -0.4987590462864701
Ni 5.218182060551763 2.6772277498516677 0.8743630600343025 0.06174324264606786 0.09864577209937204 -0.4006344367978906
Ni 1.6021716563679076 1.2494889967687226 7.005694116355471 -0.5150726958448291 0.190855044544781 0.15667325645674954
Ni 6.9236626011677025 0.8210531372377377 9.158642197925255 -1.3015276443562294 -0.5315418971444459 0.45080360145311393
Ni 2.822204701849061 1.846976087475005 9.162331218109593 0.0497539314946756 -1.0979924332406186 -0.2709734472639269
Ni 6.73012730041801 1.9514363739432656 2.623434600768976 -0.9720184056399388 -1.506280272818709 0.6984350315569907
Ni 4.2324095030113655 6.874959193867973 10.419405870293 -0.038747038861210684 0.35145180442565277 0.38717702574140417
Ni 7.737268795226737 7.171495129452408 0.0967758099181394 0.8474024347290504 0.28061739811159414 1.1194410900326979
Ni 7.4113041068323735 3.9076687461109465 8.235394407406934 1.1993424916450313 -0.035135924471184646 0.19299394526465471
Ni 2.9957581876902264 7.978274505623002 12.49149015798183 0.42261068395866574 2.035729034879552 -0.5740962255668888
Ni 0.07431802692816121 4.763731763770993 10.399780355441598 -0.5092352632274456 0.21253561484200817 -0.2701036430644639
Ni 8.748480995522726 2.250782818884164 5.555765031979373 0.33690655962162624 -0.23477694273871177 1.1609564356676652
Ni 3.607950588642258 2.4548348643225553 11.368341716329386 0.6035955205775863 0.09592477362378318 0.5625709985361085
Ni 1.0706771385832075 3.515992535730648 12.481671507552639 -1.4738386073502359 0.00546282288678414 1.7608050876083094
Ni 3.3587218718385357 8.576169573493932 8.182968435133773 -0.5372235209102554 -1.1068277721440616 0.04635750421861694
Ni 5.601417676703459 7.842245852770218 3.6672994800915313 -0.7107621856637759 -0.2215406465540959 -0.008490811079830539
Ni 3.1137905145024365 8.447747428222025 3.727369131198349 1.324214544430784 -1.69197305643626 0.506451015614089
Ni 3.437561192366916 4.493995394824308 9.305386144353534 0.2333427813953465 -0.6447856216626507 0.010937472848110195
Ni 7.076345788497331 6.013610605385934 11.440327927107607 -0.36529668072854504 0.42357819007825764 -0.7100882995252028
Ni 0.391908304056187 8.869867801244263 -0.07706779301788726 0.5443457337773334 0.25162898129904404 0.5735868900306379
Ni 4.623451082246656 0.23977452597495094 1.5429206794381496 -0.282434653825991 1.772774858375676 0.6617351050327958
Ni 5.691009462060111 5.601716859957534 0.6110283061089029 1.3307127505606178 -0.23971731746312266 -0.2544155429052457
Ni 8.266551170163124 9.269785150350446 11.146161885541813 -1.7652852348668502 -1.2209410437514137 -0.4091900396773856
Ni 0.09662621829110186 4.878092296101372 6.034677639552424 0.5655113121113551 -0.7863006823217231 -0.5728957775008843
Ni 7.878882202155588 8.6007116664873 2.674083605836116 0.33722537641362565 0.5408983986586814 0.5077165125900739
P 8.803041141674957 1.4444023537190034 3.5508355988234115 -0.4521806843062987 -0.17988928956189665 -0.4941727124673683
P 1.8687892665448398 3.36300109898773 1.5348925954538029 -0.7497023143723992 -0.36519769325683554 -0.5287656199508894
P 4.664121872482433 1.2073313564217854 7.934528474181703 1.8277303886759488 -2.2532469334275 2.2757597698180354
P 8.444927852706348 1.8108021122095683 12.546478226848977 -0.004061828774199456 0.5016006295003232 0.10273793989087468
P 6.198596517996452 7.779725618827749 1.5389270363042087 0.447224625852604 -0.9604864937409394 -0.3958087332744732
P 1.983766297701799 3.3803718600425112 5.95329798121217 -0.8965110193302431 -0.2792739967098223 1.0176434025679055
P 7.1836709812773405 3.900633406560576 5.950896355636277 -0.8693447433280964 0.11657741687712825 0.42866511768286175
P 2.5243813716561805 8.641110471946645 10.39234973134948 -0.15911323335680985 0.2983994046853635 -0.7055436175773139
