# total energy = -381167.93075761455 ev
CRYSTAL
PRIMVEC
9.23657387656142 0.00000000000000 0.00000000000000

0.00000000000000 9.23657387656142 0.00000000000000

0.00000000000000 0.00000000000000 13.51865951554172

PRIMCOORD
 96 1
Ni 5.361239982124973 7.762130333987524 1.8758899595436787 -0.11538519634124 0.5781662818712042 0.3413615100691863
Ni 1.030422942694595 1.9885881681211988 7.551212246350262 -2.1384456346141882 0.7726231848346307 -0.3339073677839863
Ni 2.8784396933159146 8.756937047897077 2.204974307480646 1.522917367154758 -0.4378604110288846 0.19766435415713055
Ni 1.4657703782042746 4.227561380304867 11.481491726158456 -0.43184428674179176 -0.14519816593761445 -0.1927535471190745
Ni 5.472125051254749 1.4345692317219438 8.00850762865429 0.14272142226234774 -0.02571823070171055 -0.19217479179746902
Ni 0.2692248837545984 2.875604065142417 3.9535048447666967 0.9443638771474638 -0.7973762234095945 -0.591992132010703
Ni 7.6101609843505225 1.2253515973313946 3.8750835617652366 0.09181975031647412 -1.8830325036823636 -0.38384487604437767
Ni 1.43262031463853 6.761680073452538 7.082520779223882 0.5651210186514719 -0.9058119850161949 -0.1716933840146656
Ni 3.206689054976386 7.8322174563995794 11.41403425632293 0.6463349684276417 1.069208676239707 -0.5008256990075117
Ni 6.035177356884235 3.944691305994216 11.034227263061002 0.3409624748585547 1.8197450564776274 0.374825960375219
Ni 1.0181475360412446 6.1393104905259746 9.75645718544486 -0.4831326526031228 0.9803698629284279 -1.6262453752211476
Ni 7.406383691960593 0.48165684584670204 1.5656639244465502 0.38281283523543747 -0.8535733394264525 -1.2960013152213616
Ni 7.8510877767854295 7.976141750208838 3.1309759354292237 0.5508274848469352 0.2646058531746862 -0.42770095399737956
Ni 0.24809622106119059 5.158765046648605 4.495711126862739 0.25880775843567044 0.3539984821069065 0.37438604462432296
Ni 3.4574066156976375 4.974384559354262 0.30297717193569174 -0.17136453992033712 -0.0991067708961906 0.35322792248946905
Ni 6.164369315394702 6.632534297811345 3.897118332353824 -1.2965507599669284 -0.9263787534239529 0.1600830534692469
Ni 3.8158688104379497 3.082207749131989 6.432394368205532 1.1494630903160847 0.6902571237318886 -1.179447552493317
Ni 1.5810797662106149 9.13872159162137 6.613585466547727 -0.5450111352754743 -0.017110691538357627 -0.6714546463134049
Ni 6.646961826172921 6.51822245978135 12.014491915093178 0.43925549160419836 -0.14798395621286772 -1.3914869444251972
Ni 1.4095473531486358 0.4233675992196905 3.6728441589221714 -1.4695515499391076 -0.24055601131433413 -0.05602870875979382
Ni 3.7508618036461665 5.976164886524374 2.496017825995624 -0.12353996423789045 0.12977128985958297 1.4827464513628268
Ni 8.66997470505186 2.907959783356628 11.599334706373234 1.0712773858432776 -0.6444575488992708 -0.8921103191593861
Ni 4.697878484429735 2.302650152340326 9.953261788231616 -1.5959513522232966 -0.21716231498074212 -0.7431022925573783
Ni 5.095753139809511 4.442404088173137 4.500023683195659 0.17280230080812822 0.3859107574344709 1.3577430152055325
P 1.3028649251229045 2.25806521034204 12.516386094256276 0.7718266570752642 -1.04471351931182 -1.2695829731288328
Ni 0.5604281949972685 3.927335783720593 0.32345927445924666 0.24377323270005113 0.25776054811807864 -0.6300709411602955
P 7.689124454237274 9.108471812246108 9.298241840384867 0.13336646341000902 1.0719564141881734 0.36867408184121025
Ni 4.133773209380775 2.281535344507701 3.9440826157771687 -0.40619881825954557 -0.18993921759873095 -1.0935863337531229
P 8.23345422466259 5.528652883247604 7.339049992214725 1.9086540609052096 0.10555741161754077 0.9689402809352474
P 6.251137690188965 2.8188268456554755 6.051614763716667 -1.201159747359428 -0.00999979152518923 0.9619368530342207
P 2.626650690027478 7.722182152064468 8.919259673168193 -1.5367709852083986 -1.0684522576896567 0.5413167171430225
Ni 0.20474159070039594 1.548077487826551 0.7024155792691258 0.10712758431813808 -0.7988700343463017 0.43225412058570073
Ni 2.1642216199748163 1.9321249921453292 5.281943071922056 -0.307831753742857 -0.4355399904258241 0.303780980712251
Ni 7.29724433528942 2.140806905252286 13.147653268777402 -0.583618049014395 -0.598816096911072 0.8942859866544662
Ni 9.212327848672198 8.317322315266368 13.057592055403818 -0.5020361743758451 -1.0959010979292287 0.15458989156515957
Ni 8.6634536839102 1.969320675059582 9.248804002483142 0.35195394087305193 -2.2661327882512325 0.6608730141428166
Ni 2.098762021064136 2.29571348537519 2.2121123317558222 -1.2483538885467274 -1.5589889160663344 2.488076069560386
Ni 5.8485246724215525 8.638505697927734 10.628437787544842 1.618856281845928 0.8978531351804344 0.07373126824587947
Ni 8.333393953774141 5.085906952080036 11.2504443731189 0.6425197084466095 0.9689760192691892 -0.2661148336200449
Ni 1.5641306531866133 6.41632457701253 11.90906011916742 0.9332312575694123 1.125399878719294 0.6035135023867413
Ni 7.531668579730378 4.629915774004338 0.4106885542888748 -0.26486939124871806 1.1879298789327155 -2.402829087365423
Ni 7.448262317819352 0.02832395372648532 11.885740541155595 2.3485405012251874 1.0581125663265454 1.1201239750323355
Ni 3.6234709770374316 7.28606808092482 0.24697767196734502 0.9953658221166277 0.4267987538980843 -0.2468870957386845
Ni 5.390667706427136 3.199419871352468 0.37036536746730486 -1.0259187552028202 1.0479901331805628 -1.3868913546347146
Ni 3.065212453238712 1.5772558246346275 8.046468099883741 1.6408687815612772 -0.9807735261247498 0.6410287257233799
Ni 2.797056241079142 4.2604158735072515 4.494710805914239 -1.22524147089898 0.16153829785853469 -1.2087540147669182
Ni 0.13864097356417565 7.623230736355406 5.00545916477478 -1.130300144234389 1.0122214602213857 2.7313245401052186
Ni 3.8046094269086543 5.846141636366951 6.127575423443145 0.013862874025021286 -0.049119383234470244 0.2618367750699813
Ni 1.7175501449188557 6.424231084232445 1.2578717265602253 -0.5040670887629447 0.4587390542501068 -3.4190105606758214
Ni 6.253289811897189 6.423621470358014 6.857664701639361 -2.1862373001761704 2.5615160318180914 1.6957163255287764
Ni 1.4030170954331214 3.946852664276296 6.404411244054297 -0.0552118692854533 1.8711084985512678 -0.08944739342955564
Ni 4.792941302545824 1.0471873242414957 5.77776697474762 0.4933427603669052 -1.3673504563883097 -0.12246112935141491
Ni 4.068516815094905 9.117191137965268 9.660758891047543 -2.029697998194124 1.3828516373477022 -2.268265518323519
Ni 0.7243958540719684 0.26706352547251866 11.012272850664953 -0.1963330369402167 0.7504811015199526 4.497220154862558
Ni 8.645543967205274 7.802909807557532 7.733186606155364 -0.4634745120525631 -0.7225437516797362 -0.02854824395133793
Ni 4.744412343511435 4.533310448054458 8.012658544944745 1.0441509619401308 0.6218678365242128 1.0708647237858913
P 5.707593028541327 8.590272309256704 7.40246646098867 1.2743238302479278 -0.05280840205028324 -0.8290493861431593
Ni 5.751152710841703 1.920413016497136 2.1816408746080396 0.5103495793375469 0.1402287377474811 2.2352949769347696
P 0.10044589335880728 6.0457439973744025 13.230198682005136 -2.369631774677848 -0.7968108378244277 1.1235651395034005
Ni 5.690625442369615 8.373628469486702 12.955377358151768 -0.6492261739325077 -0.6548828579976528 0.3902641493071602
P 3.633778993459658 3.7504276846749796 2.213220720618427 0.9238726991726477 0.548225528447714 1.0633097942567686
P 5.606507964271751 5.5331695678627195 13.563135604897042 -0.7455877779833934 0.4007048850245099 0.736941415162305
P 5.290432406952224 1.799164511502004 12.095590880855214 -0.42537461985704805 0.08873416941261493 0.5185146316468425
Ni 1.9065396825668637 2.3163664645150632 10.119960702195254 -0.4155861730117166 0.26049697321263526 -1.0073949853670199
Ni 6.93374820779811 5.444443039411189 9.021812429023337 1.088700980636364 0.04996039107852686 1.0107934695256076
Ni 6.6201757619933 8.429075622338518 5.191300878052989 -0.19342126261006043 0.8591153522906044 1.0087718111098884
Ni 7.290935755346427 7.060880410338903 0.8058947634819288 0.8300662574434479 0.29325334170804973 -0.7027048625769382
Ni 3.6742074772231756 3.594089435604544 11.468000786385783 0.017440306963634484 -0.7132798098793071 1.7303107756741942
Ni 7.331355002536089 5.246724939470167 5.49460502470315 0.8730918690753544 -1.3128430693690485 -2.2570750489243383
Ni 8.464303915021647 7.535510994454075 10.451221186932468 0.07164353247891532 -0.47449271753993766 0.4489675766856397
Ni 7.016009134551111 3.2484476053750293 8.343581894736252 -0.6699207261673817 0.09995394938783429 -0.9762129033372606
Ni 8.01872235568058 3.324806361434659 2.0361943934274693 0.9353986975343761 -2.5479015263584506 0.4580571976917337
Ni 3.1636281476641814 1.0354106925763176 11.631873308749775 0.5597088464969651 0.36951328991305393 1.0138083450925313
Ni 0.17265650410013764 3.9938945349200234 9.144561877269913 0.7512809717134287 1.7360816167197006 -0.8807612126951541
Ni 8.476902601759923 2.989925139746268 6.0571031359013325 -0.2671173067426303 -0.1856454753193835 1.2358752964637423
Ni 7.819036865508435 5.6497443664872 2.5815642020688636 1.7199883107022635 -0.048048518767794667 1.1665172175848944
Ni 3.9341246655040485 8.05059777205433 4.762853163213026 -0.4571904788160642 -0.8940219343598023 -0.841555231919654
Ni 5.880076808710375 4.514089137862116 2.306946082840306 -1.1129338850417994 0.03545165593939056 -0.39065058611230136
Ni 0.9498800186786315 0.15400047222772448 9.013349880057348 1.114632612900461 -1.6550540719227238 -3.402752704056063
Ni 5.338915183117337 6.791412604691917 9.788631866811512 -1.7964770870886224 -1.9289017554106525 -0.7555729142205633
Ni 6.8334020694369375 1.9189259281064746 10.517868609240907 0.0882294618620545 -1.8035586765257519 -0.24550872733391912
Ni 3.695599382271452 8.125164632786081 7.066825069272008 -0.3158723646591463 0.022905186732947648 0.8396806406047603
Ni 7.68941078802678 0.8032928206269635 7.236390092102863 0.35791735754533843 -0.13522408544403808 -0.7107886680263372
Ni 4.225621699795309 5.784829259117185 11.837141384159908 1.1229871555127435 0.8958759568494055 -0.04596926764126276
Ni 2.1173921905297552 9.029323610882257 0.04957915748170724 -0.14317599330126307 0.9307848529114486 -0.6786200537135926
Ni 1.0286125742190069 7.123864607456433 3.131137575471687 -0.13692101353048677 0.1289462228551263 -0.535449202618652
Ni 2.956377903504756 2.79095086576096 0.32706615654964044 0.539328225958084 -1.4549685099186103 -2.642738980455326
Ni 4.71575125483924 0.728718570636128 0.5688002255394783 -1.565890271171858 0.42925878540280266 -0.4317311582026952
P 4.886489322549686 9.280909409545881 3.3409879151713064 0.42391371904080544 1.622257337107677 -0.21272793335847232
Ni 3.1673781966493286 5.267285552871489 9.909731662967578 -0.20813234356798993 -0.1276511581927866 -1.5755103107601254
P 0.22680037638100647 8.648878370366944 1.6710412245865645 0.568784069325356 0.824937935077947 0.36265332956842705
Ni 1.230062249997466 4.51832872526158 2.4085520898753066 0.2375141391642168 -0.11338719207460472 1.079967714528424
P 9.181283723945402 0.8523676611761855 5.293298515819443 0.4046898378141869 -0.18245473629622772 0.9788122886333206
P 2.2495860355431114 6.4367558783798815 4.729908151586863 -0.13973534305083032 -0.14409799089490022 0.9340496397056495
P 2.6654904830879285 3.864887307886656 8.11166907472648 -0.3689211648550098 -0.3136085083256341 1.5116896167597385
Ni 7.140739827889593 3.336084218111665 4.160191657920964 -0.7215770168910928 1.3181068888711494 -0.7539760020470886
