# total energy = -340891.07368570875 ev
CRYSTAL
PRIMVEC
9.06458730564457 0.00000000000000 0.00000000000000

0.00000000000000 9.06458730564457 0.00000000000000

0.00000000000000 0.00000000000000 13.26693978433614

PRIMCOORD
 96 1
Ni 6.232139261637767 1.8664891151226755 11.471737063205884 1.271370661156875 0.17370578645900409 0.7631293864115825
Ni 4.826203684279905 0.5088106797306177 6.0529214985717985 -1.8389344849218845 -0.7942849860787804 -0.05951512464649749
Ni 2.7741624726754606 1.5887229747958136 4.7123905424623285 0.3327681119732205 -0.4536492984320252 0.8099244923882504
Ni 3.4680294159773664 4.4291929015877445 4.941815240164018 0.2732995242939422 0.1367340943306613 -0.40810991923932943
Ni 4.723356879849903 4.630426733629527 2.7396363671410486 1.4485998873881052 0.10869544302589022 -0.08319087099688252
Ni 7.326670016204485 6.110764441320673 2.620658223634399 -0.034568224893172725 -0.48593695482113736 -1.187511303338058
Ni 5.16901730112622 4.415505375174091 11.87592699882494 -0.44979675745515435 0.7926497644682026 -0.17902051380369813
Ni 5.638698878029145 7.956667879300697 12.506703509946936 0.08840172577386066 0.9004399220710041 0.6124321450326097
Ni 1.7804843133923858 6.296108052300778 0.4630055085561341 1.7394898710703008 0.4274374159233478 -1.794415062353271
Ni 2.6368883667096608 1.6316800527258137 0.15399373674062247 0.0918842850058224 -0.18114193102207513 0.6066422778237099
Ni 0.4405180810548164 8.84914898899303 4.806293318870907 1.0318124949794358 1.2818422501121602 -0.74938015514629
Ni 8.765591625760546 2.327069846648576 1.3747996273722614 -0.7546303478016358 0.0745607061257103 0.314084162410472
Ni 6.753597759649821 0.7081617970464955 4.779335237046931 1.9679534699964751 1.1607854573074394 0.3151102896821412
Ni 0.6503777741133087 7.312357033285838 2.268792710181017 0.3732820129268668 -0.5443642457200947 1.8833947721177886
Ni 7.87088969224613 3.89052981739482 3.8328853891018784 -0.47837328354126646 -0.3261166680949738 -0.5925372058808956
Ni 7.477749488215313 3.899594404423729 12.918907446958253 -0.15628887653413728 -0.4471870877464492 -0.19760830410821453
Ni 8.07912138547423 8.735587842694857 6.8054490103725875 -0.5489161267568353 0.36809815473308216 0.5486086228187456
Ni 7.002502254876636 0.7249548509762525 0.5292141586739891 0.041196014622335506 -0.10505398961856101 -0.9549827903138909
Ni 2.1747485262147874 6.317491413101974 9.346717767890395 -0.43375564483189166 1.5352311515251043 -0.4402849613099773
Ni 0.1345719525724818 4.837897001547199 1.3923649841168813 -0.26967349750558073 -0.35555142841632315 0.7545645275607069
Ni 6.146379203757258 2.241917116099004 7.191755422242309 1.3873909199789525 -0.5674640649623517 -0.3803995978082545
Ni 3.4545685042394365 4.1307051153127965 0.48417403864474556 0.03101598876554013 0.23069711624238334 -0.0831636173033729
Ni 6.098527248831647 5.745470648642665 4.599302567607064 -1.0776172120183765 -0.3866327232021599 1.4012365676127934
Ni 5.505485707052296 2.920129517601984 9.42210068654021 -0.7132785243277264 0.8971337405159066 -0.24897406017470028
P 0.20156650238574328 5.4366129748066445 12.414816697693587 0.14872906190900836 0.7529928121982128 0.46618291212266166
P 3.9676331946627212 6.4089712253977265 12.695612223005512 -0.38530911929472994 -2.0498562183095537 0.16611100483088165
P 2.252713039250435 8.391033825138992 1.3182882724579332 0.05508845633371158 0.39668316545962645 -0.28938665966379196
P 6.251492154944487 7.929410666104767 5.922905407440047 0.5396128470780385 -1.726259488422956 -0.044895832071425903
P 4.547458568553922 0.8676241991416589 12.491540268764977 0.25450167486114883 0.8704366908406944 1.3713312954129286
P 4.050846103588107 6.0174989053802275 8.187399690451954 -0.294559462113983 1.277472917399871 1.1180784053572161
P 4.815625311217168 1.2647727635566595 3.7629149353670264 -0.9502977261333956 -1.5819180140586822 1.0908797334552376
P 0.5474203817215532 5.55090835265416 3.628614013946709 -1.1466166220062253 0.1157981155089425 -0.6792903403077398
Ni 1.3698766501568609 0.8126338819307818 2.535962348271084 -0.2726356654576982 1.2731917735260136 0.3473686354952147
Ni 2.0309660467622312 6.646128015835075 4.894027643806312 -0.008834310462178335 -1.1502395634707931 -1.7904853882815615
Ni 5.991456346846172 5.6138528449829055 9.30105309781486 0.09051157302801185 0.4987292214897992 0.7664823620442155
Ni 8.372478615490815 2.1494401992300736 10.107696194178233 0.6091853559605379 1.32788942217921 0.5254247285031145
Ni 2.358161380157735 5.143282938551146 7.034515656886635 -0.8024068438549665 -0.43011367720393023 0.47163416504522
Ni 0.6119747447066323 9.276607719515297 8.991959744716087 0.10555715450722464 -0.7537885686266308 0.7018880231025977
Ni 1.3509135340923828 1.1133488372387328 11.294065718687047 -0.00021905798934155824 0.9532298121785261 -0.4433093499585978
Ni 4.096993916152283 7.253428153010899 1.50502782984049 0.376727548273306 -1.2171293833148071 0.09984519172411192
Ni 5.578809151529142 7.75862478189309 8.261283326407186 -0.3597173868685547 0.629681933251993 -0.5870286173578406
Ni 5.521602542789697 3.047994582231776 4.8580484849711665 -0.8413449156810607 0.08953146850292967 -0.2735234673792902
Ni 0.9242162288805442 7.322808502130169 6.785628384375174 -1.147916057543939 -0.5988322948609881 1.6616029287848348
Ni 5.3605520250470695 4.64801203246561 7.228319246940821 -1.0099511761299704 -0.8641102344020344 -0.8925988287600306
Ni 8.442420969005878 7.2342474868577265 8.909174684298467 -0.26747391875110066 0.7089696125397273 1.0619054577100744
Ni 4.4924909128106165 0.39473194551309354 10.401453172482796 -1.0485619465236327 -0.7734832188420808 -0.5515221969211147
Ni 8.019394821540748 7.195079406305811 4.550414530384049 0.07538962978490886 -0.3376506368765024 0.9499763382382348
Ni 7.285870309987364 6.176219824256426 7.130542266036087 -0.06065360912631489 0.16904720464107015 -1.775915975107819
Ni 2.4894981816195987 5.159309128418258 2.487405168474624 -1.4151020127409757 0.1767466301678569 0.8789912652789249
Ni 2.4902142839948826 4.729620509486879 11.600545751345384 0.14968988316038093 2.190277531683815 0.32076825929886693
Ni 1.2398179554660729 3.3308822142299714 3.9741778264975935 -0.09760061866430933 -0.2760932849889955 -1.584935203618451
Ni 3.622997595823597 2.4600110800145574 2.467690598145449 -0.4124165170344833 0.7121109863821865 -0.20315005986205015
Ni 0.6449825319137019 3.1782889561853156 8.150146050680544 1.7553826310411575 0.29537013094073644 -0.5085672906261435
Ni 3.8067095811384974 2.7288848604660596 7.092810922528253 -0.8473325007230632 -0.009247229629880848 -0.020986886664312244
Ni 4.084548238161591 6.759000253519051 6.171223423886092 1.0027459166307828 0.7998992469417643 -0.6160558578281262
Ni 1.0473677082553035 7.314559727933862 11.312586482904514 -1.772487151931928 -0.7614795095129853 0.4141157591137771
P 0.1907823631974501 5.462764308385048 7.951792037937846 1.1558687367321125 0.5317450142941874 -1.1673718522757057
P 8.243534865004582 1.5393300400752876 7.976428679023718 -0.7272907794464185 -0.1377298825850273 -0.017314580019047603
P 1.6501808748518172 3.358184750361046 10.19139768434448 -0.37284389694818365 -0.4882440056877591 0.6950943972195319
P 3.9490054683183127 6.495420191892432 3.7503378208644147 0.7664083142731705 -1.471759099113388 -0.14680330564120525
P 6.8773293725944304 4.20229722366712 10.627150511998197 0.9112704370276048 -1.2765120961484984 -0.1807313258472178
P 6.699282754172597 7.714815632782373 10.25047522384669 -1.5209278475285548 -0.4271669358707805 -1.0206842462767582
P 2.4460244222289504 8.522397820361943 5.798541086320819 0.6151050638790825 1.4753892396668074 -1.1300373774913053
P 6.645185298784068 4.023271629846165 1.8128612053422433 0.6583733876494146 0.7407618173496597 -0.5215572751279083
Ni 5.351251758755407 2.507346353479521 0.43117249182801115 -0.30531927173364837 1.5051916677402206 0.21911043984604844
Ni 1.2785509358406015 0.9757755999009793 6.850556208345845 0.9933745027182118 0.6892006574429161 0.11061194332231274
Ni 6.565852033107056 0.8004465446704134 9.324164168903765 0.7950678869913921 -1.4368777138551707 -0.8662506777838048
Ni 2.519909871101589 1.7646575444399104 9.136224460198582 1.37687665071119 -0.8546575736295668 -0.35464691432418277
Ni 6.450532356925274 2.043556758145386 2.70274077855728 1.2952688079307113 0.4111150246142404 -0.8313114427044587
Ni 4.4800361702328955 7.016887754491515 10.670864482945111 -0.8729136916262773 -0.7784120236022659 -1.132781773005662
Ni 8.287344014115302 7.212293057073709 0.4351074290572606 -0.196397571629565 -0.5519132617119463 -0.47624183902056044
Ni 7.547855004296896 4.03004287635676 8.265939804763939 -0.36797474178134043 -0.5178317466472049 0.41265614384911514
Ni 2.8066862109351867 8.504440873457673 12.404999749941279 1.201615346839608 -0.7026812084278543 0.37491646320649624
Ni 9.20662910765212 5.1479330716969764 10.049958400638895 -0.41776364027900953 -1.1582071550573019 1.5147793114286559
Ni 8.597842378203554 2.2516343533939946 5.94002025420933 -0.6087978907141322 0.8614632836974906 -0.9848656939162522
Ni 3.8461042763661366 2.6174810858807662 11.340141921013696 -1.404108746954266 -0.2293801972031727 -0.09920087327189366
Ni 0.8909936109608895 3.365427355397144 12.565874414695546 -0.3893107842549553 -0.8868655258206792 0.1943967391494523
Ni 2.9809347673919064 8.417103577434135 7.867546672549868 0.24799884074562453 -0.33904417478991933 1.2314841093745823
Ni 5.662429966870829 8.08236650763058 3.682995190909243 -0.6074362344799151 -0.9316155763428601 -0.9599799864181661
Ni 3.213242003768789 8.570222581526467 3.5206076465798506 -0.0742747994541753 -0.009913402458970025 0.06018926789538665
Ni 3.486838434062353 4.419230920442973 9.506106746830625 1.3248388082783442 -1.5727821131956847 -0.6348038278595907
Ni 7.292324295951948 6.208299397751735 11.766076894456402 0.17005096331523614 -0.7499846214995083 -1.6255257234463039
Ni 0.4244574457569952 0.13082737167083944 0.026676173167376627 1.198110419010143 -0.34366804671517587 1.4012774481530574
Ni 4.766323022366932 0.4904050357684177 1.5900690659696064 -0.03674954881520767 -0.6596962202258961 -0.0845116466908351
Ni 5.948254525066392 5.732444837082123 0.44461346147447756 -0.4434667014720685 0.3701270122376528 1.3872507948566624
Ni 7.9394360993587405 8.784609129347198 11.505686661005258 0.5042010432376478 0.2649041011413954 -0.13987906771754618
Ni 9.26835894531899 4.75961522796554 5.628273696487196 -0.33882151725615195 0.6545401299462534 1.8413281819650416
Ni 8.026737137034164 8.819834114541537 2.5405925393254507 -0.3125967792316681 0.4980568780131229 0.6863367056315599
P 8.55732367418433 1.5689531104857626 3.638829803528289 -0.04844395443400044 0.5899524758728549 0.43912025157791473
P 1.71513770550098 3.0371986590803455 1.5953364974921056 0.43023323350093 0.8286650062205471 -0.18614812598741487
P 4.585248831877443 0.8178224515461293 8.208719599143949 0.3885299402248728 1.842912495733026 0.13056036141978158
P 8.408691640671307 1.7217457894450547 12.321736079328533 -0.5296215401932814 0.6877397566266736 0.38600871646491586
P 6.445147992230102 7.837939918396045 1.4337448239038515 -1.029431139231453 -0.6128437786487316 0.0568540328745666
P 1.9057840998929962 3.1900819839099266 6.038752642586911 -0.11953984193956187 -0.6267130804316562 0.5334054327157459
P 7.00497688713553 4.034421071891724 6.0057711426822245 1.1203800569071993 0.7058765754367005 -0.5628625616345984
P 2.398616632067756 8.521908332662381 10.21018313450319 0.22614035010963635 -0.041625903070902505 -1.35283863592538
