# total energy = -340866.07234145986 ev
CRYSTAL
PRIMVEC
9.21200069138780 0.00000000000000 0.00000000000000
0.00000000000000 9.21200069138780 0.00000000000000
0.00000000000000 0.00000000000000 13.48269417514557
PRIMCOORD
 96 1
Ni 2.4373755638625063 6.392243962350563 7.655540856475553 1.4089311080435736 1.3940549622626894 1.6471178477947828
Ni 1.9525664040211081 5.293335216309669 9.953356455874937 -0.17051710431837733 1.5275486952791821 0.6547447897578917
Ni 3.5428156182245902 3.34223352036059 0.5403538377729115 -1.4738962000610487 2.646523901419055 -0.3892670755012135
Ni 3.542281322198315 1.7702517030554414 4.112180809024189 1.893806711479732 -0.06411379976077346 7.173377819987646e-05
Ni 7.864680902760407 1.6680998300319319 3.7855628845621414 0.22697364464420908 -0.13333715283397035 0.15776571818997992
Ni 6.9966893720752985 1.102169794201263 0.9051416861120369 -0.3698606459501437 -0.21158482089296463 0.021143981067466813
Ni 2.598696115795746 8.950609940163 6.206501476016329 -2.6233443779787984 1.5497956796028407 -0.4635020228563888
Ni 4.95760385979945 5.946668712438566 9.267383920940953 -0.4929707217394671 1.0518303328622596 -0.9798137333146416
Ni 8.71278372446745 6.6442566587437595 5.661558219617724 -0.7618425492793589 1.0306979217590184 -0.3542039132494932
Ni 2.2136989808627914 6.746887555790826 13.043198666623711 1.0548799183218607 0.41803257766968005 1.8093038065396452
Ni 3.1563814112209645 7.524426454027756 10.080026068104152 -0.05605879066678087 -1.0540509946626622 -1.5414239105993777
Ni 7.434093577585468 4.9221008100535215 3.9474361565225626 -0.8171163821509991 -1.976057072940216 0.181803475865474
Ni 0.25463719532226076 1.083699733292963 8.074070594257536 -0.8410078440566161 -1.3520871024713361 0.001823683472300085
Ni 3.9438416339457953 7.746186940933243 1.7027830117375424 -0.26216330517146463 0.5533103991697891 1.4742728666741773
Ni 4.365907858701692 4.020061725694061 3.1899112504698577 0.05795009415222278 0.14127749072696957 -0.9867500554231587
Ni 4.463545851503223 1.3214154049830762 13.127721534380283 -0.09252474680329872 0.46038610293522647 -0.002584215787408452
Ni 1.2686122183863808 1.2960271317345604 4.444691650176033 -0.34267405823302277 -0.2322508338827484 0.16350930554197646
Ni 5.787070804590041 7.156167523917935 11.523240700676933 -1.1537005254362 0.7570644111644252 0.21649717059291745
Ni 3.494959275871165 3.7967167747106547 9.293768932638486 1.9408399016091347 -0.6999445262229816 0.5271339978847374
Ni 6.647803278918171 0.8401906345179473 11.938642043105071 -0.7698829030853321 1.068498794656876 1.0095053468418034
Ni 6.113627008649053 3.3161451350776447 6.420701674150024 0.5288077860427345 -0.3553938197925363 -0.5684840215864339
Ni 8.438505622979312 6.796042790208126 3.1602089974091934 -0.4300601982581755 1.4871607783804388 -0.7599623015375105
Ni 0.9501533627255703 8.078537493277205 9.018816512717185 1.668109362444785 -0.6726430101945513 0.006671498482904639
Ni 2.300291785121155 1.9386654953375049 8.116878760362708 1.7537687495868184 -1.0293630049976787 1.5740260129051151
P 5.13351622045027 8.665286650131693 0.22014009602580134 1.090719296617973 0.536216934022612 -1.222524071967817
P 7.877292131380587 1.7894679360004357 6.836453993795423 -1.1933016847675901 0.8231939558036468 -0.0377633347917027
P 2.332736450716682 0.4251651417082917 10.28515152459158 0.7718814215725996 0.745474906554613 -0.894864999086388
P 8.55573754074441 2.079747282275466 11.65287657705202 -0.2699552904120576 0.9088579709313701 0.3147958437655159
P 8.930352751166815 4.58473892946312 2.4726722647982875 0.9698473661305491 -0.6402525096789877 -0.6011727700687066
P 6.587059347930975 5.867205996530838 5.540240779651712 -0.5963046433431279 -0.5146950007904362 0.6504201942406089
P 2.443068580142471 3.4347404289097905 4.983810158688194 -0.271273495002849 0.322270040655374 0.3489285237831668
P 5.940413764130967 2.6329647574809707 3.8951902959532747 -0.4086339100635995 -0.21691600329789096 0.9081797139174229
Ni 4.965351152180438 2.3254866063601574 1.8939274151374261 0.9567643076943458 -1.8954866702853161 -0.5748868397889841
Ni 0.7705350142925018 2.7764232405358102 6.5737305044755034 0.9297132171138246 0.07828186373103938 -0.7318352042839912
Ni 0.2107272739629082 0.5952407788720796 10.332826390536082 -0.5276443618622526 1.6195908460191075 0.41403631202609337
Ni 5.725497793562073 0.3929424853236823 3.1325416752486013 0.5651323315053816 0.26043320985423535 -0.12661371806720775
Ni 4.839220441977725 0.22566084789729465 10.249031270815298 -0.6543241572807054 1.1225978904941245 -0.07194717976226318
Ni 0.20928283229187505 9.002003690690383 2.197220554452434 0.21441894790765004 0.9155032441620297 -1.5404378925370243
Ni 7.9386993264004015 4.401143760434484 10.718094358282356 0.5108452880270428 -0.4903584809276007 -0.5096728649854965
Ni 7.284444630226202 1.8188265814442022 9.748122297782164 -0.17805326479442238 0.00439838617801178 -0.19928440625905677
Ni 4.989136537350129 2.193791847883821 8.394082593194724 0.9357789636919304 -0.7879680427218172 0.6057210515610214
Ni 4.097433317498954 8.485265737278826 4.395749212969196 -1.2925714636042063 -0.4638581206442269 -2.5331058561065145
Ni 0.19152025301836698 3.2531442639794594 4.456151378739586 -0.9018465726105437 2.3414735670760773 -1.128571077358424
Ni 5.975668089864665 7.890677168038821 5.4750391616453 0.9070170610678896 1.0625531185964023 1.6185017267199866
Ni 0.18043637407329646 5.904192178349704 7.919720763067094 -1.619041658383857 0.419432029120368 1.7681558715464256
Ni 1.288961527387096 2.7972792095614416 10.404648673268078 -0.3276441604830938 0.581324882104844 -0.46880466601622484
Ni 6.015804775838461 0.3371214473785783 7.424137247495847 1.520058043329092 0.7964143737169574 -1.0133938832629321
Ni 3.80094508291859 3.1949981171200137 6.8354286981450025 -1.402518262538694 0.8255668269111975 -1.8713635519848673
Ni 7.209007558516443 3.265258044575177 2.1493973753006395 -1.369378799672248 0.6380475316078689 -0.16947349354521135
Ni 0.7794153827292105 8.281929251279374 4.365372641475371 1.8176125835156567 -1.559909628108391 -0.6365511495680005
Ni 1.2939544316326315 5.219602364683718 6.117799123654224 1.1229354763392017 -3.010021581265648 -1.5667143097350502
Ni 6.352420484392169 7.1468541914599335 0.9466832021549187 0.8601921302945507 -0.7146694911379821 0.18336876347006484
Ni 8.273380514858975 4.44158444242323 6.295690222002353 -1.3658124224772283 -0.2675173703945264 -0.26420167575773207
Ni 9.0162546553912 0.25287770323573444 13.118188956311501 -2.5100556591552707 -0.38386518775935186 0.19751420173251147
Ni 5.882792701297344 7.090679412697434 3.362206058542777 0.07675565689450008 -1.0178634889985114 -0.9243558094566532
Ni 9.25050661491098 2.2514313347183506 1.7009765384487057 0.878271613504081 -0.6213898684465299 0.11198876906518132
P 6.689561276971699 4.6658045334496725 8.865342742769824 0.49463833924987716 -0.39235059952254364 -0.12828750622520488
P 1.8312259340539634 4.139384767561995 8.114181486630065 -1.4542838251467598 -0.3391171941196998 -0.7745121743272274
P 3.603550337211334 6.001820959150781 3.103568091423771 -0.5907734291122535 1.7456286369781873 1.0214661187481053
P 6.132382641571397 8.275480850962262 9.181485701516747 0.22090069897725179 -1.9077870849192242 0.11306014775248914
P 1.767386770914553 8.879244572653475 0.17963032403365745 0.607360129826341 -1.1268327545110788 1.374107315496169
P 8.433254782721091 7.289981042498464 12.571317628218077 -0.053658151645088234 1.0498770657906304 -0.19104530617871612
P 4.447563030717238 0.5608146119791084 5.941000568559825 1.7076896958405687 1.8720767760018078 1.339172451292197
P 7.7439760608245205 8.826561142062667 3.460913564596903 -1.0488249703770323 -1.3829208000227409 0.8146774336922034
Ni 2.258515363066721 5.127390240149014 1.5672818546740193 0.541799313206396 -0.5153215786308415 -0.9683592116207967
Ni 2.604287800070728 6.898489447246133 5.238404057608326 0.061227222241597774 -0.09933996995291923 -0.45032589048574706
Ni 2.4804232419794565 1.643199792807426 1.3890812331106699 -0.5350830775284849 -2.4580586972626897 -0.6357813612815115
Ni 6.529189561085119 6.714461314196205 7.58841024557428 0.25277723597087437 -0.9530274663597329 -0.05044838645853892
Ni 0.8260916678246042 5.413984786242836 12.062440274793081 -2.1573771814113685 -1.0499089474698304 -0.4476318885933517
Ni 1.6569625214842338 1.3030835240815717 12.343244157402138 1.5386142090647243 1.711696503007117 -0.7243486660989589
Ni 3.4253810364495245 3.005737567812772 11.650180224519422 -0.1560561916980409 0.3500562096297068 0.012528985704946165
Ni 8.210388855761243 3.492407551745679 0.04274644570213649 0.5314639927186589 0.1963628617368876 -2.056280633778659
Ni 8.814327605461061 6.114152092674875 0.9113911072193639 0.45678707273005853 -0.12766838458396723 -0.7400053987996094
Ni 8.68579256314011 3.446817361503696 8.379831628493907 -0.7159735546613862 0.29091672315507316 1.2920996661741102
Ni 1.2023226631264676 8.00528366567481 11.530439879030967 -1.8254652467908563 -0.3305492499450307 -0.8156968760956533
Ni 1.9160868822271593 3.279960397298193 2.8457785495464876 -0.008355313943230771 0.3182092403224391 0.7527313310067102
Ni 3.883641210985327 8.6242471881135 8.0084231154292 0.5830470070022732 -0.7709838494589948 1.0470349683561453
Ni 8.06078596840424 8.348854434570546 8.229917375521593 -0.18351223102646458 0.5402260551820051 -0.6352607128913511
Ni 5.357432315461763 4.495087741054355 11.026092987428763 1.0391671355722942 -0.4480496928570606 -0.08109979279580871
Ni 7.660027100696173 8.445340927315451 10.759527172719892 1.1689044868701481 -1.532687302057328 -0.4959966530499845
Ni 1.095850361890493 5.63646380918366 3.817544186534882 0.7861371601606655 -0.6904455855936108 0.10453077012523933
Ni 4.204789970778418 5.95635973691514 0.2038882848265881 0.8877646405961808 -0.6024827471293818 -1.343409629301996
Ni 4.072745156284867 5.14694731711077 5.130178712686143 0.7368992490704599 -0.271823453969048 1.7666648888231962
Ni 1.611482875247687 7.10733470951649 2.0020044468523164 -0.2538956658460337 2.7439355440010096 0.6189280371695985
Ni 5.562730957557708 3.4187483961233522 13.03977364485528 1.9059742000802016 0.19779033821203357 0.7870064501394962
Ni 7.18729487344868 5.627832164759182 12.561731620546668 -0.5731634293399742 -1.3203823151688874 0.6531627899827526
Ni 3.501343192185106 8.697851071733108 11.958111606062523 0.06018284013748345 -0.21023961971897986 2.4972587645009185
Ni 8.41059326160667 9.194396320151652 5.674097594634371 -0.9708153864707731 0.9246273179504849 0.9918956041798401
P -0.004285422610743679 6.320491690822012 10.061406772788514 -0.7307897937386123 -0.042883943847719694 0.8488602502214994
P 5.177752246625659 2.3617911001454988 10.514168304253909 0.4413864219042721 0.19751908682851788 0.8300683143259767
P 4.434666230083014 6.362323384879163 6.990318352561991 0.04631199569266217 0.22129073532681887 -0.18865598001093317
P 3.8953220275597524 5.96969871357111 11.390084918928748 -1.316878930001319 0.29449389898337025 0.24041768596425692
P 0.8387259264459176 7.957464171323197 6.840040225571783 -1.0851289470143892 -0.3598690819550705 -0.08098177916070569
P 1.431655414404335 3.9003517798071003 13.492401602314107 -0.3162238344612941 -1.2822816516424238 -0.44143501575402044
P 5.574402562131682 4.901263265028796 1.3405072759219547 1.3496065021413273 -1.105401066999864 0.2968091773801082
P 2.529716656403552 0.15142870584679008 2.943460759950193 -0.5584114678417802 -1.0565110261673805 0.41360925179100383
