# total energy = -340870.7146130713 ev
CRYSTAL
PRIMVEC
9.31352408494312 0.00000000000000 0.00000000000000

0.00000000000000 9.31352408494312 0.00000000000000

0.00000000000000 0.00000000000000 13.63128392375661

PRIMCOORD
 96 1
Ni 5.857722392625427 3.619924688895259 2.0040440803354986 0.053724743216965534 -1.096761646157311 -1.0559903777772202
Ni 8.336013917183985 1.5578824995657001 6.716161090570498 -1.5987893358927239 -0.16531113463740563 0.8007037451209307
Ni 1.4405320951648906 0.30475620617165483 0.7890277964468244 0.10469789183072292 0.14140218923029194 -1.2335065391212499
Ni 5.00359771907071 1.9557189975327622 6.259812377075812 0.15935234595080944 0.1853819372453517 -0.607691802134147
Ni 0.34058067684845755 0.3318390030730132 11.163040108992025 -0.780184027901024 1.35429105210119 1.816158881788266
Ni 8.736858683454338 3.558678954027027 13.508820674524086 -0.19723935080457 1.2199455126073635 0.8227113597402734
Ni 5.076876527152105 7.0953593639909815 7.010038169172266 -0.02231254745427125 0.3880537719194026 -0.15018842006335423
Ni 8.466813050470094 1.9098405775265408 9.298198754791116 -0.38621620449003163 -0.44179085643154237 -0.632021380018447
Ni 2.967586829764981 2.1991558919953302 7.670773101684113 -0.39090255422210746 -3.544823894328921 0.05509359854003414
Ni 8.19074156735511 8.061199759830439 5.573518340214984 -0.32596394456719346 0.05590118204299405 -0.10621484269588159
Ni 1.636572465183354 3.6671535699045057 8.877278687196481 -0.627802456841093 1.0356454955722811 0.8143719866366426
Ni 1.9116194606408705 9.198483508384983 6.388028870112686 0.9073765012898374 -0.34546010561859214 0.6821761464959671
Ni 0.5833740067916533 3.208993375960932 2.710213177751193 -0.8229772118071503 -0.623503572355423 0.37165501884640506
Ni 5.01016375360266 5.522221311853177 2.668446678661079 0.3083156353578109 1.7626938199905902 0.7266875986447808
Ni 3.5344079100692087 7.941511660865772 4.196704720582486 0.5889651722589211 0.3106838784796714 0.4993082339217207
Ni 2.771034215917784 5.53926506106377 3.7272425650722156 -0.34709429878790543 -0.9710974364875662 1.3888057980486084
Ni 1.583885859017054 7.995027170682204 10.417272700910386 0.8092585766694773 -1.7701944992430096 1.392840373129298
Ni 4.505678090493243 3.502639479163561 4.09020270912184 0.13418510265656244 -0.7543143592231137 -0.18106659769944947
Ni 2.466230510772919 3.9910686266232167 6.101049387502923 -0.42035685492748254 1.8988866971058005 -0.6512498892307558
Ni 1.0038675149798144 8.089745711377143 4.336084403676092 0.10725845346904753 -0.6762019311904031 1.2719794983854675
Ni 6.433177109824857 2.7189157347251705 13.670951434432798 0.5693011181710904 -0.9047704311255579 -1.2550806657476
Ni 7.922065022422209 8.656557478157213 9.738680017176465 0.6071775815018897 -0.3892233667474716 -0.5286098110993154
Ni 1.1635385731581858 0.5706433506189972 8.99274869106963 0.0882798554840157 1.0153204108616838 -1.0661423786095574
Ni 7.681282482344897 5.492166569392747 6.056515840385231 0.2260130805031527 1.216981030662401 -0.8733528360462249
P 8.41122993829041 3.948421999500097 10.089890219147355 0.21114079137701058 -1.1698226278090433 -0.2861838364557781
P 2.2089350923620645 8.388383863528887 2.600822111096489 -0.016084564266688427 0.6335290749122251 -1.3108779752228779
P 8.75500142851567 7.375584678880788 11.77775691863527 0.5582289195173289 1.574795544081288 -0.17498568161269218
P 3.963966271321125 3.9273920619495386 7.565635521512731 2.116123316967904 2.0319947646481005 1.1396967549579404
P 1.7555806768844289 5.188722638775066 13.47033905540478 -0.7281212457675138 -0.7370704845410015 -0.37054867315610374
P 6.796348670872887 3.577520213400268 5.920734903026584 -0.031139401717281853 -1.0488149430747034 -0.1467832510365472
P 1.0923553080125201 5.869569195355414 5.231890823251079 0.9508134894275495 -0.8366359402411656 0.02801962514137755
P 3.8895977809131512 7.760084210252456 10.911134427011865 -0.5848130977637606 0.2640229840880227 -0.08284480051137345
Ni 8.04999559026741 8.788185515093454 3.236216807077088 -0.9960427935789942 1.6647306757805393 1.1246144067035213
Ni 2.861813135893553 6.7806833232377945 6.315959888819519 -0.9043685677014489 -0.4393272253823982 -0.2922202724578451
Ni 3.7437759331589073 4.286754391616621 0.9177053089295597 -0.13018009526222743 0.5836460740388529 -0.5878475137147102
Ni 3.7669479812659876 8.669121422247427 0.4805759838889599 0.05155087549409832 -0.2200419505213823 0.8705336214298749
Ni 5.769812038090567 1.1748545050111212 2.0561290328411403 0.45377348271471535 1.4296310595950863 -0.931527387504428
Ni 3.3655630305944246 6.344754511461264 12.681346650349761 1.782290254065279 0.4633431286810214 -0.2407339316530951
Ni 1.0697420713549672 5.342088441097934 1.9185487226150137 0.15237925706708594 -0.08248098941405149 -0.7219518837320082
Ni 3.8712594518444847 0.7348640653489396 9.679056698216696 -0.6624516714838462 0.2799275711334211 -0.2305474780383965
Ni 0.7608143377125884 0.7394481819398981 2.8904047237086354 0.3148590929032835 0.3907829979251076 0.18701201664960695
Ni 2.5309688172006988 2.1412537123001054 4.70821836902213 0.413775602165539 -0.6536099048225001 -0.6629964882437227
Ni 0.4588335617402543 6.812963997972176 7.0499503456023636 1.0580056084350358 -0.9578369719332342 0.39990218661755644
Ni 7.267752696170267 7.236030832885413 7.658178422964175 1.1498862938964325 0.6860999070304055 0.12678623908933004
Ni 3.8069123134313743 3.57843293876783 10.417258730624148 -0.5563532997611709 0.23324945035059186 -0.075165943809877
Ni 5.400065128986429 8.215785633818108 9.377355327969124 0.41323927004609473 -1.3352206657333003 -0.20414327701325485
Ni 5.600073060296539 8.562146283759514 3.0365320550552886 -0.9554599870606253 -2.908478433013823 -0.5317550415965164
Ni 7.815052629837661 2.023493512836309 11.574677387057589 0.03126178622775907 0.9172731915782589 0.13710279052398966
Ni 7.376944453407972 9.014429643958888 12.14577430630312 -0.8415171795928669 0.3079505387089083 0.19929314800980516
Ni 6.345881447884478 5.176987598334986 -0.39884980939553893 -0.06983090475020877 -0.6504168518064992 2.27085821875136
Ni 6.067937946413576 6.7917291628901255 11.713526199274144 -0.32158664143510424 0.9703338188486644 -1.6395750024505185
Ni 8.553959696023933 5.26671409008081 11.765706149726205 0.012305813950546548 -0.25662309207952577 -0.3709633920960192
Ni 7.518696291104823 8.825542060494378 0.9239323311821296 -0.6117770279471141 -0.2910139108545698 -0.3722623134131008
Ni 8.86083100353205 6.054833817922153 3.844553852671558 -0.2720772218510669 -0.5221771681000943 0.34029964446357525
Ni 7.158383981973543 6.817983987493767 2.308130644120136 -1.1851034652275139 -1.1320289540000374 -0.6481406541778129
Ni 8.70046143104177 5.815969863821553 8.901392332596016 0.7617309634021591 0.37598449945969437 1.6695988025061181
P 6.406978166366169 0.8684330407198738 9.437060605941493 0.10526482007778647 -0.17222251704525823 0.5626476174103148
P 8.078308703710144 4.747913540339327 1.7698583094198608 0.16171416131476665 0.14939677739999432 -0.7036625985045172
P 4.632798381736627 3.5878582252165296 12.442608428825304 0.47677560003684344 0.8908134547248335 0.5240299050381169
P 8.11736031050797 1.6907585487392198 3.836497654274201 -0.02433369164935809 -0.023806358390978354 -0.5241715728223036
P 9.157597137327874 8.73460481060791 7.495679778851195 -1.0540803052387007 1.8693858594332065 0.5397383169123092
P 6.085344923066363 7.012888107564857 4.816750728749391 1.50870559443075 1.6646715404078298 -0.6094350100774988
P 6.58480128313003 6.102956797250643 9.316805313355555 -1.8458993462754922 0.37040777670286534 1.5914604063314786
P 4.34772072076009 9.09305441490743 7.13146510309738 -2.6281346002785897 0.699147484242983 0.21064611112877915
Ni 2.764598570724057 8.2807474648257 8.449351124024771 1.2410419282663465 -1.738468114674006 -0.4718570796893034
Ni 3.2279650246723963 1.4156649856609094 2.307830748642223 0.009290938383622709 -0.7465362579395917 -0.0009610783616886673
Ni 2.0061610443767925 5.213785332286382 10.964663907114536 0.5383195821879115 1.8008698168396793 -0.22470927409006464
Ni 3.1941010508310197 6.662802047959934 1.7516065961258713 -0.6083605460663974 0.3784072499685741 -1.1382150282060914
Ni 0.12567017553186063 7.474959981655124 2.190683379068075 2.272337374400048 1.0872310809590566 -1.8651237417227429
Ni 1.4027378141285027 7.652401243928476 13.105061706544447 -0.34839116322245806 -0.201860137406033 -0.4524748185079498
Ni 5.617889832012312 2.7690411217478017 9.107523906040534 0.05157247276065311 0.6947454985205455 -1.5030481390346566
Ni 5.961391230036968 4.7883528622368114 7.617829442251031 -0.4013643729853797 -0.03167033452008739 0.4386700514143736
Ni 6.347623076902172 4.197204856829813 11.109291761071622 0.1874532179520836 0.05481874761209269 -0.958218266532053
Ni 4.784422555041801 5.520358607021417 5.257776832298031 -0.5383859166494728 -1.191568247016251 0.35670508240479215
Ni 3.9772566702957244 5.842885948640468 9.26755539760385 -0.07927636643382475 0.12115372339390103 -0.3529430442591986
Ni 8.393562182961176 1.6760152399958483 1.428476669493747 -0.518671468939681 -0.139614758312566 0.23221021045280005
Ni 1.0066801992757703 3.345166412686665 11.470821347810455 -1.7104785714396156 -1.2325534311793611 0.7265431026471164
Ni 6.4079560864028435 0.19817875516532277 4.863478542158895 0.15601865359188616 1.5010367650315826 0.9434369944578204
Ni 6.344484419260659 0.13732046290209657 7.242110701456274 1.6882557554856732 0.1853883650032549 1.1351818978067223
Ni 2.749035671854711 0.3866053191839719 12.192270212961068 0.04925385192980549 0.09296363411293021 -1.0291778855700662
Ni 1.8924615414462302 2.71281537640116 0.20610735828170446 -0.8916665467537482 0.4284144351246364 0.39027931881581174
Ni 8.645735163084693 3.857205343888864 7.753733318128575 -0.6017186152698476 -0.7974764964328847 -0.7268626907700643
Ni 9.370988602854172 3.8142606839926634 5.161322250699893 -0.14082574790153168 -0.43608197897222317 0.19158986582827647
Ni 0.4995606715342464 1.1157229401269353 5.10184887947908 -0.4971078838362923 0.08983537289659367 -0.08383570366973304
Ni 4.161096323666167 1.978872418591525 13.781228217235002 -0.4200526934235024 -0.44515514491808494 -0.1775909804460232
Ni 7.134774198231 4.374841703110499 3.659740936026521 0.2555925939324824 -0.18397477248517993 2.031672605421991
Ni 8.685764689919193 6.552278456767521 0.21824753702269295 -0.7157781508211286 -0.9671299671993859 -0.1320621427762887
Ni 5.272032112375482 1.798348379821613 11.241992715990957 0.6742988006304194 -0.9040492366888172 1.6694859310773376
P 9.398090958156265 1.540671106920248 13.052050058385007 0.26029745560731943 -0.6022230657100919 0.1044415528455427
P 0.9429011858363462 2.5831245524899473 6.922893386323258 -0.013656928661802285 -0.24808265870868246 -0.421931398503454
P 2.722045078842525 3.4318566955567236 2.750698135917056 -0.41322770008186893 1.1788286879623957 -0.03648292541738233
P 5.11762319534683 6.762894492094498 0.577550260135159 0.022926012668554062 -0.1650195715389158 0.5187020650673002
P 4.4075601134803435 1.0410191628492453 4.160622265286484 0.7802380210674111 -0.28389118376685946 -0.05682086564378601
P 5.520740461511928 0.36411408969289927 13.446621234781995 2.1354479854384447 0.14722085279459807 -0.19543032262028923
P 2.2366614537827956 2.022850879669352 10.38313956622082 0.227351339698602 -1.2446155045502179 -0.33785452535719235
P 1.6554044110324364 6.254981452094644 9.068757293081967 0.34072901869150996 -0.11616706881258704 -1.077612069812054
