# total energy = -340869.82748250075 ev
CRYSTAL
PRIMVEC
9.28851398065145 0.00000000000000 0.00000000000000
0.00000000000000 9.28851398065145 0.00000000000000
0.00000000000000 0.00000000000000 13.59467910806734
PRIMCOORD
 96 1
Ni 1.1440198496661238 2.872055028750163 9.972445133233915 -2.3287630614879444 -0.7442479761260473 0.4616518570215275
Ni 3.4035716759912185 8.938903800142416 3.550794625832554 0.13086735113723913 -1.8607047867194406 -1.4944578262624844
Ni 4.600731115313007 2.6297269821627434 3.190575828350421 -1.071857940937096 -0.44658390694481154 0.03323125124930406
Ni 1.123687292113904 3.836137781613363 0.06943907434850817 -0.03191818886483535 -2.0083331593651024 1.4229495338098526
Ni 4.26177465565307 5.3976206128358895 8.101817328630048 0.26440453579715756 0.26207023123702605 -0.7095925908357069
Ni 4.590476595652134 0.7424216503386808 11.343182752547182 1.2966188942007024 -0.5783159200751912 0.15733120175572257
Ni 9.009700855264855 4.271462575948623 11.934334447413873 0.10913407322520559 3.2228096784380944 -2.299310303444466
Ni 9.504193484962215 4.026608053502727 2.3833240644021134 -0.787359976824173 -0.08388558307106199 0.6340710634586242
Ni 1.9666571085114148 2.1664530486430946 1.7088516107365748 0.5045494277160021 1.1957429472192311 1.4864233859937819
Ni 5.254726110605031 3.2913106935443808 8.902122212818965 2.429097277033333 -0.7368460272350214 0.41041414189247377
Ni 5.370033725704737 7.329232157325136 9.672519010181754 0.9209305858251882 -0.7084613054447413 0.5965147024714049
Ni 6.981683822043543 5.737227268488817 2.2141792922314067 0.8578498553146194 0.36076048342108835 -0.6446701791307091
Ni 8.406300396741647 7.020156847800188 5.107928574713395 -1.0348859916984372 0.5741481618507467 0.6675905353723084
Ni 0.08469545889831216 2.0114834779709914 6.891659542556968 -0.04473385257226489 0.1888020186704942 0.23832300821875727
Ni 6.709976205087156 3.7804252735282944 11.205537189682591 -0.2882139795119294 -0.0035085273738907317 -0.4574416755949219
Ni 1.2780623978781307 6.014749495325373 13.138469560889027 0.24153611583941625 1.9920547339200532 0.3163125375203584
Ni 1.4046276921707512 1.0834866027187433 13.197931842150812 -0.10895589577612846 0.5622951191669026 -0.13034284609233682
Ni 2.257062504523361 0.8620409937233297 10.87174700161267 -0.7119312662712127 0.836662679714043 0.2252504913055153
Ni 2.023112697731329 4.848009939961337 11.121386037715554 0.8296291699060293 -0.6875376679181966 0.22540192928171504
Ni 8.79837786902888 7.449249049116927 9.381076087135279 0.6941230344451982 0.2860138865368171 -1.6171781228125568
Ni 3.557983935812188 3.9734034442477637 13.412619128224803 1.0492936824833348 0.2720779931820153 -1.0379800572427285
Ni 6.973723565386507 5.421742884175822 13.016062734397288 -1.3231876458281662 -0.35333822281508825 0.3455500942292371
Ni 0.8755372048349676 5.614804651522962 4.615964278577347 0.03272628658842751 -0.3263735213007863 0.12376005066849652
Ni 6.420806181461891 2.3663790279733723 5.189170564037511 0.3306698346832951 -0.028484223482621914 -0.7581252483287717
P 8.20960682034795 4.686789199242343 4.689294311518192 -1.4962581126960166 0.6977968837523596 -2.2560329808130697
P 6.3016345444609865 1.1107762573959574 9.544729489719474 -1.0085018452779535 0.42975500831293084 -0.16111869382261285
P 6.071845992024091 3.7636316398807783 6.90760606371076 -0.5619547051083483 0.3067632032690265 0.3088409117336617
P 1.9423955094586975 3.3004041489320572 3.7156295274211546 -0.028933909425530816 -0.5856646471307785 -1.2083400671579512
P 2.6756493962962176 0.08083515240278795 1.5844458959921 0.01289973878080359 0.0886377530440667 -1.5702837722538634
P 8.755418490920603 0.3586991965613733 13.118227101924408 -2.736917460811964 0.9685260762159643 1.2934430675758821
P 2.0680691063895034 2.8090789025719767 12.10167074587265 0.9891501802242189 -0.46602504638855874 -1.6958127418973243
P 4.6072237867287225 6.357978671510674 4.831454092276971 0.986043002053805 -0.04918700324761206 1.5499291198569114
Ni 4.268787483863178 2.1717753672714277 6.668516922019849 -0.33313166596022625 -1.205466345154582 0.5516366110117918
Ni 4.845920024269583 7.025739244825718 2.8708428776489456 -0.9824529707097016 -0.9710596412710955 -0.230448490566687
Ni 3.59455281616079 1.666777428030184 0.06941399536020712 2.2217097820511675 -0.9158328595873068 -0.42369491816178
Ni 3.144403553185355 7.105806237105358 1.0865276622631 -2.1042756736006982 0.17021885635166814 0.6038562304381406
Ni 8.047949519462234 2.9220829661536607 9.102208883444654 0.16035610462497546 0.510667624798598 1.0186505036761813
Ni 2.8951276979871268 6.310077803855672 6.278824740175475 -0.6001209317654245 0.7850590966051382 0.09100548194529488
Ni 6.776853507223283 1.806411661781906 7.468414040436021 0.2526304259803649 0.07312217390697084 0.40437333501503264
Ni 2.0350484384597904 6.07822720126958 9.059861618421206 -0.45601599889198885 0.22050114954598798 -0.6250187234483687
Ni 3.937716972746791 0.9761671098186305 8.932982372349112 -1.7426703256808116 1.3575208718923977 0.9787762931890627
Ni 7.722675041197646 6.589216232160519 11.021872612136997 -1.906843747169348 -1.343482134411144 2.3810258754474027
Ni 3.928391304504476 6.057931797774103 12.241981183457082 -0.042197716413972484 0.7036646553870463 -0.6993542009371504
Ni 0.8136236846796107 8.312133439928306 0.629520689264457 1.4527527332142143 -0.05652698855245104 0.5987047681441882
Ni 6.981182242277522 8.87567688408122 11.097636235794463 0.20511181157411126 0.9173860630070394 -0.24652354175167865
Ni 3.1907996815422934 8.100754722607217 10.014656785950251 0.6846156091753952 0.3963851746032335 -0.5851545402635794
Ni 6.302312605996534 0.09729811494529789 13.51309763042724 0.8024595514697728 0.23711921771864322 -1.6937648582293605
Ni 7.735994770539758 0.8428639273357953 3.4189255899399713 -1.9027135270510585 -0.5381522033721119 -0.21981852165666657
Ni 8.910555254848047 1.658111244295044 1.373144273338751 -0.7175249583089063 0.14746150805049443 -0.7296927040196918
Ni 0.5548029523042876 7.383848620736306 7.136295784919502 0.24925636730180945 -0.6937211710210891 -0.46518815230956007
Ni 5.997054875801856 4.332339497920869 3.9662884423816145 0.3241469459631127 2.6818449453178523 1.6811296859638534
Ni 8.499854311618742 4.201269274248245 6.686176245189461 -0.6967471023316064 -0.05261968307824486 1.1471190155639406
Ni 4.352894979813542 3.1362203721878648 11.326828465620645 -0.3455171841087727 0.44029370306072557 0.061063442970223876
Ni 3.0820683344859736 3.4796353186568774 9.228244732428696 0.2525628059672231 0.973340466885472 -0.43678928945189294
Ni 7.9017390176671265 7.515866272855859 0.0948255124690983 0.034231153268728144 -0.46659943083478994 0.41460838247947945
Ni 1.47299115657657 8.060340397385788 4.861171764562293 -0.9760915472680478 0.06469384063395955 -0.3433641423215119
P 1.8461850795245303 7.039486245820366 11.220708119901888 -0.06091303343528864 -0.28860530141307716 0.12836412509941117
P 5.713606576914903 7.322563004139894 12.116434839170617 1.006833456436595 0.42203527107116995 -0.0039772394801931505
P 7.072479048207522 8.449826374215245 1.9425710623768049 -0.32112538552796954 -0.6855082961929936 0.7212211762135707
P 4.709044479230975 5.173070782399656 10.144526933590098 0.06998337116767303 -0.6912763090250224 0.9006445818826424
P -0.2429587367006198 0.36245361399518194 5.18148989165746 1.0307799399498634 -0.11942285674572335 0.27469974707557854
P 8.771682679259541 5.21662462541581 0.5514693045630854 -0.5854736141658949 0.510115866060186 0.588309026732161
P 1.7850852332118299 6.931200747444953 3.0673404663933286 1.5439114529079216 -0.22327382719511868 -1.143662681584224
P 5.081095914934111 0.830763779906249 4.510293496945173 0.5028003062353793 1.0141204770163115 -0.9409044578439538
Ni 6.433550022924497 5.812594272590557 6.237592096854296 -0.733538303018027 0.603089270365129 -3.5058498270585683
Ni 2.7997067917587337 1.4355584444087102 4.600738546124355 -0.44666618224597265 2.07294343914632 0.6600967980984245
Ni 2.7089672966798686 4.668527980353505 1.6619901278189395 -0.7603883333313356 0.5623252010738896 1.2058705225715363
Ni 9.328547681713026 8.210693576507662 11.74759722937569 1.1766805312711413 -0.34983972274352654 -1.3001716445489673
Ni 8.58359955551587 9.333563479373236 7.868559516144841 -1.1883903635089017 0.002355387606054008 -0.016410065926907226
Ni 1.8377325316156587 3.691803559683741 5.7996265779360785 0.15629838961583406 -0.5669609000736882 1.5670886623553333
Ni 3.0331457302705593 5.215807236167478 3.804022743816743 0.7032388807035372 0.3335674679460642 0.4615564690942438
Ni 6.8383806251885195 5.56891939144623 8.346820467302912 -0.11426702357639676 -1.0253500271835438 2.9109189241345157
Ni 5.371324829176531 7.089207662255739 0.7366423368124171 1.759232600914867 0.05104308261974435 -2.328414934119906
Ni 5.42007095162242 9.164549675252546 7.819714006597167 1.9933731956211602 -1.6844716058528924 -0.36406460809365687
Ni 7.87212723444352 3.120374166987277 13.50980763870271 -1.8847047491784639 -0.04236021013376576 1.3998188613296603
Ni 0.7023584309534664 0.6604393664339745 3.048878615598083 1.808344013729537 -1.3665025065657175 1.1616938280543219
Ni 8.658325652138807 2.1376215006110755 11.616218627032108 0.09672644358947212 -2.8008661957497827 -1.0736268599120606
Ni 1.7757409879411432 0.37299793529864467 6.46542541705513 0.8325792536732888 0.4024023273315908 0.45633995789031084
Ni 4.337745413176873 8.5910489438927 5.7144286104203275 -0.8580979667696835 -1.2050817081216534 0.2179812113376117
Ni 6.295643452811292 8.088911867020613 4.237189816306694 -0.10419806937616892 -0.49521066681357945 -1.2429095776027046
Ni 5.166299455558374 0.2794932495467349 1.8454503580524515 -1.1286942331998497 -0.01675845040526146 1.6793425121564431
Ni 6.6649361998013115 3.307630612968433 2.2202419054403304 0.9242087423558276 -1.2402546564783608 -2.0519760928660338
Ni 4.244535173324645 4.2100562086677975 5.6537959763711605 0.7925353503775253 0.9702340600460065 0.12950543779270599
Ni 2.9567198355516626 8.580051343096981 12.585804824550259 0.06299691254751086 -1.0282690006025517 0.22230117886920422
Ni 9.016537201705436 2.5532639333871052 4.5854450075178095 0.3109844404392257 0.9144028120089995 -0.6847392792374529
Ni 9.12394029123322 7.51007024000406 2.609172429121489 -1.6394981264659958 0.12856107160156569 0.5978830435738413
Ni 1.4052778881637416 9.147365924009236 8.728599763912598 1.451312915443894 -0.03660145327311761 0.356596838961702
Ni 7.030522829631288 9.281389895192872 5.9581127800788405 0.4644271057738195 -0.09186654439400953 0.65065853550366
P 7.278247502960525 7.48671891534153 7.522928330191149 0.4086588497642639 1.3381841192369985 -0.45326723250225803
P 3.407695776289613 8.23778817238698 7.610994590887406 -1.0987372818264434 -0.5389926969955363 1.5500183371366079
P 1.0664700447307731 5.219401891157296 7.285592859978476 0.6971551364033025 0.5604331262574994 -0.3677610831086376
P 4.888805094264375 4.9072985260078505 1.471610883368594 0.6223275497694508 0.16201652304653388 0.37558263603558545
P 8.399352588130839 5.080557181111348 9.736345964259339 0.8946796225484592 -1.348262072298291 0.8049694623758201
P 2.0343517998958722 2.200486164619035 7.885511983384929 0.33219424174762147 -0.8249207086867664 -0.5775255629634118
P 9.196817973533227 0.6447780026656795 10.033893298828573 -0.1655420197012891 -0.10526173475399292 -0.18314559171566525
P 5.790924168995614 2.1519815435419716 12.902710351533646 -0.5007079424827248 0.714849211248956 -0.4724949703836185
