# total energy = -340862.2632118088 ev
CRYSTAL
PRIMVEC
9.35142332885762 0.00000000000000 0.00000000000000

0.00000000000000 9.35142332885762 0.00000000000000

0.00000000000000 0.00000000000000 13.68675329813876

PRIMCOORD
 96 1
Ni 6.9844939009159335 2.7131658480934213 2.986695914798176 0.24017780203930894 0.7526881364736006 -1.0380317364162703
Ni 6.415946067044743 1.6384161195006717 5.116847277173328 -0.17356283312323656 0.5489927456310416 -1.3661757193539181
Ni 5.643303419623129 6.6534909217438445 2.5663615942559552 -0.15930478054232566 -0.40366422476314995 1.4687969311612705
Ni 7.369379781149995 7.319302909371642 6.962889307662987 0.8811661614430566 0.04761965876049218 -1.0789873528930256
Ni 0.2747840925694565 6.8074153492829055 6.76696389750856 0.16219547182655938 -2.0111752567995875 0.9671567066722634
Ni 8.99452623098615 4.992893226172538 9.551834589191532 -1.9523862116858377 1.618723870033122 -1.5905849457050607
Ni 3.808647682145107 8.152439914129234 0.22717786682730295 -0.17656459606403785 0.19023720845512396 -0.8559909477290097
Ni 6.737887517037893 9.066859490221548 10.335524072958949 -2.4068783177341317 -1.7363173868795903 1.646043126673365
Ni 6.730247404200747 6.165066082718018 13.541687606072523 -1.3161063135013527 -0.8309633153364205 0.7885827934876806
Ni 1.866160682580032 3.3837283587582694 5.664153353015662 -3.084009188496708 -0.6527300733207081 0.11394229324712635
Ni 1.7123578235438885 0.47297254716279313 9.602516498057478 -1.0088993378266882 -0.49134861275501185 1.7396870746827717
Ni 3.131099658274204 4.715819905178929 10.974476902580813 -0.30248205939516937 0.510545754508753 0.20884505336429837
Ni 7.7745114928313255 4.853154907781518 6.39677751956178 1.0501244059147463 0.4890127655329836 0.2996505034836452
Ni 9.077997035373372 8.276206001521668 5.247432422437054 -0.003203851649278353 1.0147416555400783 -1.6286503851182144
Ni 2.5899514946757627 8.077282525056852 11.454867933848512 0.3386605661982554 -0.005032934438217138 1.3792122408229022
Ni 3.530685975937876 2.9014193505714787 0.31637454770189705 1.9120929113834295 0.39288101810471693 0.6869812811940943
Ni 7.6165472504261125 1.7005563273376738 10.249667720487572 0.45615586690396276 1.9570589345711584 -0.9987103131088284
Ni 4.413179792879621 8.388441783983625 6.0414009906972375 -0.1787585183915631 0.10509435593819319 -0.06449406591832763
Ni 8.306682290060538 0.14078380751610234 7.230725292719594 1.8767685250505228 1.0946350867326116 0.38572460956559373
Ni 4.443618675725285 2.5653853056633014 11.775672250768222 0.99477858215459 0.24267074366449176 -1.8153155599513637
Ni 4.257487946336618 5.576524905828692 1.0626723653991472 0.48296964466269726 -2.6243766758980547 -1.6789486191521343
Ni 2.752862640007353 2.4518683782090696 8.642650875005605 -0.4909547197507029 1.3172609959310864 0.2328041352830571
Ni 3.7864099975346646 0.25451301227927303 8.33643758386288 -0.09089363895777895 -0.6723738156935646 0.3296465356251032
Ni 6.1659544679316385 0.36112578391017 8.29090176323963 0.23134683401124026 -0.3049770579028812 0.20869490093967927
P 4.050269757403567 8.562471771620435 3.4245080454904886 2.0497960544955793 -0.8588505286649918 1.2162750057343117
P 7.650193671464116 7.546589252709241 11.997342129271074 0.8964212878299143 1.7497226045419028 -0.20382394600062317
P 6.482107386901296 9.247959153874126 6.177296809253761 -0.8350963636681876 -1.7171667820930685 0.41877742625550457
P 4.460666320403518 9.09815870401093 10.393104526794247 -0.36572348385331854 -0.4142857090327381 0.4644929260147484
P 1.9182761646380628 8.987615529166504 0.1483575252478086 -2.70865383798058 0.17948999724094894 -0.05152670712438223
P 2.678182173523335 3.838815373715035 1.9697015116564587 -0.22482368818074183 0.6187048654151991 1.003406175922601
P 6.93469757183662 5.290240432883322 8.451090709248216 -0.028179804868325664 0.2982806197193121 0.41599883506910296
P 9.052486352607481 1.958440527717058 2.2488704866118856 -0.6180134957751292 0.11888781017785975 0.0020070031276997694
Ni 3.23303017225815 7.1300488046003485 9.51256702760713 0.697983545841869 0.2199979846573243 -1.2041131735607973
Ni 1.9685774705756451 3.525103176227012 12.628288270262379 -1.068356869762373 0.3811027945228663 -0.6249477610011173
Ni 7.731176997253196 5.618737230610668 11.479668843585833 0.32980902934489653 -2.0116719939303485 -0.26503111363756293
Ni 0.6944684891922386 8.916918769008833 2.227614701448077 -0.4021758131430816 -0.07037906394419492 -0.2251892990502767
Ni 3.1042143162830254 7.022488733789032 2.169924835960154 -1.3493702177608051 1.348058440927917 1.8538705374064264
Ni 6.400619084253947 7.878125263009502 4.448701174289531 -0.03110597737618514 0.3047929669165331 0.2998770176721545
Ni 8.76297563862317 3.230654910739625 4.533655114412334 1.4622686431244494 -0.66532642192848 0.24787542779388275
Ni 6.001350714982518 8.611576095375455 12.682022483693862 -2.168023605381621 -0.19647984693072615 -0.04413915641105947
Ni 9.0957460367992 3.5149755847917263 11.677592652899744 -0.4357047981384626 2.011387115700078 -1.4016109202330764
Ni 7.922516469420676 0.440586697985802 3.6629721451001056 0.4990364683175728 0.14173926085473654 -0.9881111974367435
Ni 0.19534468676741748 5.69987953059587 4.642711412951856 0.0008507780360695026 -0.44149492245767835 0.27778044288343123
Ni 2.3107554005927624 9.204849092455227 4.760280312122532 -0.20342593923125613 -0.35971275888286436 -0.14945437011080712
Ni 1.858903978098239 5.252460682746153 8.634110220104548 1.243240221469246 -1.268975421451821 -0.03386297129603201
Ni 5.318724868259019 1.1327846616004902 2.6857512155433905 0.4702995053941965 -1.2663297562988578 -0.3265444996610118
Ni 6.049332867941383 2.7812348583034345 0.6949341900726423 -2.0973717473920135 1.4933350255119509 0.0024901134117053885
Ni 7.78989458416193 0.5611948097293938 12.196361925395893 0.25952149667324337 0.7307244877183158 1.9185530651864766
Ni 7.806212817822663 7.26505530280092 9.568080816892847 0.29799599859935777 -1.8301839924227643 -0.7223102955126914
Ni 2.9803547146575786 0.5088333852385397 2.1747295972523513 1.2048680494489508 -0.7573428616367924 -1.8370084715437653
Ni 0.49082721967192605 1.575995368964631 12.35202104195734 1.012875805975933 -2.043531818753422 -0.016217490300126907
Ni 0.8248039514538215 6.356405554885497 1.6103281844729487 -0.17812654123451904 2.1622645914106564 0.3656401801108929
Ni 8.247618700489657 3.236808147271867 0.20407330527683176 1.760232760044607 0.061936332493480434 0.7758026110038767
Ni 2.009527353211948 6.016228829454853 13.176442520198139 0.6404044618758197 -0.09273583437284029 -0.04572629839252125
Ni 5.052162547056048 1.8027393297507548 6.978191041610871 -0.5129088554242909 -0.006943521197368688 -0.5921800796517931
Ni 5.395294322249896 4.379019043560047 12.646601162513276 -0.34764477197473675 1.1464649269197094 0.09819634326677927
P 3.288110055502686 1.4668362047687957 5.793643446610809 -0.9988589228715506 -0.08744681805975908 0.16574487974071456
P 4.853257773437833 2.7132500109031326 8.87538068184688 1.2185036379545142 0.8850161313167662 1.2073401651385272
P 4.5609229296165354 6.514828017032473 12.760174198507315 -0.4733421488752622 -0.6755568414072365 -0.8141886669812429
P 9.220494023638267 5.199185624198764 13.664019185130542 0.6406998816290513 0.42548286330013824 -0.7412680675621169
P 8.807301385071234 9.247622502635279 9.338786722972463 0.7320061826442168 0.37797633307874257 0.7692493832663913
P 6.661402225856728 3.6823286561914244 4.9211266631892 -2.2884558772284653 0.3741032232765815 1.5446732707746107
P 1.6861925411469085 2.52568851374937 10.683209056158189 0.0856753279816331 0.12518804136427472 -0.43336586559264073
P 2.5386308835983407 8.00367747225248 7.465713468288125 -0.09628627072825997 -0.12083927747727577 0.6322085563285886
Ni 4.631208227148952 4.449482018135188 3.4055788944440386 1.3150084524514838 0.8632314313415068 -0.8388306338996392
Ni 9.235465652343617 2.962334521956013 9.135455920705754 1.9683139386596877 -2.0371796512831497 -1.1112860650257312
Ni 5.322717926008666 6.307058094124645 10.686562476554027 0.40907768246923737 1.0483431456446073 1.0154785337061027
Ni 3.1328577258548442 0.9614478838744474 12.507064834865563 -0.8428436117137743 -0.9338310959369401 -0.14874346008671158
Ni 6.268436715890361 3.9580553722296496 10.353700434429646 -0.07871303773118701 -0.675497706034527 -1.001990269411681
Ni 2.2711053657953375 6.885228542572852 5.614688999463543 1.992138294772795 -1.2749403807860042 1.4148721561183568
Ni 8.04688104790439 7.761456905902739 0.5889012066864248 1.7260620277001693 1.5007138344745252 0.8566735756183311
Ni 2.2747804751527405 5.141337719657049 3.6606455109827474 0.26902455106767215 -0.3318713111905639 -0.18498598735851368
Ni 3.722913833318977 2.422495557619751 3.6448509570268866 -0.6413118041814374 -0.4361668253765456 0.09441296496494707
Ni 5.778281863553797 8.43685410241435 1.3299117296491314 0.9226041168728691 1.8121093943092406 0.4410881739375629
Ni 0.30058841002700715 4.309220020039297 2.155622769163177 -0.004913121030901215 -2.60105754155614 0.8026001908126952
Ni 0.8199870333113324 6.019716910346231 11.049370581516097 1.2990969234275498 0.6014697324838352 1.1285044857865467
Ni 1.586431557368859 1.6850236132342484 3.399420047057816 -2.8304755339757834 1.5756576349712668 0.9808419174688398
Ni 5.449719605863343 6.7479402970867675 7.776909197765774 -2.289898523212263 -0.4241710864672501 1.0141240765607376
Ni 4.391531247937158 4.965007281888123 9.092000791767036 -0.21350774894729035 -1.2272237914363318 -2.2024558189175614
Ni 7.37343829886275 5.263486010818361 3.892703885630988 0.5469726298772193 2.2080981048050035 -2.01588577490138
Ni 1.5582370161155013 0.6995921340190097 7.319388007323684 -0.37601432425636533 0.08207141268045866 -1.6808394084169438
Ni 0.8480918009009978 7.25116843919852 8.848240045999576 -0.04718745631908002 2.135572169721135 1.5597710456479976
Ni 7.446557077655454 1.0850269428008559 0.9015856827536369 0.8009590556648464 -1.9468940782230146 0.8395232890912897
Ni 0.22120978847642642 8.4503856119313 11.515993512257323 0.12253054913676963 0.08477621320613142 -0.48012291924252154
Ni 5.48340343259455 5.6389737106346365 5.485254079265874 -0.08338524639587576 0.05509436987098254 0.005327068639868245
Ni 7.077409642837447 3.02480202960856 7.955356797770109 -0.6167824515815055 -0.10073505052823296 0.47054710262862837
Ni 1.439043774717393 1.8584270555098739 0.816139857765186 -0.8211244748691278 -0.048295087560961986 0.512371237753266
Ni 4.006589259163291 3.4954311100920523 5.667410453751497 3.1830501391519697 0.7314490245891662 -0.5960511325714251
P 7.0178691306782 2.851445344449441 12.143968706065815 -0.5304183250629639 -0.7997472947449323 -0.0038134602088192382
P 9.347720137652175 1.6610278610431655 5.964947494355297 0.6388144916808804 -0.5289273423397342 -0.5880321189216905
P 7.972125770033964 7.5510124759307455 2.8739037226497937 -0.12908017732982932 0.7062064479722935 -0.10389030832776303
P 1.3644007139265804 7.32198676785911 3.831633480619652 -0.5786087687252616 0.3744570070715744 -2.4964411536956295
P 0.5484310520654775 4.42340089854792 7.135205179408674 -0.7001167901347879 0.14205087855788437 0.055860044392413474
P 6.7088887533806245 5.004797588035067 1.7718599948675997 -0.6770030869354599 -1.9466166561919123 -0.45390897985131506
P 4.583207371343484 1.0411220104013486 0.5568117976280842 1.260639647892616 -1.0441643316765694 -0.04203985067986953
P 3.665337120052999 5.267329445795188 6.6694182659105845 -0.3461800145037522 1.6174118360899175 1.4578049509261408
