# total energy = -381162.10919197416 ev
CRYSTAL
PRIMVEC
9.30893248673404 0.00000000000000 0.00000000000000
0.00000000000000 9.30893248673404 0.00000000000000
0.00000000000000 0.00000000000000 13.62456365564768
PRIMCOORD
 96 1
Ni 5.9609283741292325 1.5014563388799038 7.056666061231775 -0.11793495934628721 0.853076602295692 0.21332674328473583
Ni 7.486988221575336 2.387852890402264 5.112263718661121 -0.11920431297701406 -0.1438766189127135 -0.5423011925434789
Ni 6.768422413881968 6.972464905089893 4.636316618406603 1.210778758506431 -0.9905995110762358 3.1826477615072286
Ni 1.239214401756018 0.35023089789519946 13.004509799855652 0.8858080310904423 0.19330016365116387 0.28853511029677403
Ni 1.2687144088109894 2.013391772133639 11.240400999929136 -1.204690643330822 0.913492127269272 0.0832983431090243
Ni 4.33314982138503 0.18585004444631856 10.750843309483683 0.42195608109380234 0.07669729285273888 -0.42836147039951383
Ni 2.4938816314423775 4.794956653190037 2.9246217628546565 -0.5656869184572708 1.6024932671068723 -0.7424615736495858
Ni 1.190696245627741 2.0683610184762093 5.71269824218652 -0.07584342949287583 -0.3918883151741444 -0.9655855055304016
Ni 8.63563601915407 3.0659527685696104 13.057495312684996 -0.06511010223577172 0.1974226704599697 0.4468361321649337
Ni 4.710859757092022 5.449961069854265 3.7355964124647154 1.8573811216628464 -1.5892672553349017 -0.559347092282172
Ni 6.262854290450133 6.096457122224318 12.283484572198914 1.5339155180374744 -0.35998246760448327 0.5610905573358401
Ni 6.110029545792051 3.5250320831555872 3.167165998833601 0.7439738965290542 -1.2917214568990851 -0.2891670874538181
Ni 7.284854061527484 8.708469106941415 6.355477237814052 0.7221683706181885 -0.528154982950084 0.006227211856634437
Ni 3.6443632887212782 2.5841410408475536 11.610308188424554 0.3588846065546142 -0.6227360980617791 0.058761277199608476
Ni 6.256002916138849 3.5047199924664274 13.198836558225688 0.14381414110589424 -0.5366216256601984 0.19945255640580487
Ni 1.7354642837672078 6.465844872286896 13.291933330253254 0.5594838749703526 -0.7636806309293622 0.6407978406594964
Ni 6.494246425308265 3.6508236878680598 8.319675956214022 -0.767831162762626 0.50216601508549 0.1575489741934835
Ni 2.986119363551172 2.7432306970701656 2.962688780478479 -0.38875799707527886 -2.1594667169505453 0.9733785192122592
Ni 5.128616720363067 7.726460509833188 3.7517688208763915 -0.6123030756539132 1.8376047103668676 -1.1698205709265146
Ni 2.5424835679630484 3.996250245706121 10.190179338227438 -0.0971589031412004 0.4372819128175953 -0.42787373212981794
Ni 8.26393034490194 6.918733746768248 9.902428133406255 1.805082569369446 1.233867007784462 1.9983061141464034
Ni 1.6361193562535907 1.0230796072459767 1.715264831161155 0.1130696608341859 -0.058146526433745016 0.37751867671603373
Ni 9.10424768060792 0.3662227130166053 9.646054547322903 -1.2560250319387403 -0.376987486802912 0.3339824439962958
Ni 5.044799092239697 4.4650946304721755 1.4380457525570725 -0.5565484464911123 -1.0966973685782788 -1.1987274837688517
P 8.070630361785348 2.2169595077846678 11.261805028399156 1.014191696573879 -0.22518544239553479 -0.8208437104039153
Ni 6.053161277221896 6.7096830498816935 9.364870794372115 1.9453172206541982 -0.6202912360657123 -1.6903409201494761
P 1.132068588817325 5.689293724124795 4.405911230392216 -0.7736343997079643 1.099046585536746 -0.03435225222762471
Ni 8.444719122754448 5.1501296633432 8.429271880183599 -0.7942890998438384 0.6516268129542002 -1.6250876074676206
P 1.4387327517746984 0.3889430245404513 3.981478831633913 -0.7999617247485835 0.21722993499388396 -0.4359328549888686
P 5.580295433620958 1.1088707290568365 4.901409881551611 -1.2707816214226244 0.6990587811839187 1.7573520960627025
P 3.0739863773068903 4.90013828137373 0.8638875527659948 -1.4006961217282907 0.5066003967077598 -1.9027754906372456
Ni 7.170568297370374 1.7197880414571505 1.1424499103281183 0.5476169483294375 -0.13190890502787606 -0.33854409522504925
Ni 7.735899767376179 5.538982391238516 0.6165017409999598 0.08718945063331436 -1.7285464846849197 -0.0393425063533645
Ni 4.373150304286643 4.770129730244121 12.510673724038643 -1.5273856873387568 -0.05379030634757833 0.13880331815486419
Ni 0.22314814424661936 8.885255043824014 6.327955378912814 1.5710170508754622 0.7613103309249727 -0.22162215052430867
Ni 3.741827811872288 2.456962405194345 6.679741799426785 -1.4818910453410674 -0.4861758103048207 -0.03341971311102632
Ni 6.551840790612495 8.156859003423152 13.52906907645658 0.2205363736592976 -0.157192105074697 0.7196713152279476
Ni 3.0694250003876933 6.8358283940287174 4.176201219634694 -2.301093620597134 1.3043985381461214 2.317315481772635
Ni 7.343146596768325 4.833207056783877 10.525193855077495 0.27294419783705254 0.509627870680174 0.14121861246457615
Ni 6.3963350733978235 4.915665580763975 6.1789845323048285 -0.20293177320365696 -0.9263535566129724 1.1581377352719473
Ni 8.287286456514726 1.3698280334973565 7.277001976973723 0.33446606850093363 0.46078616658712257 -0.09084530221834677
Ni 6.68767673347969 8.251875277329775 11.227771571222451 -0.7323836205882935 -0.5122838202457822 -1.1162776047030518
Ni 7.783915241150096 4.923308214336753 4.479688243933859 1.215493647483597 0.09134615311416526 -1.1500377318726323
Ni 8.315148091451782 -0.007360572918386156 12.46667970909961 -0.0753052976012187 1.779185646998026 -0.2200365512047436
Ni 7.8367341240879025 7.536465197749893 2.79029665973029 -1.1494366079535236 -2.9512677602652078 0.7059082000055843
Ni 1.470792715263913 3.9642926804742764 12.73786380677162 1.007970912475148 0.7288599237057511 -0.5115844801859125
Ni 9.434975434047182 5.812944274364992 2.3614090058831545 -0.10965909249074018 -1.3663207295722148 0.308291724098411
Ni 6.299168436086435 1.1635793252897382 11.727288888536984 0.0022083205052284547 -0.2774261448678061 0.5113697930719451
Ni 4.205850169609476 2.543647184524068 8.956379011606533 0.41502695807413686 0.9752621093882172 1.3907300116545145
Ni 7.234623061821385 1.759462711721678 9.335319588188458 -1.16749243701397 -0.6314356827183062 0.8626146236931145
Ni 0.3511999577672167 6.600731304040298 6.46687164754034 0.22258322888599733 -1.028061769687752 3.282482925929011
Ni 3.355702601196002 0.630889627053656 4.992721200327949 -0.41835345134420854 1.0576603092804755 2.0067899832476987
Ni 3.557771598716437 9.037735357980035 3.0241491454450418 -2.8906324059713375 1.6504538541465512 -0.9219454002429478
Ni 5.150036574018317 8.888848291764443 1.5753264417464292 0.9881675045959755 0.14235169762775485 -1.2365774647370895
Ni 9.233111233041484 2.9534357015852506 8.847205713171919 1.0166131615311782 -0.034839733387004516 0.30389385214103143
Ni 0.6979009084629068 4.395528977988174 6.109444944831794 -0.9123739545044287 -1.222095469070831 0.8195075080909952
P 2.2565876333867543 6.495298334679426 9.616612255649358 2.5069258552770375 -1.690787006547959 2.632169689579912
Ni 3.4688433666570684 6.993363458525806 1.9581088147662178 0.49464373856651594 -1.9153918938496755 -1.0189760053364
P 4.792126737713637 6.052444489420308 5.826585584033137 -2.630563778545373 1.5074701793617522 0.5158103453418019
Ni 2.836999574023376 4.619715999100472 5.325160866451781 1.0805030182066038 -0.0558998964914134 0.4909418642348964
P 2.7519624757440573 8.721361978437512 0.7693236929782954 0.25219359555326243 0.10690544100500297 -0.47064326188686045
P 7.743561018813933 7.357538206395017 7.99087515179981 0.046886894359525706 0.43158306266060514 -1.6015527575704738
P 7.93602319800659 3.9465498551518485 2.4079918349471434 2.2708705600465344 0.23390636720830038 -1.5128766950893042
Ni 0.6510006448010716 7.945276276899819 11.37926327674823 -2.0842089847578107 -0.8803963731565676 -0.6328621307521874
Ni 3.121703965241186 2.7207961697737058 0.43178180095770347 -0.7334488286280142 0.41649454375859885 -0.595097253298588
Ni 1.4561218376625769 5.109989546454265 8.223554712021054 0.4550968295118291 -0.019653255454553247 0.03697914832751051
Ni 0.3784397560140632 4.829241451543921 10.534730856411612 -0.01989699603424315 0.6808988224454402 1.2010664163146734
Ni 4.065545939147966 0.49679166188200036 8.258352432555036 -1.8111994809004615 -1.6114545900652184 -0.32118477801099526
Ni 5.9507909466496285 6.411490015488544 1.7196381676440913 -0.4646484777560062 2.0843354830333456 0.3472729904576148
Ni 4.090614894338574 7.329499701740687 13.364974938128332 2.0304929832915937 -0.5031263221162302 -0.15415203269679256
Ni 4.495292807463758 0.920498894799476 13.084335757728102 -0.6191128994868951 -0.9550264990676327 1.4192661714209944
Ni 5.909682700781924 3.259401694606012 10.859839738201023 -1.1033788943635126 -1.2469400389183363 0.20715018216037875
Ni 6.611473812131632 0.7239631267500014 3.2459158441104186 1.1115182356411955 -0.7401802338145769 -1.4372962894498278
Ni 0.3080949458808032 3.6302044024067905 3.8897448873226135 1.4264097244443112 1.1053169919264898 -0.08212643428811017
Ni 4.102092808096472 6.9258364622567115 8.181618902055153 -1.3463797676739133 1.124217942596051 -0.43543277542399844
Ni 4.772671068813388 4.800365142965657 9.706044100956335 0.23348882005490756 0.7105721811401569 1.500203984717642
Ni 1.247350408750668 0.9285837026654409 7.745101647140724 2.0870659945906316 0.8408147542092036 1.4176476619809648
Ni 4.635866996967425 6.805202006142679 10.93492465675725 -3.1406948141142106 1.0783252938289944 0.8628527078458496
Ni 2.7118316677876098 8.164157206493867 11.84223931047375 1.8208997389073607 0.7500882369569083 -0.7237981929121277
Ni 3.8921856894210083 4.6544941708762275 7.732811994469858 -0.15191902960121578 -0.4320898270936946 -2.1165501200926773
Ni 4.727466892650895 1.9569424055254516 1.8218083561678642 1.7524356325976915 -0.9331780357339734 0.08405296188686168
Ni 0.8136286262624323 3.3007426637859196 1.3656445992371784 -0.2215015657860443 0.450579658367766 0.49289461708589305
Ni 1.1728230952504786 7.780759513036611 8.603898144728946 -1.5453718395035323 1.5393922248813297 -1.743214885330372
Ni 1.9889558243522254 0.2671449518653983 9.994952406085797 1.9263990435934568 -0.3694646960633056 0.1929692626743064
Ni 1.3350126259916475 7.790319786701949 2.5357355228023826 -0.5486132508044359 1.3617341386427968 0.22059808013516846
Ni 9.092239157698197 7.47671116010841 4.684384222202453 -0.11276292822704449 0.5368939054849786 -3.4396236089404826
Ni 4.694466726980377 3.2420591533805743 4.76395139175173 -0.3718691917397402 -1.0039725899490322 0.8151823983530799
Ni 5.066312035219829 8.751969748458574 6.296687605578342 -1.691990282827441 -1.3636691508819805 -0.43752076830127873
P 2.0757057662093654 3.0251517174740163 8.057567136824717 0.5826651981828224 -0.15245047662465358 -0.010237361457292047
Ni 9.096940168604716 1.698945341616166 3.1052420490291284 -0.8698659059388889 -2.150590240396522 -0.8062712119063792
P 8.849276019757285 6.130937408160452 12.436365170451927 0.14645517827316712 -2.122699427523525 -2.7158156458363423
Ni 6.0747580005944215 8.994076464610576 8.782979664363125 1.26437108991059 -0.33565906036777027 0.1368078849913902
P 8.273006554077893 -0.3577971982215739 1.6409153182714893 0.21665477921670429 5.606906222391021 -2.4212908936150366
P 8.085412946576543 3.6466812129108295 6.754649848265739 0.22332344948613153 -0.9298080908204761 0.7733186682397585
P 2.7875039799838426 8.604181136276585 6.898144249890941 -0.3895948911542774 0.19928774869316646 0.47775956121666746
Ni 9.044009578477052 7.525294478764104 0.26258916030569396 0.5454590214461703 1.4275098994870254 1.6189953785269535
