# total energy = -340866.6257562446 ev
CRYSTAL
PRIMVEC
9.30775337017127 0.00000000000000 0.00000000000000

0.00000000000000 9.30775337017127 0.00000000000000

0.00000000000000 0.00000000000000 13.62283789937410

PRIMCOORD
 96 1
Ni 5.326603931285793 3.965289138119323 7.90115088283205 -1.04592887977616 1.0595762953562653 -1.504216448311145
Ni 7.27588020411486 4.46451049609085 6.528568123301072 -0.7263086180388072 0.4444241802893314 0.2207862848865746
Ni 3.601830672426582 5.685110672126463 0.10452141771867737 0.7670135519573371 -1.2812853491674256 -0.7082386479109738
Ni 6.008043179161461 1.5769754413290558 4.359430613163292 -0.8678959266967117 -0.048447039757793985 0.3801980233204097
Ni 7.941896504471952 8.633248509805243 11.833396565317278 0.5982381129204148 -4.078511377061459 1.0442180677326403
Ni 0.1485089298961294 4.771787361770238 3.5544030145624275 2.0490828304786386 -0.734078234681897 0.6574120521774097
Ni 8.84808076790799 6.423234138703474 5.173899066120277 0.4104542511017899 -0.8353249347392259 -1.2838178857812923
Ni 2.7340222765940974 3.9001069404895174 10.001438009693029 1.4340710976443107 -1.374411219889833 -1.9750581993620566
Ni 0.21618932856032552 4.281547985908202 6.528104597177702 0.9361867406533102 -1.0004452935220642 -0.5596049739292491
Ni 4.392356791103523 1.7464696322242084 6.11219973294367 -0.6006603492086623 1.561051455022318 -0.24289391541889135
Ni 1.3011680901700686 6.117334820539323 1.357137473404046 0.09956494147953175 -0.0788441639924126 -0.13997676963767505
Ni 7.652118215337477 7.903734715198469 6.3375758141900755 -0.9781247756479929 1.6386794872194426 1.0031390383041432
Ni 3.0650525291578594 9.078987516273006 9.951183587096594 -0.04628217089599126 1.6743046926222198 1.3072648039503227
Ni 5.406129377030339 8.19550486357795 10.063830673604478 0.4319358180143335 1.1303633933721566 0.6343829382720881
Ni 7.503315160431337 8.9576981806577 1.4759258156589175 1.194311356979027 0.5351663812709105 -0.811611650282686
Ni 5.465084687581129 5.5512000227904625 2.272902207498425 -0.5491567820127317 -0.2506429632366909 0.38009929295901634
Ni 4.819480290608611 5.723849542115789 5.678080525922009 -0.4490732490255685 -0.7487762030137041 0.6500440418481128
Ni 6.707846624655807 6.3625196627447105 7.986307519432804 -1.1377607142774921 0.389112295090904 -0.1591039773854292
Ni 2.133849024363986 5.213151724101773 11.653125857441431 -1.0102548234133182 1.1605111206001304 1.1921873686574886
Ni 2.01381623546866 6.2018585299033475 6.360802382227405 -0.2484171592299657 0.039496515432725525 -0.6617489889898668
Ni 6.202063300479937 4.950980231792944 0.08897467707879966 -0.665118419682732 -2.570078576676122 0.2133768797963809
Ni 0.39161628152448247 2.4358390860659753 8.625572405509185 0.0167327393736486 0.3045610534113852 -1.0024119303301318
Ni 7.379503423622589 0.9136546663801597 10.675223491880994 -2.2769033965041756 1.987313876800958 -3.6725709546696232
Ni 5.758809464191692 2.6174240487333846 12.224140710340558 -0.0849091392395699 0.5753064438249059 -0.06265778404053725
P 7.314544612076335 5.376875107838496 3.818999176653144 0.2412790055232877 -0.3379188029362245 -0.5791065342972865
P 5.0561299228716114 0.8365026977733546 11.208475858130987 -0.5047623150577565 -0.3325259140554273 -0.5198431206502788
P 4.365587692091197 4.25849268053493 11.591250704623546 -1.854351847918219 1.0043448856867865 1.0031115275003177
P 7.167835801703497 8.810570521378201 4.394891292376491 1.688313605306802 1.8064493678099856 1.2340976357380293
P 4.861197641711965 7.566393805774361 8.038564039803077 -0.3383628324521786 1.2182503842931276 -1.2039056855356816
P 0.6257435125940413 3.8744361563879894 10.539091081789 0.25798654808595567 1.2631235906567342 -0.8380513325314535
P 5.572133160369991 3.4331183328238617 5.711661038931977 0.6045776819851976 0.19228123546834627 -0.148326427153951
P 0.36062890863441427 9.356619187114335 2.5997002245542227 -0.8023176265752698 -0.40788391927145234 0.116226975516245
Ni 3.6065590111951016 7.131572794140207 1.9587729737060757 0.7697072967394163 -0.26463953462609907 0.12422233501689574
Ni 7.234274546053283 2.7423154849459688 8.745194722475983 -0.49895470723704394 -1.5523706394188683 -0.24989991442307932
Ni 3.3772718119358376 -0.12850191378799483 12.445784382440948 -0.803723762894177 0.6120400518005137 -1.5157663579322733
Ni 0.3672941909023999 9.015601715065099 10.011954840351592 0.6370496864709738 1.2127950176055111 0.43522091652350847
Ni 4.814686797565722 5.85046291272242 9.636591757956221 -0.14613713281211607 -0.8956134472166383 -0.27299741967249114
Ni 5.763109646300069 6.957685343601863 12.459229432344738 0.688698263885201 1.012965280365946 0.4386597670017284
Ni 7.4315244578297825 1.577031287849944 6.3978844720970525 0.2737818632469995 0.10909344979525729 -0.20942663689938126
Ni 6.057541812175212 7.099972971071066 4.052031815913297 0.4193818926087229 -3.2392058604079312 1.4763158652461348
Ni 1.5998911304001084 1.435283510082658 6.426070211189237 -0.6376284417925793 -0.24619701165019536 -0.09481405705810768
Ni 0.7816362833269155 -0.12324117152034297 0.43519518332410373 0.697311973696141 -0.27072225048506926 -0.14069359319904157
Ni 8.667631351165303 5.365566187358671 13.630058258189596 0.973544355366162 -0.0885657621555507 -1.463653439287118
Ni 8.641327639827045 1.4577058882191996 12.51768491653358 1.054300905889939 -0.7418056852331418 0.7602656917105423
Ni 6.3995365983399894 4.9719785236468415 11.458564024870341 -0.004133305442083204 -1.930956838167468 -0.7383596356660703
Ni 8.083597743471831 3.1146442397064242 11.078336710505624 -1.0903634559404511 0.9353133369094214 -0.39194667921590565
Ni 3.6505009153804946 7.424943876118477 4.27737997389926 0.6260553922429992 0.8997107572144634 1.1436685951214949
Ni 5.354787808827283 8.837656084008891 5.7863008448741695 1.9713876924890048 -0.970061024803252 -0.6106781384559805
Ni 0.17214596986198552 9.021782063376708 4.898704165140361 -0.006590765843640261 0.228928968598367 -0.30118853739472645
Ni 7.98322292992909 4.411977535442182 1.8552670318922122 -2.3210782912491768 -1.456795278714704 0.5699207540329605
Ni 5.241344909396743 3.185774091810804 9.981699056885159 -0.1503946225368894 -1.5055444230939492 0.06737678678276139
Ni 2.47616958190061 8.943103623198963 2.7897124272236353 -0.987026963233629 1.1118463084045755 0.45595660640896307
Ni 3.560494939215963 2.523601893641505 13.372913883536038 -0.1810372871234108 0.46560389969074006 0.5432393880870322
Ni 8.527447275982883 7.217818437898278 9.307014445710896 0.4770144555205268 -0.199048893209483 -0.8582710020124379
Ni 3.4599432783570756 9.175816075739357 6.727175105535152 -2.3895873918641684 -2.100351141735312 1.8617157444824581
Ni 5.953676591076969 1.8729340787751387 1.5958068881724976 0.23526133857429807 -0.6179821283165615 0.27964397845473127
P 1.3485445553900757 7.084354560729382 10.10588403460851 0.8374928889248221 -0.40032179065347834 -0.41157088120473634
P 9.807952153424381 2.695060020521219 5.0080414145102825 -2.381954043688627 -0.3482703213738776 -0.607559904541973
P 7.119482022367949 0.6021111265049258 8.305857588852685 1.2681848072297255 -0.08519041792541457 0.2583339041230454
P 0.7077317899097492 3.9580942446782488 1.3630060119740293 0.8085497235279108 0.1391514455229023 0.5201205426813816
P 5.201498416743138 8.025210205883402 0.5571677080449404 1.6114795297658826 -0.8561439283671062 1.2512844319299612
P 3.38403854871677 5.519060350019404 7.884299195154088 0.3634344307088257 -1.4875824392988897 0.29055034095459
P 2.8560003859670227 5.437608199304222 4.43359386212724 0.02519706809091789 -0.42675247404118116 -0.5621033148710707
P 2.4948130121237284 7.607617845943204 0.16289685522758063 -0.15436234893538575 0.15926801376711924 -0.9360340171255299
Ni 6.252967404269371 0.473296472199958 13.148572824476757 -0.5513252504189602 -0.25746847079895663 -0.04221057192977892
Ni 8.920039010072209 1.9036962040309582 1.2455021396995827 -0.9722274363269514 0.6520564442924511 -2.312593393706617
Ni 8.638647006824419 7.12784038499419 2.755914112782203 -0.3603683901889923 0.6302974553488048 0.6139107864606652
Ni 8.073107905298365 4.7589798929799185 8.925465430351828 0.6804653344524474 0.21330000381185843 0.4694883223468108
Ni 0.8341115359039991 7.460853189049477 12.142348826623305 1.6754755730018693 0.0633614949757812 0.28504509486564455
Ni 1.1569351422232657 1.8197402676292955 10.759236205578892 0.7414467592318262 -0.4532654327300452 0.9965279607455289
Ni 4.0240024470795985 1.4252869828437016 3.091730412186068 -1.1948929405141098 0.5842525972746003 0.5119922571472925
Ni 3.72563310148185 6.974876764281893 11.521732955422134 -1.6237282652262488 0.2364383896015347 -0.2521015500600884
Ni 3.93569048204867 0.2788910098873543 0.9136192969169306 -0.19765047020005957 1.27220446991208 1.7310083159618512
Ni 7.868225635667167 1.2541173963219086 3.1614659628189434 0.9397909130648009 -0.08683129596294722 0.8840126297529164
Ni 2.4238600073354943 3.3074450453188455 4.9469704515931845 1.7740511539849382 0.680044701975261 -0.5418044554127185
Ni 7.692532480953444 3.2976812119169225 4.4546815084145575 0.27490337844595236 0.05836892685719625 -0.11346303961786267
Ni 5.638153055813115 8.849216313832713 2.9376973305987653 -2.010607814331892 1.9674233085246182 -2.515135387671023
Ni 1.172153319165252 2.140606453391437 2.68730945419731 1.8645735256462275 0.4047996239191738 2.9086003033036683
Ni -0.08233173341916922 0.024862871099348233 7.603955244948297 -0.3840305096926225 -0.06058624622348921 0.2951263903610466
Ni 4.818670516055734 3.7501218008912485 3.576118003434388 0.6536428149429646 -0.3101606589863497 3.915828938296153
Ni 2.7581479736177235 4.086345779897596 2.574035025104783 -1.4297292757358473 0.7265454166399616 -0.7044177315029869
Ni 1.1454493744272953 5.166519879160273 8.496264440269705 0.4495224207478452 0.8185451441777257 1.095239810196146
Ni 8.739775748399149 5.53691262119661 11.258103868918129 0.7225542932026975 0.6663533205310975 -0.3111225086789868
Ni 2.5425431719760265 3.3136253936304536 7.4215046612071225 0.6888545869574071 0.8768451654701995 0.6742052124753486
Ni 1.3655498210004788 6.938678910992973 3.6775939242139715 1.3932293810376006 -0.20238309978903854 0.6904034195017658
Ni 4.953465401972461 0.6557917331578426 8.37976208226985 0.18617795078408583 0.5576198251784202 0.37895206672845055
Ni 2.6525235871115083 7.682154335821753 8.33545996802473 -0.518599478051165 -1.9415274145944625 -0.6922358447248143
Ni 7.046741928911298 6.711634880322712 1.214360258101724 -0.9553707697809287 0.8579796960242643 -0.9278813061114084
P 2.5977381501203567 0.25262452956302045 4.896429350189522 0.2039077639636811 0.003581289593355123 -1.2226461993679782
P 4.603326331511514 3.5300399698250273 1.5977410393459195 -0.5063743967398828 0.20784643689645493 -3.0149385589512914
P 7.303328769131324 2.6746388093831652 0.03694619666882033 -0.25237100167139115 1.278892680565533 0.3891156375250137
P 1.4611683725142572 1.7851247324322022 12.934584779614768 0.7538428189033339 -0.41121606896847884 0.33452263277048194
P 2.6177498201052316 1.8343255173345514 9.060385970940553 0.2661881100601416 -0.5978419059232607 -0.39888865775137755
P 9.071336542911347 6.447452913261914 7.227556209590453 -0.32190751510963267 -0.31435747067651665 1.4490660283912464
P 6.876810273602523 6.712239884298998 10.538001143856334 0.7842615404045074 0.4251902717603839 -0.6647888042574551
P 8.65389310702685 7.505707253076041 -0.028178292889400585 -1.3017256192996485 0.3459535003152429 1.0162508930957528
