# total energy = -340890.9897081127 ev
CRYSTAL
PRIMVEC
9.05538974896886 0.00000000000000 0.00000000000000
0.00000000000000 9.05538974896886 0.00000000000000
0.00000000000000 0.00000000000000 13.25347823043986
PRIMCOORD
 96 1
Ni 6.149062531306415 2.1254811241414355 11.379768165265498 0.8068944473126749 -0.1986236327466063 -0.13397170109417572
Ni 4.667609794307374 -0.04680368838717375 5.919294689403232 -0.32338795630990114 1.1141196778197844 0.15921607748326128
Ni 2.929472974380109 1.3755137302193423 4.621965195831117 -0.9525451274066756 1.7519867179857311 1.655290613413562
Ni 3.3596492729585807 4.192582149410428 5.213216053850158 0.1552529790704552 1.006895677133098 -1.226012801847366
Ni 4.9695979930505265 4.501434333719783 2.6837495354219785 -0.008431161486488705 0.006266035514369854 -0.015940839599972546
Ni 7.35620939657534 6.34520227716916 2.9514042232492215 0.6090897109229381 -0.8544308023307415 -2.2893560204452315
Ni 5.145580440931256 4.450932424085594 11.451005106759174 -0.7154385080935227 -0.5798590961925949 -0.5645561472869374
Ni 5.790260816148541 7.8519738844097615 12.387694641017822 -1.4496707518547807 0.281976740352966 0.7586258421142742
Ni 1.846873942195033 6.231222084132486 0.6233440654665098 -0.4913606969398699 0.7295047563786017 -0.532472122268199
Ni 2.524669878382774 1.2998197258025979 0.32892888932100334 -0.12346051715020673 -0.48425391069175955 0.3787985718697218
Ni 0.45032182455358016 8.967878640753803 4.74970233724797 0.7444477508416792 0.6229363869980432 0.6122040881822037
Ni 8.784878265678076 2.508877278346549 1.3092155983929572 -0.486554276690162 -0.8508006617773218 0.7348644780286183
Ni 6.682787213723321 0.7606672426622324 4.610289176056629 1.0624685293023959 0.9600645757121723 0.3848946574651307
Ni 0.6928170170020119 7.444218731295563 2.6871688506591798 1.3995285837827511 -1.9638474182479015 0.052482643279748324
Ni 7.8204067951171705 3.8611458226180764 3.730470207169253 1.2903523444657004 -0.39891642566551944 0.47572633283672267
Ni 7.231082018536033 4.124539949483712 12.734432765712247 1.9033750718944575 -0.730199211342465 -0.47524733631777505
Ni 7.956174256323085 9.198012320410118 6.864201990022473 0.1667013301167129 -0.006612877330827321 0.604170676354766
Ni 6.80455504209896 0.665839199325452 0.4003478441522537 0.015035811287199913 -0.1372539713898733 -0.5974251301008162
Ni 2.0588243988738606 6.555558985220479 9.270675485817616 -0.5071734956024103 0.17877703033432435 -0.013719149358305406
Ni 8.905966939809039 4.953551842096289 1.2193825081410286 0.15527971854333258 -0.010850055340626476 1.0778936056082147
Ni 6.027412422999854 1.8919969502113794 6.8514257403716075 0.5741839001846885 0.4167686233555919 -0.2620717738989229
Ni 3.459711331674339 4.0682697564647325 0.12517899376190336 -0.20347479019132053 0.5617685572394712 1.3685059101489916
Ni 6.163116496476267 5.618914727911474 4.780953393432039 -0.6807918645539307 -0.13724651519070555 0.8478390080458367
Ni 5.544461311915007 3.1660993686155376 8.958106063942395 -0.45420465671486293 -0.5429717362479424 0.2802337895199303
P 0.08328151563827695 5.48825450662553 12.349643892536049 0.6097394286917951 -0.10684193475691922 0.5380776413804347
P 4.325297944210261 6.025610400403977 12.601553068354697 -3.0783756443600145 1.4602930074553173 -0.8042765500738536
P 2.221413925049557 8.44221325537373 1.5054621978568645 0.9149890235297726 -1.6022927210602922 -2.214474954865625
P 6.622849587783085 7.9653292555413335 5.808085445684839 -1.3298421750302065 -1.2059587114099681 -0.06030676730985742
P 4.632583546061895 0.9222552427117784 12.532581785421263 0.7652340914594111 -0.5318751121141485 0.277092158567155
P 4.039935441376803 6.23499818173289 8.310672850186686 0.2759991826132924 0.28222665158024296 -1.2884250455360005
P 4.650667159750164 0.8130481457066944 3.521197429292439 1.3179557080052655 -0.13249434521770084 1.5913879012223304
P 0.41124691147083176 5.544452256525078 3.7050100728447983 0.2817083171829277 -0.44733595461948766 -0.6650320306165127
Ni 1.5307774459424552 0.904419746707565 2.6999324227641446 -1.3997185883063699 2.209269499405285 -0.3571660812016107
Ni 1.9332442513381014 6.560802055989385 5.127094767930139 0.1817219718952612 0.34349295458989226 -0.5414882097238803
Ni 6.145648649303171 5.698430106878269 8.998647950193646 -0.15124694323485566 0.07433496326814941 0.5606691535277053
Ni 8.515942240175876 2.542327888744378 10.241373442493723 0.2873400615474084 0.3355880979205188 0.5906294473352215
Ni 2.4393318836916142 5.215977042239518 7.094507722087441 -0.45068558781801094 0.6300040924781021 0.7053970646971206
Ni 0.4755121082581501 9.45183490012077 9.248436353690916 0.3544358267546412 -0.9676153914762368 1.2089617599023503
Ni 1.2287077486899416 0.8183627540560409 11.535482839407077 0.1714298459406338 1.0799391752833336 -0.12493967279889451
Ni 3.902130517436857 6.922637326773483 1.631304046161573 0.9178925703298126 0.46927594922568855 0.2578513080596721
Ni 5.8294163222016575 7.857063013549875 7.965857184774196 -1.054914628214538 0.9507582107095821 -0.04826423432302656
Ni 4.973346924481144 2.796757179580276 4.488887185434122 0.6734148553635693 -0.6762644089972224 -0.02745629643873981
Ni 0.7779684706606331 7.831916195716965 7.163690901145214 0.7473340712505387 -1.0407954152043366 -0.19737536216180201
Ni 5.244963345402337 4.602247989799651 6.998526022073702 -0.018048372861278594 -0.5834429568891113 -0.30993260213594365
Ni 8.29027286775457 7.544516230149476 9.183057343942329 -0.6192831065161722 -1.1475049381484494 0.08309136930454077
Ni 4.556246608960189 0.14644919916619706 10.326156341782234 -0.7652695726830369 0.8036759403753772 0.9304899473788492
Ni 8.338619594585651 6.9956237696014485 4.9743484506072955 0.48860601701286815 -0.07039294790126586 0.47190850175252924
Ni 7.405199056091382 6.239308547339107 7.110425286504686 0.28467742711358074 0.32235925793507064 -1.0336798872054778
Ni 2.4975489855453348 5.082826588723092 2.7417864350161114 -0.6209052155006274 0.2698709582283675 -0.5092278070282779
Ni 2.40546472535705 5.345097847237528 11.647885583518114 -0.1428972857185797 -0.39533667873406103 -1.1055039111263154
Ni 1.3888885411445167 3.2532212751227156 3.738315797003763 -1.1211958679402754 -0.3596885905131483 0.21025401789668308
Ni 3.7013725227103076 2.353686005742868 2.3636125241830688 -0.8172631921415086 1.9118998215360172 -0.010691932496207392
Ni 1.0496645790132013 3.5335761473254204 8.127045842127872 0.640843092075135 -0.3539352329691388 0.3821284075739032
Ni 3.4701521962625086 2.6144450141391564 7.1223666292040955 1.2581269087730913 0.42420836746308876 0.3226423363931282
Ni 4.274234600400472 6.684806565677494 6.094559044862589 0.0020869644360157606 -0.1380913796895041 -0.005431455428216453
Ni 0.9197106781417216 7.274312450057213 11.459806040231197 -0.9238852975781379 0.116746852575457 -0.14111062613180214
P 0.3034895823933852 5.799615033945227 7.9571766879882295 0.3257549138801809 -0.06363865989656782 -0.8144282937958748
P 8.584256101800463 1.8128347314518172 8.075277988981606 -1.2574579077305246 1.1909450116099554 -0.41485109461790487
P 1.7137053778987483 3.3475784381831866 10.45097764764194 -0.009575816613893185 0.7531375653061934 0.08858350276736357
P 4.054016572716442 6.1149961543934115 3.9089274931175853 6.504890998053314e-05 0.19268721265751332 -0.019018964304664022
P 6.929582810849048 4.199781184404005 10.250584585129529 1.3046129681497725 -0.8515036013816173 0.7125583583322502
P 6.347927949537797 7.970255387662725 10.234283072179295 1.5483532907293591 -0.42169202879913825 -0.6229178750552821
P 2.490023956514313 8.66783735084539 5.8284157016144995 -0.9798453578835254 -0.8872954142692461 1.3942976744011149
P 6.951478743697437 4.099746291858033 1.8878921419565509 -0.9787261566774177 -0.5379886812110541 -2.584552344812265
Ni 5.460843841310362 2.865360813682591 0.36906690518141966 -0.23828958387766055 -0.5725569061042269 0.5980226544754991
Ni 1.5588853762821577 1.1530137442731971 7.305542678844444 -0.6012259919041453 0.48814424688510116 -2.244142914243703
Ni 6.783555592853543 0.8990109623029565 9.246408851885809 0.2554259864476311 -0.2103329507637345 -0.17653220016420565
Ni 2.604801023864742 1.7779624248351305 9.35857253370272 0.7734233121384229 -0.5510005200896898 0.21417160778353436
Ni 6.350381960208563 1.8406166677540747 2.4071626109687427 0.9923879704352263 1.3254355613220785 0.7528156631904003
Ni 4.509783403234347 6.779716107523636 10.405160091218038 -0.9615815265773311 -0.30678428631494903 0.6716716474202175
Ni 8.058246611603089 7.176161078616478 0.25185846563504666 -0.09139371852264905 -0.7159272748044833 0.6378346442661145
Ni 7.816286592699463 3.9610811058748285 7.864932147398201 -1.2669892442597277 -0.5767133514747615 0.10525067901039939
Ni 3.0136699899402104 8.056924524673452 12.341294823021483 1.1443396530465906 0.034529144125121175 0.7101700606057317
Ni 0.21319195063809743 5.025062256365823 9.95882263823323 -0.542803071880562 -0.20067177352488666 1.5152840189792163
Ni 8.543180853082394 2.276832911415208 5.774381284368998 -0.11305346288426982 0.95541319298309 0.4520315603229441
Ni 3.4467440132959712 2.3757449356099802 11.636646939077197 0.04155674039586391 1.3739023985742145 -1.2522897332660239
Ni 1.10175118188497 3.2574863637792877 12.61953797829274 -0.8286740050816116 0.29024540811966143 -0.9100540481220004
Ni 3.1028203037914905 8.617027557953614 8.267480451303207 0.8431063784568577 -0.8219582836243328 -1.0479762492234919
Ni 5.662996366085983 7.893175908586838 3.750323244049654 -1.2523123589738432 -0.7475248471051061 -0.6018988496014537
Ni 2.922282994776461 8.32103402734348 3.687343007093265 1.3875510997059006 -1.8546696362689543 -0.69381475917616
Ni 3.3761391380193406 4.426537203616793 9.28502918439412 0.3298403968034642 -1.1269921629070785 0.6530175226541398
Ni 7.274457336296076 6.223026956246715 11.369138948566805 0.02634532276274818 -0.8884359556315925 -0.8675578266310028
Ni 0.24496459728207773 9.098674692888682 0.3940606869245296 1.1050287712621099 0.30208662372896367 0.4729246017218695
Ni 4.564613789254611 0.44587291148144875 1.435563642994698 0.4366332234900029 -2.4001242868397505 -1.156981253070001
Ni 5.809675572156377 5.61709459453574 0.6014191553703473 1.7332850278111698 0.5026349843021085 1.4850964396522426
Ni 8.044491474300894 -0.38061524395790897 11.51256817519167 -0.4885587087147006 0.9825838398606109 -0.6634736849904574
Ni 9.33837086431005 4.83542428047212 5.7667611737437205 -0.46125667846563784 -0.7562807389208652 0.7604194436795871
Ni 8.120411863465867 8.821706536519434 2.4810247100028446 -2.1956508801805867 1.8063030720401085 0.4296110265358988
P 8.66981142584992 1.6497743249998111 3.7031147797326525 -0.45899539323528693 -0.5018970776948195 -1.4123223931133098
P 1.8854589586826211 3.1462318431112504 1.4200309326494367 -0.20331692445721758 0.5474490552930056 0.9524723651872112
P 4.6828500155579285 1.1029917703052468 8.39548201010599 0.15506477431904908 0.81421874888823 -1.0351310178297075
P 8.346325731415254 1.6522464464504358 12.436865408332444 -0.1486285317754021 0.7077825342101617 -0.2993165171829942
P 6.310311859772614 7.762352690282172 1.4998958496674912 -0.20619784554943846 -0.027126423903146832 0.19053828463531053
P 1.669180025617718 3.089943539312413 6.016482567355517 0.17317048278082434 -0.21145343752142293 -0.31387513172345943
P 6.6403446011259675 3.6173656703387156 5.497569786245522 0.16950460389346292 0.04227639217070784 2.229062879982129
P 2.304660124667111 8.502069382804605 10.259783050219436 0.3729619105832867 0.26351776231683005 0.13953068323919196
