# total energy = -340869.0010150847 ev
CRYSTAL
PRIMVEC
9.23264722624335 0.00000000000000 0.00000000000000
0.00000000000000 9.23264722624335 0.00000000000000
0.00000000000000 0.00000000000000 13.51291246588630
PRIMCOORD
 96 1
Ni 8.393547437475307 4.644944886894331 10.430550117605401 0.5959678288289995 1.2523681519124432 0.9223616618447599
Ni 7.768543374429567 1.486862461468914 3.0829572971205663 -0.8280032042668322 0.5423328171123627 -1.0421807255876374
Ni 8.164014591454476 3.420261912511758 7.4882752846352085 -0.6460107523190036 1.4747744889009438 0.37209159216319143
Ni 7.227981104139811 6.850679737119689 10.688673702706426 -0.4746531543772019 0.3008784623534754 0.33553230498191894
Ni 3.0900932102652305 5.474922953982888 12.46349966554439 0.8296780208660937 -0.3148981736713351 -2.924305886964383
Ni 0.3082457810898382 9.196455382503887 3.2979745749617604 0.9972013326634697 -0.6322746336798336 -1.4130896102966375
Ni 0.4219578357717238 7.002436761778568 1.6597908697893662 -0.10936727228193421 0.5112762049168743 0.777532706321106
Ni 5.837996811421011 5.366577837211461 12.733920213664407 -2.3172797434386934 -0.44056649710613804 0.5126481455637364
Ni 4.654094440428246 0.4683768169043786 6.688526751533273 -0.04282275159248109 -0.24328652287161973 -0.05818509298116431
Ni 0.3781738521956574 7.3917959662510535 9.358935203806851 -0.9890637911579999 0.5203429431048329 0.16984913171707522
Ni 2.2866220737476812 4.735194014839853 7.124724099328565 -0.6612427387774096 -1.2057445385166332 0.6557673174851352
Ni 9.146359037927683 3.3087684629905185 13.004448783758535 -2.38483213656737 -1.3632168938359102 -1.1820579935329707
Ni 1.973810748538246 6.041161216581236 10.249679786025744 0.20507375924732424 -1.7710226515712595 1.4381612085532844
Ni 3.13272957577443 3.708634420158862 3.1461981617434245 0.17749173586399752 0.09183183450133217 -1.0044166194649862
Ni 5.347355465407617 2.330523311945221 2.0834881363237434 0.10935133144233426 -0.7315104739547209 0.8380572460687244
Ni 8.701936324599227 2.397930870321718 10.63027074530029 -0.05241785148008392 -1.2418603104025838 -0.30957187636241523
Ni 3.6663950584861493 7.637402851325915 5.740974613372079 0.15326397366488442 0.25093452633518076 -0.048940177344128616
Ni 1.2217008292852425 6.948425774721656 7.038254817212292 0.7596064608599886 0.35650505057884413 0.6027542556232135
Ni 3.1933234403991313 1.274853180137659 0.09066459707672896 0.9804464818026342 0.580537096096226 1.9480898983033288
Ni 5.026022406684758 6.826037801315433 1.2138780071769826 -0.2594901292146757 1.266022252360768 0.562919640124779
Ni 5.120370830058189 3.9485632271072277 4.829960677138699 0.25590575429752704 0.45579899778517624 -1.726209609021627
Ni 0.7361402091141421 5.3606320123115205 12.919952518383127 0.46828350340543223 3.343546883119868 0.20068977124701565
Ni 3.7975078836477203 3.794304155013746 9.295775586480762 -0.9026796100348002 -0.5768197951456389 1.4785462972385504
Ni 2.544905383648037 7.42722163417197 0.1688752761293439 0.6845186785862146 -0.2577968006726528 -0.40703108435285384
P 7.441126001096365 3.550802313537 2.5659936734833684 -0.9962556809207487 -0.7461696186287923 1.8290254533382888
P 4.736865124012041 5.042881220764403 10.828140227199468 -0.551356874987844 -0.6583029394227953 0.9614894810841569
P 2.0031521018488205 0.9382493226811025 2.2849528111049646 0.6921057469048532 0.15790095821626354 0.11155862350629821
P 2.4942089169934216 2.1446793532326476 10.347809901757895 1.507145963253114 0.6227232425459727 1.001982813212513
P 0.5974575363819794 5.234726400261078 8.74246303018663 0.326754815899605 0.35936977372114887 -0.6522973566586637
P 1.479153200923184 8.023373674217224 11.778394761242978 -0.31173751655516635 0.21438989444192758 -1.0333397302572398
P 7.736478390147746 1.3629972644850654 12.267184038195927 1.0416341090555479 -2.1670794963007967 0.020452097206764778
P 8.274113911224333 7.616324717402679 7.459276462541696 0.5137850873816571 -0.6953335098135315 -0.4999021587519778
Ni 1.3579285410843396 3.8964910959959496 11.062062273775318 1.2409776506873142 0.18010217690365113 2.154315511766909
Ni 0.6587715475007734 2.056433709764279 6.953907197459381 0.8453830903061763 -1.4569464595805874 -2.073996305890867
Ni 4.715242263894557 4.156639400663057 7.316837025598685 1.2387947841033826 0.5449430010417002 -1.5900637830942679
Ni 1.4457864133635816 1.4314850426027002 12.216280760240444 -0.6514933727001296 1.2136589082677034 -2.2363326741706646
Ni 6.450906106424947 9.490699853872048 4.804732468227074 -0.6261633785757732 0.3877822634255708 -0.19552699609915358
Ni 3.086252428963406 2.2210056489590544 7.303053606354709 0.327006784009411 0.6301802130446502 3.870512987968173
Ni 8.240525540128086 -0.027741335523059824 10.060768741860127 -1.6242018624285575 0.377443343393408 -0.3552441815885495
Ni 5.230534778359567 7.896110863004838 3.7288613039954908 0.21747470401483834 -1.1503658046360123 0.5619662750725741
Ni 6.0872690574978545 9.105486108064273 1.8779029310256845 2.158134114182051 0.7006765192929998 -1.6548057033573436
Ni 3.250916694631783 0.5114591192810731 4.506394241019419 -0.34970139739344935 -0.35239899883027054 -0.7851529418705252
Ni 7.401785690694742 2.2616385299911 0.7289091997016681 -0.21242839984018252 -0.2687425010508791 1.3675083221224127
Ni 1.1661295248244654 2.219251445960625 3.9131098612442297 0.7274039079855149 -0.5696937256238189 0.3307089154513466
Ni 8.475302529849486 3.1895749855709083 4.860675848376466 -1.3938572444295865 0.1569499071569039 1.0534529560673471
Ni 5.125264133159071 7.86542154317968 8.222917958347534 -0.15597211662466687 1.161070592648026 -0.3492856500122694
Ni 8.38904190556355 8.366283429820768 12.264441018665226 1.366983559967194 0.630657924012017 -0.200964365064641
Ni 3.2765372910562145 5.178758091963814 1.0901097529904153 -0.4969289350562668 0.48570401287472476 2.306248682435512
Ni 3.9963421771960332 0.30328046333954645 2.1630116978309726 0.008446845215772549 1.7095102939890754 -0.3593738874862069
Ni 3.0720710826182067 7.7946902317535285 9.698514743507586 0.17692146518282434 0.9605893378673909 -0.4380720128190585
Ni 3.2588290734194363 2.9030582400431966 5.369437188098901 -1.5354178136146137 0.3076345501303863 -1.3562494613791416
Ni 0.4668691255904652 2.135557497640814 1.4826773024205555 0.083045860778586 0.7711458289581559 0.20196349575311667
Ni 1.3235092317256794 0.5536994042185215 9.790537463010994 -0.3370204594916712 -1.3321116877906736 -0.7277592344424048
Ni 3.849856994179803 0.7295305568690067 9.302708381383502 0.775169091184936 0.6782693552423932 -1.7618453559473657
Ni 8.825099840383704 5.531574478184803 6.11959255590576 -1.0733576654110741 -0.46438236857881315 -0.4181151100811573
Ni 6.374653671877421 2.058501822772954 6.4147962993346415 -0.8481812218766036 3.021067297556849 -0.8854766158929525
P 8.583361434552748 1.012276689214831 5.01464224554863 0.4610095954518382 -0.35685266372624996 1.0576415402273978
P 8.550345487592832 1.582374198409725 8.59053704808106 0.4931864372946991 -0.5123018179679113 0.1313373487951222
P 1.226003242955075 7.23388076580295 4.098682380124415 -0.5444861160099397 -2.2785134213037725 -1.6323957110932596
P 1.0142986389867048 4.881660732561363 1.5531473299264158 1.3813241449595823 -0.818027838221675 0.4623684234725779
P 2.327578097437332 0.3578860328864513 6.963569162921784 2.260196882382772 0.13958647617779185 2.8798525417470144
P 1.3417252449672665 4.008833949074324 5.2378073346851615 -1.445772188131323 -0.11379034105029436 -0.19083678971233584
P 7.133558819587499 7.318451815621977 2.369962411673599 0.7494117797151738 -0.5489107274401966 0.7449306040153687
P 7.894172007059206 5.24026598867717 12.527645329608543 0.2723914106573761 0.020895098281454336 -1.304116231019012
Ni 8.361713269377491 7.994060018848731 4.904686955077591 -0.47360131607391986 -1.659389208962968 0.9336583178045017
Ni 1.2669684992920858 3.2108193071466267 8.983478519729287 -0.7990384416033658 -0.6972752069209346 -2.426445698343098
Ni 5.529866438423174 5.848789776185033 9.087704029248613 -0.9390427220448666 -0.5867637937322282 -0.3156394227127338
Ni 7.197337947551455 6.972162911084617 0.2143109803181421 0.5322078128632189 1.1875598971878063 0.05156938743685957
Ni 4.703341381447316 7.141969761332601 11.454855099801044 0.1276123345350512 0.8899621624681319 0.3607787382535335
Ni 3.142654671686597 7.6862435558611395 2.7682015763770824 -2.9232792454720813 -2.4441089199508164 0.6752567936683146
Ni 7.556875701050637 0.3142663904333957 6.936394711946638 0.7623529132568742 -1.1042343003852726 1.0387202778428626
Ni 8.48748962436489 0.04557050084025649 0.9721774552002026 -3.8947890869067177 -0.5811415624494444 1.654266543024422
Ni 6.221373260404116 6.861620424241473 6.036906812677677 -0.055080743024227725 0.8554250479232106 1.9534475630708168
Ni 4.148976303354127 2.840100817694295 11.672453825844137 -0.5881298208418194 1.9588448228269877 -0.6350030883545902
Ni 1.1790459984813233 0.04029404287392751 0.3311649048966887 2.228910927785297 -1.4666112363638613 0.29669502039974716
Ni -0.06983389810274566 5.039917540961793 3.626757456839529 0.9668314621223606 1.2321438544457683 -0.8182908620750745
Ni 1.4472544042938462 8.740916561753805 5.464540842026393 -3.1015885921413684 0.06104775924094003 -0.9900708922662756
Ni 7.72069979580924 5.7842443384901845 8.49486558634092 0.21189412460326731 0.22348620031624095 -1.238307560054319
Ni 2.0417907310510723 3.534248176820241 13.484238076064804 1.8709082096150038 -1.3661217261875311 0.9306365002590424
Ni 2.941752265129609 5.4403189916770245 4.857148977084886 -1.1091487069677541 0.9712481031328177 1.0894466005531367
Ni 5.587496623245266 1.4680186282068364 12.884237868599838 -0.3369543821404261 -1.9329880096648837 2.2012191182969834
Ni 6.648706343468922 5.749298768231995 4.182800106958058 0.7145157391689372 -0.5273142322163435 -2.1721098596358526
Ni 8.054866234362716 5.0190886885172805 1.3112861298855691 0.2928545636077343 0.72921730704517 -0.9946127460006872
Ni 6.553619308306678 3.603474566726688 9.469592175477262 0.038873537136745955 1.6754403488885596 0.3323150835962019
Ni 6.7819334448759685 3.2274750029843475 12.158810300217683 -0.04819095788292991 2.703296173213093 -1.5296585425333333
Ni 5.474119713662555 4.638657454042065 1.6743313661168757 1.1602033595517247 -0.37773490649189784 0.9854750453654771
Ni 5.993539221497554 1.565173776377755 10.500424639356533 0.4009378269709224 -0.9165867070341958 -0.03920700921676473
Ni 3.9324984207005564 0.4132191350453364 11.57336351478653 -0.4434412475507718 -1.7059097211220104 -0.4042982588027231
P 4.294039658676893 5.845170578419852 3.389998217729904 1.7861584787714335 -0.41653748118139233 -1.9268387022340363
P 6.66456803163367 4.43731188041179 6.1011337240386 1.8434706822293414 1.090051066906355 0.8959975700289343
P 5.556050226336575 2.1772244351771963 8.414828689640466 -2.289348307135748 -1.2243395279100011 -1.2721090819847962
P 3.7449094916369132 6.282567247107227 7.344133347518985 0.816110309483988 -0.13391719370715646 0.7260656487900657
P 4.403871231673306 3.318342718303 0.2536632931613337 -0.3117881672874437 -0.04573863968769542 0.7918059284106685
P 5.771457121896368 8.662097451240156 10.215073053925671 -0.27625937825321456 -0.9822724792677794 -0.27038774996378595
P 4.596898190032081 8.519249931283827 13.467185376390594 -0.36596671021237615 1.1493538184317302 -0.16470589695323892
P 4.838470408210555 1.7704616904308166 4.43283035338317 1.9425250026210417 0.33142959566745506 -0.7648445693304763
