# total energy = -340887.95917438687 ev
CRYSTAL
PRIMVEC
9.08797945219023 0.00000000000000 0.00000000000000

0.00000000000000 9.08797945219023 0.00000000000000

0.00000000000000 0.00000000000000 13.30117655532597

PRIMCOORD
 96 1
Ni 6.606306621972851 2.0405694337880425 11.508084568219967 0.04747721964535694 1.7644555398767032 -0.8699507523432115
Ni 4.629189459709107 0.6559648936208637 5.681970064212613 1.0170361080012098 -1.5954551293131685 1.7553630906571318
Ni 2.920949253234227 1.6450333103918817 4.646007674215388 -1.0067049012785307 1.042567419503095 -0.7381104957697416
Ni 3.4715535675526286 4.20037315608923 4.737612688038164 0.7774445174826738 0.8511675581984374 -0.40370279131056924
Ni 4.072268999772058 3.1262830577057215 2.5619658914103773 -0.34000885269603376 -1.2265290793621522 0.0816626072778142
Ni 5.418480462557176 4.998179595548339 2.4964842741067366 0.4065106930730095 0.27566648186422205 -0.41457264414553757
Ni 5.317249461051999 3.2454446423844074 0.3302644384145211 1.3574956750814169 -2.5956322567755103 -0.3268463471721467
Ni 6.197683808374029 7.957180218142668 12.17074912018625 -0.5284496313723673 0.9749715747309919 0.5317550415965164
Ni 2.3002584424971224 6.977632368494087 0.1701433309973633 -0.515578431836654 0.24751778734414792 -0.46896150330906333
Ni 0.7298519829859228 0.6958393116300311 0.35621243693302207 0.07842841661123268 -2.087453202726721 0.4412221284122659
Ni 8.259609993534472 -0.12106915153531041 7.034725780896993 -0.3802656433335515 1.3532937211849274 0.2649521807705114
Ni 8.928694294083504 2.858242196013137 1.243400970476314 -0.26445570075006714 -0.6919987890133437 1.790240362150291
Ni 6.881508811359671 0.7941903324926921 4.443403898727838 0.5645605181623116 -0.597450584022113 1.0338796619211097
Ni 0.9550375694565115 7.515131816651211 2.2565843403395296 1.0987912749928304 1.0946546271166373 0.1950315445199738
Ni 7.84009069274607 3.985587853138035 3.51097813058608 1.5186434223697522 1.077250572707577 -0.1156333077963041
Ni 8.068962363623742 4.077858107046112 12.482927570981104 -1.5828852630679577 0.22168719943428916 -0.5835473436774595
Ni 8.68036525950868 7.180821409849034 9.27109300246927 -0.09801585182485699 1.4689761370516121 0.5684709089603113
Ni 7.174650671899307 0.9221754362809373 0.2317798242560413 -0.7181613063413245 -0.8593182123300298 0.8385760946866719
Ni 2.3348382037617963 6.494079165505714 9.35531585070064 -2.865203424375272 1.9408031348339285 -0.8800251058600779
Ni 0.4930973988570083 5.406720617333395 1.1404159889648073 -0.40131140826025724 -0.4976755834143042 -0.7642868970547934
Ni 6.262690124359891 2.250756219209691 6.782708844319224 0.8058258968388444 -0.19641891178580365 -0.261868142528549
Ni 3.6253494413718332 4.584803768771743 0.18429331477899194 -1.5599289113821007 1.0592549074611048 0.5690843741745941
Ni 6.291044619798994 5.975855321459595 4.724165205056996 0.8949405895193298 6.762001314181902e-05 0.456796071591123
Ni 5.360108371465719 3.321074806180627 9.228315883869318 0.9099182938750846 -1.4897110556061182 -0.14572395653409742
P 0.6379452482501423 6.2750316002593465 12.14389414133287 -1.566691684027231 -1.2302625782626553 0.12322706098316195
P 4.285727457744373 6.547534659791867 12.35396005662973 -0.007571127479038573 -0.5118009670720927 0.4706630593812023
P 2.7591468696451993 8.798627134235932 1.304917502408134 -0.4388240604937345 -3.780518978006528 2.008881832779721
P 6.846629146777853 7.9842714844580405 5.736796934576253 -0.9249530767210199 -0.2552041002448121 -0.6893767780094644
P 4.892077437134392 1.2078106259126569 12.496721305973884 1.1386338609110649 0.9927270989422 0.9240750449914408
P 4.241741637896535 6.219231407311884 8.167255221418834 0.44076627182177 0.7426461788565663 -2.341709594346283
P 5.015355876439333 1.4551672467015895 3.7047365758137336 -1.0678405922475869 0.17511269410885968 -0.14356834364367532
P 0.4810312887305675 5.6823408537683555 3.304118454388872 0.7847153401124743 -0.8291702279917398 1.4667855571581967
Ni 0.5611091095998305 0.325615028200853 5.002838093741315 -0.11230038676832917 -0.022211245989716587 -0.7416015396421358
Ni 2.1443723334372153 6.700230888114875 4.696273287764642 0.6592696742114388 -0.5687205630772721 -0.364166937999476
Ni 6.247585902750985 5.854140014595528 9.051463806547229 -0.49241124969157124 -0.09899878456341661 -0.3895416693188388
Ni 8.836287720485815 2.619600947380005 10.190590211248317 -1.040642691676556 -0.02801268316284208 0.6435746320736851
Ni 2.704573553904236 5.105326871582636 6.944531221462728 -1.129656597113119 0.7746240173147434 -0.3562003748542317
Ni 0.8290427331365879 0.37833530496103657 8.964793565488375 -0.23691018703163072 -0.3621907881097117 0.26717207123996567
Ni 1.6752962814855383 1.3952501991278723 11.261640380553498 0.43974322987389425 0.9930068349661479 0.44235521357544455
Ni 4.097615374060409 7.003605813354649 1.59173867333947 0.9578757955909696 0.07640572975424906 0.0707924973325297
Ni 6.091345362498089 7.977600907646406 7.904130956531556 -1.5844119841251294 1.4589195241465582 -0.44926608176266497
Ni 5.784671500769728 3.4413269483762017 4.518157072520893 -0.35575223157321956 -0.5917190808549745 0.6116492441199983
Ni 0.8605380342243285 7.459113512200371 6.788348844277399 1.2427110884386534 -0.41666500789819205 -0.010143259081588984
Ni 5.233885426865179 4.464079051652183 7.02054671558158 -0.2708222663980433 1.425513694992603 -0.06071043050617931
Ni 1.102053810712392 8.251857947185256 11.54769543482922 -0.0620890560212608 -0.6833084603281974 -0.28457252610460027
Ni 4.969943243840233 0.6846592794860622 10.231770571883958 -0.40802944371038113 -0.07803889448229785 0.05355376485674002
Ni 8.739091781793126 7.329273551835485 4.5315909235330984 -1.0708169012670914 -0.6062399001789688 0.28416526336385256
Ni 7.6951283348136625 6.436670400220841 7.207680932692067 -0.009232060121229261 -0.7113795075328007 -1.5432869319500453
Ni 2.6697484171982624 5.2015413085101265 2.529019240027244 -0.3362668691550983 0.34145715510678615 0.13505644951792223
Ni 2.576560277380138 5.500663059434035 11.517914126638855 -0.40038401134998136 -0.5883573634715932 -0.5610429919273563
Ni 1.3350514241956257 3.3136499270864777 3.606082016442205 -0.8147440252640807 0.7187598591572718 -0.740422174622054
Ni 1.6041192275499472 1.0918298339915622 2.534086697289053 -0.46542675068292744 0.502277858073006 0.39822171359134
Ni 1.1370334430665916 3.5144942697801143 8.519349894927672 0.24338653878459376 0.19197090331677907 -2.0235144950912316
Ni 3.6513501501703174 2.733718703543082 6.922118446894808 0.19249000904504268 0.5538914684842396 -0.8992793261039995
Ni 4.54468942810886 7.097502815558751 6.129262229764442 -0.5403345557354113 -0.1454287938911818 -0.7434398784024552
Ni 8.55785021046556 7.585836295662817 0.27634818357748314 -0.1764365551266058 0.007884802064715453 -0.8023896174637858
P 0.5993422385460807 5.708577850028831 8.052558560973877 0.4894675936822151 -0.5237146877905432 -0.3491480959931406
P 8.731048920106073 1.8986061090270785 7.852043203131168 -0.3326264441890336 0.4662849849181648 -0.06426678039886996
P 1.9888133916323745 3.506524111927521 10.662608950899731 -0.5481355398370689 -0.020483464665332466 -0.7841615244915334
P 4.322797325339275 6.346572173367234 3.8532841415829115 -1.558566483816935 -0.10592122271486273 0.050565371652377435
P 7.016174488736789 4.252483629437887 10.37195174390274 0.8206616763000963 -1.7283899045023976 0.20741192046219759
P 6.638496244679677 7.899353405809654 9.961783065023727 0.3897355304971998 0.6621819627622274 0.3334484258696967
P 2.4585801300114145 8.63298962337918 5.6688951883830505 1.0824020350015295 0.386906802799153 -0.3281761217271638
P 7.234913062686705 4.323587979539019 1.2850293684918104 0.0469390877536998 0.17546827767606554 0.06842708242414666
Ni 2.9659074868679567 1.3965588681481385 0.4040461072196143 2.146493187509013 3.2344071534677066 -2.872737013748156
Ni 1.6875377896126118 1.362497121703987 6.834796597719612 -0.927462473406435 0.6622410981349369 0.5746017044483975
Ni 6.9488780019654595 1.1833821375343538 8.9338944358432 0.060337877658108996 0.09179969571181609 -0.33533818669324184
Ni 2.969451798797844 2.1095835486484713 9.05323323611838 -0.0395844471608415 -1.4463995373026766 1.4436913943428942
Ni 6.581550966339481 2.4030980163397104 2.2616790615392603 0.7478315797122476 -0.30521694182782916 0.6128440357590478
Ni 4.344317660339208 7.41902643547541 9.841912617959062 1.5475737322508574 0.8811383935289148 1.4542611994389405
Ni 7.33587142481266 6.173618839168021 11.18126174756916 1.7018545772160303 0.1711097435970537 0.970405038406232
Ni 7.680169520873675 4.103558912527451 8.124877065110477 1.1009134635421556 -1.21731913072811 0.6294343360175612
Ni 3.7968668748404757 8.571791170723118 11.96194734281105 -2.121738606272152 0.19679660684019654 0.9580670856661694
Ni 0.4155124107117664 5.080398544342426 10.143090978600236 -0.49156201431739854 -0.11043402298355173 1.704765580215238
Ni 8.5240247514834 2.5377546057375215 5.376853882137541 0.22285268049730006 0.8127619618370453 2.051494011023293
Ni 3.8823665841645365 2.912133913306045 11.457194610492294 0.3161109630325137 -0.08912780530660779 0.36757956322545077
Ni 1.1473210356425734 3.702797201029533 12.871841283855959 2.9908473223300427 -0.45094809745077824 -2.0425969656439786
Ni 3.1224388424586897 8.490962682763064 7.74036647821006 0.686840641851172 0.2547518431987419 0.6066448489268713
Ni 5.853403888271628 7.791997106251286 3.116239931773109 0.21443617429883072 0.05087210425951884 1.2458501482882673
Ni 3.4721442862076097 8.667842024023075 3.4205172933581074 0.15410163907483138 -0.6001204175447923 0.6029113500263682
Ni 3.4373191495016364 4.591783336879829 9.16701110185536 -0.18034231793891523 -2.399841465492009 0.8034327140163195
Ni 5.023789521236605 4.991999769619304 10.990043392557926 -0.2135619992239935 0.19624921897715877 0.22618431597369432
Ni 8.034146314897075 8.857853495382287 2.4946357791156104 0.20714786816753356 0.6828911702851206 -0.5096759503092899
Ni 5.21633653882258 0.5492683813602133 1.7563537865241392 -0.9668648864634575 -0.1279568623586635 -1.4232966327366263
Ni 5.949736468930114 5.430612914932561 -0.14620559350166018 0.8594010018518231 1.3818167683252847 1.03180889543501
Ni 8.085257110521917 0.2570453155285562 10.791722781717954 0.69739373477667 -0.5874883306030786 0.8620332972683475
Ni 0.2269768271920781 5.016092002763233 5.94316495109293 0.0628902117663175 -0.3068526776590393 -0.563187806184501
Ni 7.646344061891516 6.328932405531562 2.469921928187055 -0.32294624078679224 -0.5149600815263647 -0.8317171627833095
P 8.741300160764824 1.6315649250583082 3.4894305316482237 -0.3614189429406937 0.8024806345156954 -1.8719034836487376
P 2.2783655003455854 3.1967421612760276 1.3535545500655008 -1.151880698618642 0.9396176207117302 1.2314648261008725
P 4.791618913870345 1.314021840078292 8.143778244474017 0.8460186670076462 -0.24804717748505667 -0.935414638373976
P 8.73810119204862 1.8732688227180352 12.43832922132795 -0.6490073730534822 1.2407452229615341 -2.122824640247479
P 6.529440492990825 7.851932329783617 1.036510395149461 0.1765697382703604 0.07832120160940705 0.5623856219981799
P 1.7799352752309923 3.4151263040329547 5.750510695351126 -0.16835274967720681 -1.0860422028572778 0.6077231695927146
P 7.14217932183395 4.35740435054187 6.055945865499887 0.2966883355315278 -0.20713706953425617 -1.324626435157222
P 2.6285162550805685 8.892824039757178 10.016104643737874 0.3653959253105707 -0.2741032511421602 -0.15810973179295995
