# total energy = -381167.2826076214 ev
CRYSTAL
PRIMVEC
9.19808235477491 0.00000000000000 0.00000000000000

0.00000000000000 9.19808235477491 0.00000000000000

0.00000000000000 0.00000000000000 13.46232328262415

PRIMCOORD
 96 1
Ni 4.414527745411225 3.7077562793328545 7.451369443922068 -1.0008204174732955 1.2474565735434389 0.1902174109607821
Ni 0.1187564439742558 7.53281570559497 3.135819505549319 1.7893332769549892 1.4526989971581432 -1.3218815254222331
Ni 2.3234080612319024 2.733550562727686 8.564056892558403 0.7230775126960193 1.1478615501569198 -0.2411501932549073
Ni 4.3579871318948635 7.655711286722693 2.7608394340763676 -0.8707740195754551 -0.20576744288023915 1.3898072427299293
Ni 8.669956256725733 2.9476451324701367 2.3677667342014823 -0.060779850291534036 -0.3753224403956633 3.078105164307447
Ni 3.8176181774684377 3.8069024112822394 2.6516600336669782 -0.20056353008179653 -0.779236062165458 0.9024284132559426
Ni 7.856983729371959 8.360716720948917 8.433755015350744 -0.7815438843630281 0.22708394496982826 0.32620125738898015
Ni 5.282155279355894 8.850257071130764 8.901934658395932 -0.08369017923080425 -0.5568981165210474 -3.018687741581078
Ni 5.2288523909018 3.5502667096847094 5.0752021009155595 -0.4969687871552667 1.6942268854674434 0.15704118131912953
Ni 0.9723844962576428 1.8925422797210927 10.203903009443811 -0.12355873329096784 -1.7705783649449893 1.2271088631250222
Ni 4.223152439600028 7.109510747951161 0.6544306970603933 0.23971551769090974 -0.40056887366727784 -0.9954079882084728
Ni 7.875103952021582 2.842593831515139 11.422028078502802 -0.08042282133344214 -1.7403239369358223 0.5751892015207514
Ni 1.9721884766363649 7.130749120589729 5.965720902935415 1.7469890076608237 1.6782292244876065 0.18089767622175298
Ni 2.0793093461680963 4.771192594884212 6.4661425847896 2.5402334682902317 -0.9914610877455826 -1.201845717682859
Ni 6.1416241140669525 1.451972521106043 12.555716589247575 0.2584413762351872 0.05941408029225897 1.733205580723486
Ni 8.099564760812827 0.46401659087705677 4.380922550766353 1.979296148702804 0.5945724911433695 -0.629445905981787
Ni 1.6483331876665275 1.0445342558838577 5.496653644922873 -1.3798730143353524 -1.222405801222398 0.3556272759595811
Ni 7.275572930548265 4.855980519952348 4.699104462411172 -0.1922699226144366 0.8734708496813279 -0.35589929867404513
Ni 6.074110188052621 8.015282730285671 12.829769779986895 -0.14659196096134752 1.5050330306751694 0.5633505570146105
Ni 6.4051767737520535 7.471997983686692 10.621625650779977 2.331472489999307 -0.8778651220942816 -1.197406965185215
Ni -0.10941303170649583 4.428564019402761 0.813182243636218 0.8860121766814483 -0.41042416919480285 -1.5839489284457817
Ni 0.6448794081267035 5.730368644581014 4.928287566790394 -0.4953415359644888 0.2014906698817562 -3.4929485456158678
Ni 7.9135795313837 7.189221331444375 4.73486108856759 -1.0391388534375199 0.435371840279076 1.4163417986853477
Ni 4.615045945290303 2.300854362786788 0.9574468101749078 -0.1999050705621912 0.49538653026981133 -1.6049419857576812
P 0.4999341834783325 3.4119183498507084 4.582844378044585 -0.4291312586860028 0.11712197652668861 0.12977643206590553
Ni 8.595396599467945 1.9489081296687527 13.701549328400619 -0.44526133147864605 0.0051391209987782455 -1.8260694560337583
P 1.0539530924286367 4.5345167324489575 8.182063283130965 -1.2271991088459833 -0.08831430826637694 2.4030897972259777
Ni 6.809239342673522 7.4294016633362325 1.584447905223402 -0.5813724475133278 -1.288198274237175 0.15444873800160494
P 4.754948781077495 5.511776212465128 6.337617777133162 -0.1602568600429498 0.4868571526425615 -0.7784097096094207
P 3.0172746174740186 1.1794885232520154 1.5303972126569145 -1.5519016702022501 -2.211824404616655 0.5213667563836569
P 7.239406069909524 6.0712403862928825 8.879816029256059 1.8881279159273996 0.29044106907023526 -0.15072423796216622
Ni 3.95027292419578 0.2362315950474494 12.859642392727595 -1.0434248824073835 -0.46983696393548113 0.30754610418163814
Ni 5.4363519354463925 0.16010826375390586 10.895758864837598 -1.8532138776590341 2.313854776917544 2.1677197009879574
Ni 1.694443175556152 2.8060682456564314 0.9005631081789361 0.7777592205096153 -0.28153965281554744 -0.1301811237034919
Ni 0.5284546780822342 0.7154250221538859 1.893920152489069 1.0536424463703338 0.23664742028854727 0.39112624019713926
Ni 6.3702884465896075 8.72851125032345 3.4894480679681745 -1.1359218612965403 0.9430155906496854 -0.6525405830177213
Ni 2.6238634281608055 6.859681627450443 12.282418561086699 0.5880493453128711 2.039262501954107 1.8641572640444153
Ni 3.384682827380894 5.432599117760582 4.246258942807195 -0.08477415632360238 0.6566530625241981 0.6255666255320388
Ni 6.329274196440029 2.8876736341576787 3.21583914461666 0.17684278942608897 -0.7431603994888233 -2.1441969352756685
Ni 0.8777205899413352 5.516292471003689 12.376775251445391 -1.2569822536456867 -1.1168463327223281 -0.19466310543696153
Ni 3.238571285863502 2.5144154437405692 5.418262066469229 1.3477115991114597 0.7408312371350144 1.7584833814536682
Ni 4.49003480517303 4.639788787385474 0.7408439233174562 2.0963451058997125 1.0235741662300435 -1.0435480382488094
Ni 2.3879602046608643 5.502587327984432 0.8447960534061443 -1.1456046358019432 0.3354317748483126 0.6752529370135725
Ni 1.955622729939933 7.681033608019349 8.577721564014384 -0.3772883058727825 3.085710230348215 -0.636252130270343
Ni 5.789098401747431 3.663587086864078 12.03932887568008 -1.3854602786151429 0.557457331458627 0.1917220205307666
Ni 1.3727586340712439 0.742896935345576 12.47307181741668 -0.1792449711096784 1.1421416169540073 0.38630516465941206
Ni 0.15760270606367371 6.704445588030296 7.388904345426709 -0.8396868112523475 -0.031764436895790456 0.32413640444015146
Ni 8.235825155904967 5.71303945703183 2.6632652544370443 -1.3189031595201997 -2.5040464768467134 0.9127639908539957
Ni 6.817655588218906 4.059693314368326 7.072014764382029 -1.4332617143691382 1.001958901953113 -0.23673380935476648
Ni 2.2575129977487047 5.377502603206652 10.575745614954434 -1.8362448539048635 -0.6264631692043792 1.0499912227709916
Ni 6.886254887975703 6.453945007502461 6.746495542276498 -0.8919136297675477 0.0928553906698401 0.3808811654303634
Ni 8.885660490916754 4.542813402921019 6.453864984184161 -0.0010204708447143717 -1.775110191377072 0.601273300202313
Ni 3.9126251722643546 8.656646631256695 5.306053737471758 0.003465847061413386 0.8625796566901208 -0.7490968195779163
Ni 4.453886340699417 1.4339074869517996 3.272529686878803 -0.578781289747384 -0.6649937211794096 0.6830742328302043
Ni 5.216370592863456 0.03737088964627092 1.3560871094253344 0.9406720301181735 0.4832300974129356 -0.22013219624234348
Ni 6.140649117315246 8.85594148615486 6.582511206530434 -0.3456007449615145 -1.0649272752555337 -0.821918688635649
P 2.9454559888200804 0.4282847995435588 8.1126251182444 0.5551950177870115 0.15226021499071843 0.4395655666454495
Ni 7.787400234780892 0.3391287050661315 11.302387698794217 0.7913634415566113 -0.21642569392503375 -0.6373628468360184
P 0.6833485488310277 7.968905998001711 12.215523666028872 -0.7740406340074476 -0.8104934775178428 -0.6305247408682624
Ni 0.8362289593067236 1.132688679170146 7.869670644651463 0.598628406380298 -2.016980807737771 -0.08657649963966381
P 5.277878170963978 1.2599901418456707 5.3004263505595555 -0.11330954475913389 -0.20659919475291516 -0.6980568222819655
P 7.130620347433843 1.3987156230647653 9.324557118313548 0.20416667405202257 -1.2238651593767438 0.12284088128833683
P 2.349981321757162 6.718886577654614 2.636219212468033 -0.37086029085925165 -0.45863749567523593 0.3629063261194976
Ni 4.580792285824721 1.9709651316554513 8.99866169463118 -1.8313636145531622 -0.9833009205322936 2.226326711997888
Ni 6.6232081228315804 3.2755751720154986 0.7810515016262367 1.244162476173199 0.28654790466341623 0.5007621927594279
Ni 1.378617812664041 4.356782183079076 2.7227014243443204 -0.011696205391005663 1.8889383276438372 1.200703633658616
Ni 2.8624616898517816 5.866021966223979 8.60464619129356 1.2109114274295534 -2.5193813074315705 -2.9063433889486916
Ni 6.397726326875813 3.41928601398388 9.28721290310671 -0.30127646912284245 0.6012802421808484 0.8990409848409484
Ni 8.546205253919627 2.8136934561013747 8.217577079907715 -0.09314181156200732 -0.1887192291487008 0.19420442063298812
Ni 2.0090819857976028 8.788611521791793 3.2996557521661147 1.8612547456856396 1.1040594653703049 1.1997302140017532
Ni 0.13657864874882927 3.915219031547194 10.183237677348934 1.366809239172859 2.0051329072602497 -0.6078586667293144
Ni 4.061174205661011 4.400390292511494 9.887443898663092 1.6033183341113288 -3.307422369483169 0.8543490412502125
Ni 7.907048892763785 6.380562704812768 12.219548746958557 0.7010796682686893 3.5728774580320266 1.9768965381223762
Ni 9.189399573320742 6.2517067661840535 10.00836281184797 0.1643809095136524 1.151724375546436 -0.6309872823269779
Ni 8.22418038337988 8.681352681021615 0.14076653573988177 0.3225209803239155 1.7546984604899392 -0.18777871961230239
Ni 8.072743152058358 0.9185352416992907 6.598019173732091 0.7995192378945262 -0.3903255986727149 1.135524882968438
Ni 0.5188288846797822 8.684618000331572 9.909751088495511 -1.2592196276166379 0.5465653671364716 1.658769315990782
Ni 5.181592642691768 6.21473967236231 9.184239449002753 -0.40338628851141495 0.05054737393024843 -1.3063757164771501
Ni 5.452816503234629 6.893668542521691 4.561492868990488 0.4950425166668313 -1.6259949497732384 1.6863662517724438
Ni 5.306566990478788 6.009512054210842 12.053222579391885 -1.1235684819375102 -1.1149254615505315 0.39723003910203203
Ni 1.7854306082719247 8.238520194096003 0.9008436496971156 1.102589822803314 -0.2634701969083463 -0.665968426387853
Ni 5.836496121195913 1.9054655857224736 7.241087479402089 1.887818355106781 -0.26024320533061635 -0.6848894316620721
Ni 3.1444197127459677 4.175184439032625 12.474929830094458 -0.7799102054143471 -0.24669734832538154 -1.0272246184984373
Ni 2.1480466171633417 2.328963703100112 3.556893928171538 -1.3433749194093187 -1.1388436629290257 -1.881358201303734
Ni 7.303737459356968 5.016956162891969 10.857336634354345 -1.6612663713810227 -1.3938482455685222 -2.881995042011314
Ni 4.147286654618256 7.433724762140964 7.3296962879670025 0.14163667383860123 -0.037105389492729644 -0.7871020951770961
Ni 2.6904115555059946 0.0668332679046505 10.517346068952037 1.7880274136593721 -0.5615584981111941 -0.32374096877394565
Ni 7.374783449075592 2.6183353805402856 5.170406854486586 1.8175477917159923 -0.6408942570280446 0.8884709226345859
P 7.220402831333828 5.252528255419633 0.38443110130670194 -1.7909628421386121 1.2716074597580294 0.8320712036886186
Ni 5.812443135292987 5.147670114198463 2.6956958539385876 0.016528850892958632 0.9709681099985535 -0.016495940772494173
P 0.9213719303618002 3.2703782553672562 12.333722706199795 -0.25258748855757146 -0.4541025839193598 -0.7017088172122561
Ni 3.952765604570424 2.213104655133283 11.574501933729202 -0.06310489888028487 -0.5560439960508682 -0.7293360920112213
P 3.8340827452566737 6.955387676521168 10.673172625272745 0.7707228824881243 0.9586748944534973 -1.4808091251307982
P 7.715829954356164 1.022182915255135 2.1369960407718405 -2.335324773865862 -0.714595443366937 0.07356080410628621
P 0.3303969652888284 8.544981908938714 5.64452385982636 -0.5603914743862864 -0.7062684115584804 0.2868415246444351
Ni 9.040455022373866 6.74406172963026 0.8747376517660698 1.513066442502607 -0.10832109040560699 -0.4598384579618726
