# total energy = -340864.89162114623 ev
CRYSTAL
PRIMVEC
9.27804931511349 0.00000000000000 0.00000000000000

0.00000000000000 9.27804931511349 0.00000000000000

0.00000000000000 0.00000000000000 13.57936301226940

PRIMCOORD
 96 1
Ni 1.7786948077419955 5.10841037446911 5.314772744266186 -1.0000323743543615 -0.8747389177604742 1.2657512580875685
Ni 1.7728589148095992 2.862686405299391 1.4755874357605363 0.6328204788809747 1.052001568332801 -1.2773068241356518
Ni 3.9347464316150353 9.18554702680511 9.899355595855198 -1.2114876116479973 0.8147867055765581 0.7008161301946576
Ni 1.158679893433057 9.267917547399412 0.23662829401769667 -0.7099265771363581 0.41287211651466316 -0.22661703263573876
Ni 1.691286306444529 2.565250704779894 3.7076680336153283 -0.27118941992947493 -0.7668004075052665 0.08248973116479988
Ni 3.1405732562027375 8.396523168686105 1.4570795832620553 0.05890474475600822 0.4182045844711701 1.024930423147622
Ni 8.770734726146111 1.980297538311219 1.5129584900409807 0.858386958765012 0.30367170882789635 1.4389767624760443
Ni 4.2754456754473535 9.211961632812317 6.185182721961804 -0.11326480756412752 0.5546070064940255 -1.2256520760738374
Ni 6.484892472334608 2.262953306491595 11.469985511776118 1.139477696968599 0.40460319163765157 1.202267121490994
Ni 1.4090666065754767 6.770953284562981 1.0474834018504215 0.007475996662070995 -0.8745057187037455 -0.7093434509393785
Ni 3.9659299548992712 4.338944644015432 6.921550867586011 -1.7738981733468415 0.8458458888752077 -1.5270529865896862
Ni 4.280251704921092 2.6152037215494044 11.307860880455458 -1.6474713744794596 -0.028474710400925154 0.0680406456190054
Ni 6.012593378974292 5.093352100654675 5.376137761523531 -0.17797201793452577 -0.7427490229830176 0.17708061646850792
Ni 2.5927415644916434 5.73286947433388 12.016120248292722 1.1832646122465622 -0.8656860635295864 1.8302367000375708
Ni 7.160844745132287 2.864792522462593 8.206552328370213 1.5724969778550981 1.048008388013008 -1.0687690175991271
Ni 1.6892822478222753 3.6151269155130894 11.264244771273908 -0.22895802206408952 -0.673480418494182 -1.4321142310282562
Ni 5.664583032390418 7.425649546695922 5.851985708694088 -0.04357222816399593 0.17827849343135102 -0.9682653663554097
Ni 9.223837535759007 3.5493455468474444 4.3912672745447745 -2.1730845648442965 1.5727486888545883 0.7916331502782301
Ni 2.594281720655042 6.590495228068369 3.055967653561673 -0.33356618239448355 -1.006027929816164 -2.026686722171626
Ni 0.9684149389582508 7.064111804411835 12.157901828987669 -1.9585810276426396 2.2683801895245126 -0.2647184674931506
Ni 6.924783339919312 0.44332281797531303 7.507609049711677 -1.0520424488730657 -0.46039895845103285 -1.5719637310594474
Ni 3.9405452123507234 7.797365308927288 13.070761665083275 -0.9866099303008685 -0.09778033877528322 -2.101425348636097
Ni 3.228241542877163 1.8207243705142622 5.257386154495983 1.785775384400402 1.6906504809700946 2.0678948209788195
Ni 5.86801353864753 6.791977343998291 11.68240737549076 1.237509746743372 -1.3573172405220237 2.4431828085921214
P 0.47487839103155055 5.624186406273321 3.6729328731060984 1.2254461307106186 0.3599888953623865 -1.7296078360698988
P 5.31770460780615 1.7416661134761862 0.6201744967547846 0.6715546622263789 -2.5029768979316183 -2.4894228133962675
P 1.9649887571690028 0.19423503171768766 5.692088736980851 0.9479742202065415 -0.7076681201194844 0.33212559329321506
P 3.805076416315874 2.329968655697794 9.237062467056045 -1.8600157310722158 -0.5695304605730773 -1.3009224066720628
P 0.6827131872330326 2.3320283826151105 13.205699756705194 0.13208476848410802 0.7414200197589489 -0.7479254249776345
P 0.2375431096665588 2.326758450682517 9.917090586857224 0.007890972712302538 1.2268298984320227 -0.08906635594105305
P 8.80897884485412 7.714809227349446 0.4930336776613014 -1.312281540438624 0.2590957219897344 -0.28115218756914157
P 7.666015966727072 7.788430547569741 6.2942786632107435 1.616454614382971 2.0946839161472055 1.6376088798630828
Ni 0.5101256998553566 8.124564991206926 2.876285241978268 -0.3887369140293563 0.6442143225402132 -0.45176596536638325
Ni 7.35835585601441 2.4650477736672047 5.480590039159332 -0.2669884944742498 -0.5604002161370348 0.33233719508338894
Ni 0.5831727088315889 5.010183667831144 13.068561839623385 -0.3091910959842288 -1.2404780853430766 1.2481361161089666
Ni 1.6641758467490404 7.535650097739629 4.875670510861537 -1.9226778859881275 0.4400612753349454 1.7283528806168749
Ni 5.72624494722143 1.47261196538944 9.444976126675533 0.7668438591486922 -1.040404350413505 -0.6690540072917123
Ni 9.24744089286555 0.5715129844307263 11.123114509631193 0.45356316647612216 -0.6028501577711295 -0.7861186482179042
Ni 2.3909254387913466 5.54373644185868 9.27091621289345 -1.8621944838910895 -0.09872573340768803 -0.32629921641942516
Ni 4.9381396159709565 4.811985981309917 12.699800208250007 -2.0199278061812374 0.5898899980660357 0.9989298853188022
Ni 4.982201071513008 6.442937133955759 0.9916100619010029 -2.0510342977780547 -0.9306421566859973 1.2729408338574721
Ni 6.964159380626928 5.351291145827255 0.9436694539980054 -0.23794865559847403 -1.0788904223038451 -2.0829892534180967
Ni 5.362879429249454 0.060146809400391396 12.00952077191305 0.2845486148452003 0.8671783318043969 -0.3304644035407083
Ni 8.228822429810007 6.45256774900159 4.8501957712359705 -0.5849267405234895 -0.737599103350962 -1.0969069134859237
Ni 9.036467332627456 4.378701084739308 1.905130495098019 -0.21425568285690844 0.39534722025702235 0.5040948566770866
Ni 7.285152048007085 3.1453421734797673 0.1443618061711 -1.76454141472229 1.7496799242294254 0.28831733785901315
Ni 6.224726695359524 8.059275359147668 0.22493702424963197 2.168994196825006 0.8554042219876044 -0.03261135827711803
Ni 2.5475389089008083 0.7745417511584701 7.857752419801367 0.9419146442760229 0.7123804379934893 0.39146948246917096
Ni 7.199302258971371 8.611922358381676 4.073808616096175 -0.8456168035835371 0.4756828811932969 1.1979466397387692
Ni 1.5281967580094509 3.101271439888538 8.28320757067142 1.4739751329281001 -0.020166447645545912 0.7070993921002081
Ni 3.9671732134890023 7.008610514234418 10.642513417867205 -1.0897816152950524 -0.11371655038956544 -0.5480949164071205
Ni 4.294855354325849 6.276062141456423 8.143380874938087 0.28976589738008157 1.4664397437830035 0.29424938707273196
Ni 3.2311455722695954 9.08906459341244 3.8308879491265686 0.1213594116468039 -0.6346279644033587 -0.15273329797239502
Ni 0.05503924332839741 5.843315371738088 7.062517835563209 0.0033792008848780516 0.4546677123942105 0.2488138804477521
Ni 5.045867044966273 2.4827874036938216 7.218096803189424 0.43708470920512466 -2.0709140674211173 -0.029593397386400645
Ni 3.3725059295319033 1.125631482264224 13.147349177625491 0.023813814590146084 -0.551316765778528 0.28826925822989713
P 3.800910572235356 4.734662719467958 10.66706499159965 0.6056894269921376 -0.2765658537500398 -0.61544393527574
P 5.690635794479717 1.436446129697101 4.51539643887537 -1.1872235968943101 -0.7820974428736531 0.07269228545840385
P 6.67626151466149 4.533412554767465 11.847600257674285 2.7057166097291274 -0.1510703084476753 -0.7982128603782769
P 8.684467424897429 1.410569650542167 3.702657887059694 -0.7254316147504927 0.19607695506535264 -0.3341413381716633
P 2.353701905492818 8.677824341686623 11.66146774630296 1.4101791215180617 -0.3524401364808511 1.8247949601967088
P 3.6327088187036956 4.392516099964012 4.636442507464416 0.611045034877096 -2.4262641784599115 0.3114832344525152
P 5.9767058847572665 4.734133870664864 7.733596349128157 -0.8269259120422532 -2.45824793045536 -0.7241321792127787
P 4.904636580392445 9.045884552542212 8.099994861376127 0.605998216481808 -0.7172915021418615 0.212847232545156
Ni 3.0139557190828428 3.5119550086637283 13.117895082707864 -2.3283344585909576 -0.17409093771256468 -1.4366933657585064
Ni 2.078394352260706 1.2190985496743376 10.71619504540715 1.5976503371922743 1.9056309578081696 -1.3296629691398647
Ni 8.045608792709798 7.975346126291614 11.776118455594231 -0.7486905852784332 -1.496240886304836 1.0854271949810985
Ni 7.594036861211124 0.07795045796633014 1.9370414174377397 1.3921238066782475 -0.423071168534852 -1.124304074551954
Ni 8.058792900590458 1.238471116356124 12.985700510227616 0.23640059438506383 -2.489154647336545 -0.15358716133225805
Ni 6.074431576739669 7.968916438211882 9.839443521098985 -0.3339896430851474 0.4140198569658611 -1.8349266493140721
Ni 1.1649147424800688 2.1064047827263734 6.254844170793312 -0.9701085902117358 2.0987128348009403 -0.20731216165953972
Ni 7.337378186824985 5.6321469724672735 10.01306922217958 -0.4760101826257286 0.860190330522338 0.26473183722958926
Ni 3.669681844674442 6.495478726445681 4.983449896932245 2.320496707714094 0.45555911386022835 1.8781144975554558
Ni 4.811642693490364 5.138304248917729 3.020525505705148 -0.8437018459490115 0.6568546370120429 0.06881840432529437
Ni 6.570584534534311 6.607863736127902 7.855091475297375 2.276529043883892 2.0624132290389583 0.332755256457414
Ni 9.232122833674158 4.521119139607806 9.14417991674409 -0.01728372678111217 -0.054564465509441516 0.41115179138944674
Ni 8.97209622743673 1.222819047394355 8.134336632600249 1.3962141746975374 0.27617761717268563 -0.05765570284025554
Ni 1.6317954551209586 8.033287543402608 9.776149597417723 -0.771098263549672 -0.3737460970474789 -0.8438342577618176
Ni 7.589351446376688 6.95237625817201 2.2590630204716367 0.6734806756044982 0.8390823448991291 1.0737973240516538
Ni 8.605854514219853 3.588925704636957 11.59606956106833 0.10393273152992423 -0.4581592704872368 -0.1064092180948748
Ni 9.12305008754816 0.3950500559117752 5.533386778001623 -2.0926951678519505 -1.5996861366753803 0.17269842824041223
Ni 4.458334580826365 3.4738036704474897 1.1106112484514157 1.2195873579369965 1.6590616504202202 2.891271067996601
Ni 6.213129133888149 2.2137703678037837 2.4332862279192358 1.9187996339796438 1.7509783313258749 1.1823714110083314
Ni 5.751221455606186 3.9423637099894346 9.798447533005048 -1.0468282516619776 0.1304804001114656 0.1372855959587571
Ni 1.0309489904119102 8.324015214367062 7.3537270372799535 -0.4129425647412824 -0.9111465098552307 -0.19144459849966383
Ni 5.3250342666560595 0.07846260628090611 2.0930007850802155 -1.0097511443040221 -0.7353262481563853 0.5097942210547092
Ni 3.807358816413441 2.084230245193102 3.161506390756112 2.1438009853888307 0.5032530775020816 -2.003758909730859
Ni 8.311295008945256 8.308632208831428 8.80919038437536 0.5542233979023616 -1.284703373710039 0.8773514156826567
P -0.057617613194713715 6.6191458439272575 10.19125786784547 0.7655729628560686 0.12678752464091067 -0.2727925027505366
P 2.9573225069058195 5.113234960041202 0.9650497905217165 -0.31679153403930604 1.4116798744333041 0.5025663358477023
P 5.038379659280354 7.513243608976931 3.3069954799022296 -0.23910873734484625 -0.32602539393274815 0.212129380542525
P 2.146977691777835 0.9043917606116667 2.164319293494754 0.2003303310250679 -0.9225588654572305 0.2573975083517051
P 6.812982847335247 4.605150431004808 2.9207447258300174 1.515519789139106 -0.8346214809142981 0.5567302234846154
P 2.3353592022696894 6.534233137858431 7.156025726389702 -0.35657575591577945 -0.6031664034599677 -0.3259395190871613
P 7.161085974410893 0.30255996708001043 10.710437088087843 -0.029596225599878057 0.8730869839793479 0.18763782315906394
P 8.7870269805011 3.6929511920106113 6.766759606334931 0.8488121705923833 -0.0585635593665056 0.31705481500302174
