# total energy = -340888.58703910967 ev
CRYSTAL
PRIMVEC
9.08233533630797 0.00000000000000 0.00000000000000
0.00000000000000 9.08233533630797 0.00000000000000
0.00000000000000 0.00000000000000 13.29291582121129
PRIMCOORD
 96 1
Ni 6.354192367305907 2.051899311207761 11.33050912549122 0.7987286236724308 0.5571048332152146 2.3567760017611024
Ni 4.4469655719586125 0.1412403014249299 5.925516140998757 1.7926646553210677 0.3595798328494259 0.2803204356964656
Ni 2.4172271584029037 1.29010028974826 4.907305543136398 0.34473145498268376 1.3588239069745374 -0.45313662046166475
Ni 3.511848349722836 4.4766648077464035 4.87698416739403 -1.772528546692825 0.5351589250717429 -0.150179935422922
Ni 4.994485061325954 4.426276012593295 2.7455717370574084 1.3155134171123604 0.682589836994618 -1.8412078543370938
Ni 7.7040635043689845 6.434307645252117 2.4217165566444647 -1.8523654136158096 -1.087073986555902 0.5217989588250691
Ni 5.0422763086395195 4.8196682752576345 11.335042118941278 0.48083357215630096 -0.6276667025941771 -0.09894042052165541
Ni 5.850367992120542 7.81102616488055 12.647026295120938 -2.7608680580902907 0.17125141138124056 -1.5509465053778322
Ni 1.8981353779088908 6.727912292136499 0.39496986427178293 0.08177213627248497 -0.6635227930608378 -0.03004565443247083
Ni 2.9069285025026375 1.7009124711407295 13.258712481993097 0.5617826983068582 -1.3396159665875187 2.6977814140424505
Ni 0.6501998288777012 8.875167039593807 4.168245964075029 -0.4111145103936081 -1.1800322213521934 2.5210342696539616
Ni 8.408870873055278 2.275615389472249 1.528472532168943 0.6951818147270157 -0.1548860826493397 -1.2043278606747645
Ni 6.942845752356094 1.0426248228535395 5.109304849935384 -1.4621614281226238 -1.0104312010901824 -0.7345310059485994
Ni 0.6731772284555401 7.366854566653659 2.2706827732776462 0.9444070716805735 0.49182452395016585 0.8305979615772018
Ni 7.623957308757878 3.862571802071872 3.686391757504547 0.8995359221994959 0.6488425653408438 0.11850188759335077
Ni 7.7426906755633205 3.9280463558315626 12.839480975959868 0.5928164276842113 -0.16554227681160522 -0.9856182558115607
Ni 7.939777347304932 8.917463474169876 7.213387625712667 -0.26882374791077573 -0.9651401904628669 -0.22522143783979276
Ni 6.787901115493796 0.7533724309506592 0.2285369817373193 0.29467027666023443 0.22748580839393723 0.9694485880302336
Ni 1.8948657372717028 6.408559225234261 9.288703921517266 -0.21209749886332505 0.3872472168577073 -0.6582877699141436
Ni 0.14007322136415584 4.546816764084293 1.7085915854705696 -0.23854746552473755 0.5983671822991115 -0.838160347305492
Ni 6.494759667699682 2.4931282328611823 7.2044942031795145 0.3365736017622397 -0.40855754829970925 -1.189184834385739
Ni 3.5118301850526294 4.2919936880910035 0.24328851041209928 -0.7878793396627528 0.17052558895880957 -0.21482595353808165
Ni 5.999327370149766 5.857270566799049 4.898718195296228 -0.3530212057953017 0.22095752035711624 -0.39465919305106223
Ni 5.364344993737644 2.9234129407151275 9.407037665578164 -0.5508506247753869 1.1363705187981847 -0.5686339169007368
P 0.293165061865382 5.649021705215481 12.589494243409085 -0.5930007757808755 -0.07203228327690175 1.2015099316099953
P 3.877103538237152 6.360513672537803 12.639754977637237 0.6924700722228074 -1.2794377544357256 0.4341896470455167
P 2.5154435302099905 8.642005332821887 1.5199387701058824 0.6907294353826169 -0.560502546042854 -0.2722805961111246
P 6.3314411178721395 7.851633285127404 6.112241684854523 -1.3160032122645853 0.38446656878877655 -0.7668842254683245
P 4.90290787647938 0.9353624452835655 12.450955936677387 -1.230091857012746 -0.1196928225776584 0.9115805120688559
P 4.0548630008789415 6.349169835993782 8.053805156293354 -0.6574645026818999 -1.4761880814190191 1.4977760920024399
P 4.704740406860475 1.0372480804723858 3.8200919043267167 0.006697980845465884 0.5375266539729712 0.9040790614854881
P 0.04986746911817943 5.61841423591736 3.793292658137409 1.0721207076801793 0.027550141704126747 -0.3307184285330433
Ni 1.2319824274222428 1.0357585775154448 2.4718574040492536 1.5832950969118669 1.9064727369831747 -1.3413200937628191
Ni 1.814214601554398 6.608715726240788 4.676965717881074 -0.5889386898963599 -0.6287285681997882 -0.35955772136223885
Ni 6.048571791079858 5.665478896422662 9.111681944485866 -1.2696369662952198 0.5576380800108655 1.1412458446126152
Ni 8.789611442920721 2.2741349688504107 10.363768120659262 0.3262166840079479 0.6782814394272512 -0.5959382611426447
Ni 2.1235770998430055 5.25884458917771 6.782350900512169 1.0578238314415331 0.646083771648784 1.7513639968000678
Ni 0.47756552793470425 -0.04135459642585626 9.277936813252305 -0.04412707222620142 0.42265902069809785 0.46876944190291525
Ni 1.5242973827219561 0.9576232486217541 11.591555417497291 -0.5378794093266995 0.5069374683322043 -2.9084033568015135
Ni 4.2712496347150655 6.972999104899052 1.6298976929680262 -0.4171838565161396 0.27386619543068963 -0.614256085615226
Ni 5.6340721816354495 7.876555212650859 8.1480788864321 0.2747737948466235 1.2667246777444312 0.49403541555855557
Ni 5.341148709883815 3.2084983572726133 4.675783197850624 1.3335923861012582 -1.4636331275721437 1.4702292927324228
Ni 0.78984073109094 7.40125845202496 6.89563304978861 -0.5849365107155022 -0.09411934498392824 0.3385350963639847
Ni 4.7847012851099295 4.722024090562055 6.876292217186132 1.5894032666921336 -0.7154583055878646 0.5625013216404376
Ni 8.273598574026726 7.059926134172737 9.328994976502525 -0.8311260661665298 0.2492468542201127 0.22098348849904523
Ni 4.596887677508787 0.2527986234987648 10.361854472652997 0.37423923463381353 -0.5092985123652132 0.029856421239800195
Ni 8.00235463616667 7.456724272500813 5.032365664574798 1.476791776441289 -0.5482329846468816 -1.5317488494034588
Ni 7.3530584996317465 6.024258380008325 7.069970288563476 0.08723881581401104 0.5112530649884227 -0.6189480917742566
Ni 2.305605259983346 5.271650681673363 2.39475836959085 0.7476698573234027 -0.13899820777448965 0.945138036309327
Ni 2.185645777938958 5.463006399964793 11.519454392046233 2.3250293054771247 -0.49846902584987696 0.6481900193585095
Ni 1.0643316037504267 3.1635680455165875 3.8018137049313254 -0.11021933586958438 0.7371005664479886 0.009592271674125416
Ni 3.443621848426846 2.843733614853875 3.102765444934035 -0.7774751136102932 -1.6902879554243537 -0.7796484671125282
Ni 1.350534147525619 3.222103695257357 8.08425913412823 -1.03985876232268 -0.21478892965255914 0.6456271437273398
Ni 3.8639886463479867 2.519503334001166 6.541736229554481 -0.07860016630240656 -0.3915864676630095 1.1821420686063446
Ni 3.874587731413538 6.796938038921579 5.99325673736672 0.5635238493676812 0.8678933555935506 -0.9742313541308577
Ni 0.7018310874729415 7.490092771670338 11.292584018800369 0.1977736260414852 -0.27145321511382287 0.6640133595440113
P 0.22198861812783993 5.619731174507339 8.134439943807472 0.565193009539988 -1.2287777661870127 -0.5808854805745802
P 8.508358771776827 1.6251657963792068 8.111457094828571 0.417292614179862 1.3580106670446224 1.0441455626234921
P 2.0212282655639164 3.1633319048039024 10.364605511955787 -0.745901195458754 0.556987333800744 0.17914649785860115
P 4.1170134199908235 6.110340752117403 3.6397866631554727 -0.6285460198753369 1.7053577052732825 0.4187432305834594
P 7.07884463819291 3.9502980768346476 10.589482312646476 -0.3254895760339362 1.289018199035309 0.17606348805790323
P 6.332994197174804 7.639342784422868 10.360338630924256 -0.15148657004948748 -0.14734555129792043 -0.5694067905110194
P 2.4300786625740733 8.4983772854983 5.897720562648617 -0.9469290667714788 -1.5423258535883566 -0.5293430897209142
P 6.850823533089459 3.8813268240601864 1.488527514151119 -0.1618440020244116 0.5222350179212232 0.8001111058422543
Ni 5.163570893944092 2.6292270243841345 0.6763396975385091 0.08569435414502662 0.6636359215999346 -0.5128378929770394
Ni 1.4098054664097552 0.6892556862889123 7.1982065025875 0.35759622676049385 0.9338213257449272 0.4606578685393744
Ni 6.8339485544675265 0.936979100931953 9.503451193867244 0.5150459563719517 -1.592203198034774 -2.626221185305961
Ni 2.7837447914965785 1.4321843401042866 9.199189334972653 0.2771875464944388 1.0370621734141494 0.049949592445249456
Ni 6.34968752909467 2.0941594164434165 2.752696828945947 -0.2622746339383483 -0.8105891225554426 0.1790526525932142
Ni 4.076451711419486 6.8057660686419865 10.431203550567757 0.4798303277027671 0.8764672133054905 -0.5472953033239606
Ni 8.214881277583892 7.63995130087479 0.32664709022369776 0.6309787976865456 -0.7177010788754543 -0.223232432434222
Ni 7.595874728618474 4.157193670487823 8.486449454807136 1.8195655934769697 -1.3949360793160621 0.17503144724896308
Ni 2.9745283226765 8.308956104583872 12.292211250807865 1.6194044410399144 0.6739406459600522 0.6566183526315208
Ni 0.33004206708531136 4.806953006113014 10.554946733416179 -2.438026975422795 -1.1345620048345362 -1.7494264134577224
Ni 8.972511507230978 1.9088706980009913 5.960530359288998 0.24763734364114773 1.5465216368372592 -0.5562810517623388
Ni 3.85684084862169 2.6516694744243887 11.443685011446954 0.100755105132891 0.697524089706947 -1.1277231275358321
Ni 1.0569385829763405 3.0237000849257667 12.661236516623562 -0.6836311337749388 1.337203243380968 -0.2396702662752711
Ni 3.172014617162657 8.330027122023528 8.296906570602324 0.6529637865980689 -0.08151836839046606 -1.7543099668022688
Ni 5.863455637004396 7.900750553366051 3.486359684488935 -0.7216729190390088 0.3324685784549306 0.7716975876965677
Ni 3.1897433352842985 8.327974514290185 3.6974513169598353 0.8561043333784224 -0.10366739368367951 -0.7217397677212021
Ni 3.4837112755728126 4.47227803989151 9.073836762343925 -0.1646066523712133 -0.3525650920944896 0.4319653857006883
Ni 7.339189773929007 6.226467488748198 11.893091667627385 0.4726525790074053 -1.5031355565421403 -1.602412534467608
Ni 0.7928542498782148 0.1298901072463358 0.274502679695121 -0.3042010989688051 -0.38729015428050073 0.8199363680982975
Ni 4.835753090725579 0.4609248735584378 1.691590362390702 -1.1191865508197305 -0.9576734497721765 -0.1634995353499636
Ni 5.702507576638816 5.333283407684358 0.33316820682786724 0.5279323254163166 0.6518697822029419 0.4238538123371475
Ni 7.86095176094339 8.851316827612541 11.445293492993747 -0.2900088666288231 -1.168727852082968 -1.0735170738070738
Ni 0.15189932990216287 4.608167937707085 5.813323871934711 -1.7797854853655541 0.35878896151701434 -0.33637639814976905
Ni 7.800227268442726 9.10340612073974 2.550791070198524 0.28218885636377206 -1.1074597493011056 -0.6074848283296634
P 8.550182924927524 1.622386601837597 3.6881455564129944 -0.5929544959239723 0.831805865842374 1.0313460968659787
P 1.985371206576088 3.164512608367331 1.4145255559629404 -0.40190327620798527 0.201674246647472 0.9412962939657337
P 4.9813974164421 1.2029280374267861 8.158646183324787 -1.4569266620862458 -1.0031398096350916 -0.133500417884712
P 8.475735024085774 1.4452810673232452 12.398222082600604 1.1852363912609523 2.346618601612126 1.1526489442432344
P 6.3709583579065985 7.808919063136584 1.3316447069777755 -0.2769674600638327 0.021163264341176456 1.8391034063995808
P 1.873812884502253 3.268505345300117 5.966179571723251 0.47810537459186037 -1.163053941626642 -0.8148620388991836
P 7.0035066685110365 4.151390058356815 5.811768976165026 -0.33153706777959674 -0.28956946509855935 1.074768943936304
P 2.416754876977532 8.517123225151511 10.238256607166226 -0.5792847117463636 -0.10038589471893035 0.25811433191307165
