# total energy = -340894.88388816855 ev
CRYSTAL
PRIMVEC
9.03420523546096 0.00000000000000 0.00000000000000

0.00000000000000 9.03420523546096 0.00000000000000

0.00000000000000 0.00000000000000 13.22247255356289

PRIMCOORD
 96 1
Ni 6.349293744782374 2.0316211395753663 11.229846129738222 -0.1669232163195319 -0.8895222467172358 2.418604605032125
Ni 4.74704128419989 0.3362549310045004 5.9522684244627175 -0.47110271802178216 0.49423596160513583 -0.00032010234358009385
Ni 2.9036026426450534 1.710699061938146 5.000236634381013 -0.19442167885011677 -0.6556518749531934 -1.0201527992533204
Ni 3.4195551459792117 4.389494537960882 5.062567230964922 0.6040804306338048 0.5013270641239624 -1.078610172059265
Ni 4.845830320006634 4.504030193741213 2.869739730627274 0.9177287910584389 0.7027711970384993 -0.6935422222410635
Ni 7.237726535845119 6.179803017688607 2.914140139797773 -0.14519379506224028 -1.5364012605738055 -2.062513759172564
Ni 5.067349035871417 4.492511581884459 11.379788643235404 0.3252964861865236 -0.13684130933248692 0.03577715759960936
Ni 5.659152727557969 7.670013263175045 12.349775916505578 -1.2428694683933887 0.5343420855974023 -0.18008803583626404
Ni 1.939960091811742 6.364118875807419 0.4974450301971027 0.0790097430359994 -0.3296799599662 -1.180723333881947
Ni 2.5601763594116194 1.6350195234879308 0.4302621619047516 1.0045570016975927 -1.4265398222642725 0.3406279743372714
Ni 0.7127003314734239 0.0024202636207249196 4.6840078264375835 -1.2894604287790503 0.39613114961089846 -0.6689863872785704
Ni 8.653693681536419 2.1390739783394657 1.334306059860414 0.23217678611170336 1.0419989485941346 0.046658837509119644
Ni 6.857088360660336 0.8278891603025725 4.6658797899263975 -0.16406234983196907 -0.4509288141770686 0.44557346340242615
Ni 0.834685593008326 7.354728529693601 2.4217885945927 0.21609762116165365 -0.3334389127879999 0.5377433979694674
Ni 7.619557226139776 3.6480392341903127 3.691939148382879 -0.09034496554316054 0.5360528976409219 -0.08954818067347804
Ni 7.543615695733603 3.8570455756067776 12.649609448529292 0.30944717785909287 -0.02933423018774303 -0.06735133286146465
Ni 7.718906382679947 8.937855577491185 6.845419780994311 0.950432194828731 0.268272503392996 0.08959600319227795
Ni 6.900714538429955 0.5138601813686486 0.291800316601734 -0.48784985557313404 0.8985175082373107 0.02890562729075667
Ni 1.9750579797046732 6.517474512096353 9.26535726690509 -0.5916735723290197 -1.014926774967691 -1.0128138423897461
Ni 9.110815439450045 4.74620110309975 1.3981571132094155 -0.5155349801932282 -0.03484667536553999 0.4611306944107349
Ni 6.452536643840396 1.9285950614464116 7.016307196239493 -0.5601670170803061 1.36689948489382 -0.3184874336844902
Ni 3.495099171348759 4.236644817173107 0.5154583322999896 -0.520993175094322 0.806642993423501 -0.2102463045871992
Ni 5.88646236906995 5.7134573360842005 4.908711099698055 0.310732986550052 -0.9435398385842718 0.6942562175889527
Ni 5.327805176914714 2.8120500053459634 9.41215316666917 -1.004281893659335 0.23984073041486434 -1.3867126629650055
P 0.22187466355666885 5.62282618773365 12.560238571828952 -0.21461280908601102 -1.9586967272848976 0.29991764110210284
P 4.024277751356083 6.020656455752473 12.575576845719459 -0.5741687306760369 0.33153938177244185 -0.23700171830417247
P 2.4335710052464865 8.380734200250183 1.2731002218460457 0.1487653144635825 1.072697920339888 1.1365083299276297
P 6.296786943126333 7.809130991788495 5.68772611232702 0.5214004378350697 -0.6583839291723758 0.22753054558894362
P 4.839280521107696 1.0033388492635669 12.627686142338874 -0.27642470018648524 -0.46946183998424956 -0.3494136909497014
P 4.13388073100011 6.223058793037732 8.121970165874156 -0.8040209824196216 -0.3370955357039807 -0.354011594733029
P 4.643924864017157 1.0724505204040882 3.7571128093991972 1.4742129599705192 -0.5739206192209728 0.28305223280533187
P 0.16785824618199038 5.493564777187431 3.611361263776796 -0.16902792136736053 -0.5776641454238051 -0.8230165496855181
Ni 1.5233206081962438 1.0859205206224565 2.5667333856748598 0.2528736523394226 -0.8476410331024177 -0.011468919871547991
Ni 1.5345862623024178 6.600119422892888 4.773590103543765 2.2748938222733144 0.14251856222292228 0.13206599943103062
Ni 6.093481185303289 5.777482749596994 9.200090553573379 0.23996568602850288 0.41218486063965143 1.144576451647745
Ni 8.369549853992408 2.394489032781925 10.171254983804285 1.825701274061062 0.27915135508902894 0.09321843043621365
Ni 2.2565728534837297 5.353281636080239 6.918632077955835 0.15195656770737057 0.32769506832568723 0.8917182259272901
Ni 0.5099104267774545 0.2744338636039008 9.339601270120765 0.470300533835461 -0.4836345319402057 -0.7484769266057304
Ni 1.3598918329110115 0.9118223487859879 11.49864535944796 0.3193276701975984 0.9033231571560701 -0.55969059166452
Ni 4.101348557434487 6.839995644085452 1.5003412033971553 -0.1332592484081834 0.5901591925670223 0.8904067062047182
Ni 5.776326371308629 7.776752399714295 7.843583837417447 -1.1912322038330712 0.8878425450219677 0.5316979631063359
Ni 5.344464251631462 2.9623069091902963 4.7168787827048755 0.006555798840646773 -0.3923225744980856 0.3312431906882618
Ni 0.6297328995449004 7.6670139069896 6.942446243331839 -0.0477088760401888 -0.633441143184109 1.0239492901812752
Ni 5.4927426644980475 4.470422949735626 7.471781115092199 -0.49796200430647136 -0.08256326471521265 -1.6386339786934878
Ni 8.155222365608394 7.383059797758525 9.17537838818282 0.10596750257176589 -0.08959857429543924 -0.08126460050844714
Ni 4.33615658941008 0.27003330216435206 10.646351196737672 0.9170081108423304 0.6379061209339981 -0.9609876017470741
Ni 8.208379630051638 7.201427098636933 4.736395376582636 -0.4969567029704087 0.42312644725281967 0.8243548088809675
Ni 7.54711193321483 6.365446903997962 7.0722379617337365 -1.1527106507191052 -0.8395083766929542 -1.3140376038977821
Ni 2.35223605422974 5.118464569899269 2.5948577704366316 -0.47091862703543413 0.5264261731844353 0.8929778093660041
Ni 2.2478367768833527 5.080042094427291 11.360801453792787 0.3132848064376282 0.7595167293596596 0.49309696290468635
Ni 1.0213891916085032 3.2026348406517533 3.7519696362775896 0.12389606202572855 0.5226823898712869 0.241299574348578
Ni 3.5707154703613293 2.5749743878205305 2.7333367807298674 -0.3256001334698715 0.40368813602255 -0.6027200599511684
Ni 1.2596753926545667 3.2706262703254216 8.14261061490092 -0.6335025925496638 0.574424812550901 0.1834088726793809
Ni 3.9034181518112603 2.809402983170254 6.968574068705106 -0.5963126137629279 -0.26972234846564513 0.3597698373730449
Ni 4.060857248930981 7.065534581343375 5.983115718725372 -0.5810927114893798 -0.8034327140163195 -0.2369297274156565
Ni 0.6333547124808787 7.237473578094539 11.356186781685782 0.9401783783112067 1.1288973503495912 -0.751875410764318
P 0.30396939124569244 5.7240363905816585 7.956371374457165 0.9066673910379547 -0.1444746575080286 0.314226087304975
P 8.500744584489487 1.698846184482412 8.080768768827951 0.5844960807439741 0.40466258412067724 -1.256304253742056
P 1.9883653642262402 3.1924623253962987 10.25008745993137 -1.2986832329288989 -0.2748516992724105 0.185098601676978
P 3.851200444727311 6.229473078856003 3.830272707969531 -0.019374804982185988 0.14090545209953154 0.0860360537551615
P 7.002313212109209 4.068129784260147 10.269048450178392 -0.42623542519544655 0.6805815483153375 0.5639120859450353
P 6.1863528165875445 7.8145966860420915 10.187095559513802 0.41202056714764523 0.13650089527393267 -0.0745455366170587
P 2.2345745633886747 8.491755550138532 5.909863671260183 2.779646624249374 -0.0009811329663466973 -0.17592850514193573
P 6.652011898583234 3.957578213051447 1.6420589763183484 1.2737512455739095 -0.7242784749826559 0.49410175002011675
Ni 5.217343947759792 2.783014069261567 0.46655527516917195 0.6484522718809607 -0.28025512967616895 0.09864422943747526
Ni 1.5659891601958102 1.2032206432484076 6.954981203293599 -0.8576140851547294 -0.09305979337116232 0.43746651802457565
Ni 6.838748923743309 0.7214300841300364 9.044977764338455 -1.205718313264388 -0.8966984527507009 1.417843580041855
Ni 2.8237944723371626 1.4731898025545769 9.012265810085813 -0.19237096696867514 0.6440065774047812 1.2280686559351301
Ni 6.47738974283485 1.7462576943053474 2.476330802720369 -0.2170586995233423 0.7654132973497527 -0.05446419248615136
Ni 4.092061394306061 6.841612766848086 10.417999911345628 0.39575602565966683 -0.3488904714563798 0.1900081231634534
Ni 7.92720805607694 7.362606356783082 0.0017155956012529386 0.5945840611075954 -0.8065923426912238 1.280224512003079
Ni 7.835745760831628 4.034793566415896 8.06086912464217 -0.11153908312227241 -0.8657326004968059 -0.20189150486460067
Ni 2.887286867732664 8.301829450480076 12.314895752962252 1.052649229219129 -0.6955865063646021 1.5284830341679936
Ni 0.1373930988068184 4.887333459512459 9.945772058619706 0.3008391244751077 -0.41263788901667003 1.0524728515422648
Ni 8.600409938217885 2.306044162132814 5.866282664517455 0.7158133749344382 0.16306836134981595 -0.3274058192200426
Ni 3.398017600358427 2.6638709687385345 11.725636093510102 1.2806078634844267 -0.2860172289709268 -0.6412716949721214
Ni 1.0971861747286302 3.222763050233594 12.539439120787536 -0.8415084378421184 0.7628136549433766 -0.020452097206764778
Ni 3.048809425683171 8.34371202661177 7.939420494906712 0.7935650771936203 -0.27820416068441123 0.41273841915027626
Ni 5.597123873433678 7.776887912794962 3.647154785483821 -0.8694563292052961 0.9331875488156703 -0.7436494233100999
Ni 3.158701499899289 8.429320156772238 3.818134349623857 -0.2160091752129054 -0.3669103050725681 -0.35478832499805346
Ni 3.4258610213329477 4.374732646373482 9.146566500391794 0.8660025663287407 0.1703111589551583 -0.2664303079779347
Ni 7.478569417013112 6.1673177458564234 11.296817597624731 -1.078878595229303 -1.2101349542748447 -0.48426959442104334
Ni 0.47917877034363604 8.995900347043845 0.44230475767342015 0.3582253757040605 -0.0014663001328813457 -0.0788225667258578
Ni 4.664260860322687 0.35111981253320806 1.633953487253345 -0.7740730299072798 -0.7913199899131856 -0.5780487824567335
Ni 5.953893678010192 5.668250172373459 0.5609076127148569 0.2852921778794441 -1.0697043849292027 -0.9191853209993072
Ni 7.903375822290183 -0.18324440136099976 11.23928687435807 -0.2922238720022709 0.5798927776440077 -0.05599528441869711
Ni 0.1282414487590605 4.834537563284327 5.771966463793281 -0.8298068331344741 -0.6953041992374929 -0.10369593292876982
Ni 7.926431114414446 8.574545008221111 2.5490814517870866 -0.4854936966361316 0.9279090740255503 0.004503030076676116
P 8.617845954597126 1.459123544781271 3.5527328845567268 -0.860692209859421 0.7503011242986627 -0.3568138400685146
P 1.8081600695543476 3.2777452241631644 1.596362158676128 -0.7594917896589952 -0.6598857105288829 -0.3832728055909915
P 4.719161726403857 1.0425744032195516 8.088133453051972 0.3955446809798091 -0.23661682416092797 0.3799918208468746
P 8.55924106431104 1.6343238896738368 12.382660424080939 -1.1080415899465046 0.05598320023383906 0.15859258496664946
P 6.261219276553754 7.615862236140236 1.3960819562341245 0.13380432227837602 0.9105998933231415 0.8463644803828391
P 1.8052962264495707 3.2837620049448097 5.9393368628848675 -0.41097798481574377 0.09156983908919714 0.7424417761552439
P 6.975400314288606 3.863649579737983 5.907086556527034 -0.35086379313266663 0.6785616896718314 -0.017344661926034646
P 2.3157830355301314 8.308243736298348 10.261419063736803 0.0029361998101884914 1.4312606247787092 -0.7666800798773183
