# total energy = -381174.99934560194 ev
CRYSTAL
PRIMVEC
9.17612435820238 0.00000000000000 0.00000000000000
0.00000000000000 9.17612435820238 0.00000000000000
0.00000000000000 0.00000000000000 13.43018553509337
PRIMCOORD
 96 1
Ni 8.35786181789143 3.1615235330229314 1.0648662910868427 0.35208635268585814 -0.04139296112449 -0.08946821936516204
Ni 4.570168735007665 4.554431681738841 0.02197039454317609 1.3769699817559446 -0.6029329472929229 0.734766004777541
Ni 5.916627342238566 0.9916178784230566 9.019283284686868 -2.089230606342118 0.6802894709962155 -1.039052721481617
Ni 7.701998329617817 5.470897101694449 9.519423354593954 -1.8086018953766143 0.6129036853523896 1.066209227291751
Ni 7.841970930528984 9.288990684566327 7.7366464575698615 0.03835468851879846 -0.27595161720480865 -0.18506260623271997
Ni 3.306744877065159 8.285508077352256 0.30721022011834576 1.130332540134221 0.24056552439603088 -0.42502057895173906
Ni 7.966894687497953 6.546247114856879 11.873761767829842 0.3260472483096191 1.4949975008160383 -1.5553037539052634
Ni 5.774324005741228 6.708132300727786 0.670977482698733 -1.0655721079283842 -0.09351822106481959 -0.5270229262281698
Ni 5.651942035218596 5.719496662720104 11.657521809342093 0.9280422571693049 -1.418091434386603 -1.0085558384443405
Ni 9.035307550648003 3.4689053466667157 9.31517659063819 -0.44558246226349063 -0.789519446369337 0.5441901820360757
Ni 0.2927486481348661 8.554396049326817 11.82921351931119 -0.4775096499893905 1.1574142268423615 -1.1639425148791824
Ni 6.033274235039324 0.13848148070347993 0.4818428779432186 -2.036330673019293 -0.9563117935379595 0.1925056927743265
Ni 2.5862080643375074 5.3114435887776175 3.9608300324387726 -0.940357069980916 -1.244003581997832 -0.5791785251858026
Ni 3.4740806808029356 4.9943626116905975 7.572489263308656 0.4655360225672821 0.08433578323460314 -0.19512924644010265
Ni 4.27814775353415 3.2138457940951404 9.260247392636726 -0.5432617566845352 -1.007883237857348 -1.6657064094302476
Ni 0.460741462376461 8.300694563159782 5.894508294480838 1.7204701354346885 1.8811527701611472 0.009062367312584394
Ni 7.214580956128937 5.008915944917628 -0.1243419906848607 -1.9053969874204926 -1.8832806151374275 0.6922296740772271
Ni 8.129871832167105 3.663356597873517 11.651344442426309 -0.033355692642310295 -1.0992787561522102 -0.422633309666485
Ni 4.0594073011596645 7.258002376576795 11.498924428827584 -0.5605897064400216 1.1880016127109154 0.42442279746673994
Ni 8.33884888822787 3.9069826994987626 5.112065676404616 -0.49225338395746837 0.20895818190339496 1.8698391449205412
Ni 3.452397498952071 5.1314722618030055 10.826676970518118 0.46738490285056283 -1.171315410304486 0.7098635851089065
Ni 2.640961998363791 7.866957517147649 4.784329383716571 0.5548204080564122 -0.31227359156429446 0.2727289965024529
Ni 3.8387582149193387 3.303744284401074 4.971585635816617 0.41592761551153523 0.5977316055976416 -0.4743428222256347
Ni 3.632589052911203 7.488745199607621 7.05576243101747 0.6108108073791028 1.2744577847226308 0.5214518598982956
P 6.019344878268433 2.9786525507521397 12.951278263952487 0.5054991932237811 -1.1632861122421063 -0.517048074403645
Ni 2.197663430773749 3.766789871603075 9.167175798528834 -1.6308178250831784 -0.16936653565370186 0.20906334002269156
P 6.847095527959904 1.7730841568679072 5.488567564364872 0.476079088190451 0.6870530149722941 -0.7781479713076018
Ni 8.033283947206376 1.9300601162088893 3.5141427221244297 0.2762814897404016 0.2506398779128974 0.8974476722118995
P 3.6077492842822183 5.8814093769640765 5.679463984996546 0.8457016499878597 0.2081112605220674 -0.7482591541679694
P 1.8695068715902454 2.896104136054561 2.968689114927481 0.9313114148388799 0.6848251540830399 -0.31228901818326216
P 8.982260375751748 7.5670817732262545 9.84493076667617 -0.012282159801462718 -0.4069182129240734 0.7403082747520088
Ni 3.6733952779178867 1.2542110290900867 2.8428348989489165 -0.4946028580262514 0.49656255285578355 0.28459206648862595
Ni 0.8839755164518601 1.7565671330289074 10.837474516046647 0.5670110365853331 -0.7616936824063204 0.3806160846944348
Ni 5.550867025448273 7.223454268380221 4.924875492399925 -1.4014635960219348 1.0762362725104497 -0.2721371285547249
Ni 2.887047301316177 6.5197281154709295 9.23639497498834 -0.2732653286218971 1.2483813993505533 -0.7506896179863329
Ni 1.3685730669264498 3.9945963348403013 11.278669915934522 0.11180930606452356 0.4449101187868144 0.42604670622340823
Ni 7.353746058096864 5.9095341981121505 3.786815845395427 0.16419913252014945 -1.3813655397204792 2.6747134764793934
Ni 1.0048314974942565 7.401214149385278 0.1953954744029309 0.7760520080105215 -0.07060172147796227 1.1801193817493612
Ni 5.241787628798813 6.048910350940243 8.930133566128301 0.1334050299574283 0.10963955210671442 0.6748297334332249
Ni 9.026691169878658 1.6545102779525993 5.699797358954791 -1.3521182128195877 -0.15814649856816634 2.014954521336362
Ni 2.3079604455208473 3.443111261104811 0.16242474198298099 0.6547581594943304 1.1216455538831844 1.6966655768159231
Ni 2.865419176211442 5.9213255179083255 13.258064547125633 -1.157340950402265 0.35548380840318133 -1.402987488865629
Ni 1.3036061064930509 8.236691095783657 8.310545132654875 0.7121469818264445 -0.17566342440600713 0.41570058710239377
Ni 5.93546592553938 5.043051127518226 6.047115501016405 -1.2971727098216435 -0.671194964894115 -0.11406184954412614
Ni 1.4335950841059786 5.370886522349306 1.635057811932435 0.3473177276526212 -0.03666547374183363 0.7364462206934413
Ni 7.6621739499171175 8.202528384809993 4.975440525658152 -0.731140749320128 -0.061075270044765775 -0.7245713236327262
Ni 4.022693627615311 3.8510633976793933 2.2910415074350987 -1.3188874757909157 -1.4580682318898566 -0.10151975121305741
Ni 0.06573316681704128 4.157894643861878 3.182779107478853 0.8143599024517846 0.0033565751770587354 -1.6846698379066276
Ni 8.165768830643865 5.874417170205566 1.7202186692338821 1.1352340912008965 0.16642545074750695 -0.4423017346296899
Ni 6.363568831197542 3.553775320826109 4.062806137620757 -1.2864617511620424 -0.5263811788791128 0.007068219700691053
Ni 6.5955045503945176 7.593160318643164 2.5929387515518996 -0.5268820297749313 2.170258665359727 0.3281928338977122
Ni 3.621935572535048 0.9481872818508423 5.239988190812798 -0.1821086658107186 -0.42234200367831126 1.300486861796541
Ni 1.3585252107577248 1.3434488384424603 1.5857829417585216 -0.9950768301212991 0.19900081358036698 0.6848269538552528
Ni 5.240429562394273 2.5230029197802684 6.774333449886932 0.37800512943414893 0.6992403010671054 0.7232356355404383
Ni 6.020546950558939 2.4077691501301803 1.9257675252356203 0.5279719204050004 0.2512268607646189 -0.5493956374964152
Ni 0.7923757726905097 6.579574798514238 3.7954505784134818 -2.110115677321243 1.1381633490325496 -0.47174935046684563
P 6.096396794477367 4.730998666577747 1.9955776441035882 0.24823589645709504 0.260650468071364 0.17625734923626418
Ni 3.7643306702759354 3.0005284312144593 11.822834277659593 0.46630606796408725 -0.39887503090462273 -0.4475372719970164
P 4.3799017965067435 8.407917576247955 2.279747533578965 1.1448109362560541 -0.014836550792200254 -0.033128921343484885
Ni 7.700337451109562 2.541501986479948 7.6678704879167014 -0.893787706861809 -0.1543345810212439 -0.18855133611226882
P 0.001035984439679481 8.254446896410583 2.3723612390815427 -0.5767424049404842 0.1648352234422516 -0.5907076088713247
P 8.8437926592348 6.152985953374651 5.657344937238819 -0.9600018407950368 -0.6082890693985137 -1.9220489941548773
P 4.869319565105014 8.290848581726866 8.71190605910526 0.25370437577083405 -0.4383473779676322 -0.5869198596941182
Ni 2.8917913576077114 2.8350003239746178 7.228971871954882 -0.8378312461008475 -1.2659949986672583 -2.0071314257475175
Ni 7.951864195804463 4.903014293736574 7.1958534039328175 -2.0016452058219656 -0.07552821224530218 1.3606815290085663
Ni 2.159371463840335 8.338481843253671 2.4271702298539566 -0.4446787195022987 -0.3860259428560965 0.18880921775934578
Ni 5.804146409894977 0.1834353139186241 6.355325001077011 -0.8896767700172291 -0.7051767211561984 0.353515628933217
Ni 6.637494495442997 8.162915055969458 10.135935951183587 0.7071526139356467 -0.49542612525849516 -0.26858643508898905
Ni 4.822723205630325 5.322950448718787 3.860534075626189 1.491331879038993 0.4947404120453802 -0.1266592265931625
Ni 8.594954518975916 7.039977661902 7.599590946591149 -1.22769610308706 1.0517606559665886 1.7099872336254938
Ni 2.4676617137952643 8.460093019330483 10.523490480929441 -1.0341611977172707 2.214330973088593 -0.29863826016904693
Ni 7.743547820697256 1.460068202870153 10.070503761245389 1.3788196333701739 0.16241658669842995 0.7836622162576117
Ni 0.6655736630660737 1.1853258635571031 8.542457911540962 -0.38876622460539495 1.8044215387466795 -0.26329819010685623
Ni 5.017926899034237 0.810699575415009 11.808114856581739 0.39844257135289446 -0.311362906824567 -0.5850362695181602
Ni 1.3872005993670993 6.388610474562337 11.350696068834221 0.010164342127511525 0.7892625931635247 -0.8265754706813699
Ni 4.137624585161683 1.6954082642028336 0.6106866752366422 0.03539791988331969 0.4888430727243387 -0.7999388419304481
Ni 5.970711419186935 3.294595688419139 10.565339113662853 1.8347852386402013 -0.474417384217312 2.5084662031809635
Ni 7.971464397426742 7.978851177532518 0.49840486479155777 -0.10241680910603007 -0.20649377952330245 -0.7487175818616267
Ni 7.82610541151919 0.8576510509022367 1.5965263481533554 1.379713863049669 -0.7964395705279379 1.100138275939028
Ni 1.4681431923025527 3.3257302783556533 5.042429903899393 0.8648167735507559 -0.17391635980791337 -0.4738977642684161
Ni 2.153810732481205 1.0350943556170458 12.919825262500856 0.49286247829637697 -1.2493280795345387 -2.038448233582928
Ni 1.3436231848052052 1.0115575966464714 4.253138226604599 1.3414568764509993 -1.0932862860142012 -1.6950542664647452
Ni 0.6876440773647193 5.535359375288322 8.981033527925485 1.4512188130681911 1.3526496598430253 0.4127476751216569
Ni 0.7350038903857444 4.001395842987356 7.0193130298545405 1.3418803371416632 -0.8190367391021637 1.3736188058955245
Ni 6.409229225988021 7.149788342058283 7.0270622668723375 -0.5817210891019982 0.6044478412755526 1.1545212215652827
Ni 3.6750194519287223 6.284709218490674 1.9598669209512352 0.38979620853180613 0.675005853999773 0.48211809529567934
Ni 3.347679567812813 0.8595771194043511 8.319785489880358 0.4125766967614314 -1.3757091127656502 0.20695580676138553
Ni 0.29065006849487757 5.151090815673995 12.976943883773423 0.9757056246835392 -0.5305008574744412 1.4266226117860656
P 0.6305676662641848 2.5217824952410535 12.906703404673205 -2.468117881270904 -0.22326894209911227 -0.38150671482950427
Ni 5.7912080745544285 0.5265351916142452 3.791932452335775 0.18434218312692768 -0.07244597377555265 0.15876459176813948
P 3.3444403959154982 1.4223818601441687 10.460233950075812 -0.7407281358982469 -0.6532090698396558 -0.11657356022238632
Ni 7.7960077236347916 1.2312523659538772 12.73619449713347 0.34823561148120025 0.9352374893661636 -1.1755878124275947
P 1.6787260701254438 0.8728320310351483 6.621860214766948 1.097013100046485 -0.1225601168231244 -0.31193651993984983
P 6.156482056753906 4.075493047153979 8.595547296609249 1.096793270726195 -0.1122042275100971 -1.8811193458200506
P 6.023290611741084 7.785913986844291 12.173536574383332 0.6164803469600544 1.2929363031427925 0.9365618646045419
Ni 1.4396513261802784 6.422378612188736 6.812689649690832 2.6097805232514344 -1.9079706616849401 -0.7781654548090985
