# total energy = -381174.56280684023 ev
CRYSTAL
PRIMVEC
9.22921404203221 0.00000000000000 0.00000000000000

0.00000000000000 9.22921404203221 0.00000000000000

0.00000000000000 0.00000000000000 13.50788765376587

PRIMCOORD
 96 1
Ni 5.3339504313559365 1.0851525305618357 5.362847100572875 1.0456563428410637 -0.4267529882618134 -0.4163839863226635
Ni 8.40221187429435 5.811765301588866 0.3215338198173521 0.7908636191020574 -0.19215396586186265 0.7531583912417996
Ni 2.0172662336068194 7.108193000376233 4.000833837922102 -0.4595484375252796 -0.9255035499078512 -0.14630296896601902
Ni 4.4152190886956735 8.070661588459387 9.676051071673715 -1.1666241754764037 0.2703034177800958 0.11570966956019427
Ni 1.9995738302568133 4.508923299030892 3.9345505454758785 1.8219348650400946 0.39555136584802847 1.2994512214431748
Ni 9.114688741176868 3.0167070532080356 10.56397898949257 -1.1424686612761228 0.11689751922070835 0.20378897899762968
Ni 4.6958887174265245 3.8841147364893818 3.3790653784914375 -1.9416698537095982 0.5945025571373826 -0.11100815031946688
Ni 3.5204560149451467 8.782538556428106 4.543688825467584 2.2139882450371933 -0.4293873405608669 -0.8282204624839609
Ni 5.844538240710343 1.9888402543068617 7.531862840492584 1.20949706358053 1.7099347831210037 -0.40550307774410166
Ni 4.3313809081889145 6.284374895092842 3.9174764994677864 -0.39585269913853116 0.9295039293164961 -0.4883890159060557
Ni 0.8210964100575607 5.329954181668638 9.845683103146214 0.3731017785952606 -0.15367226484689664 -1.019106103156361
Ni 4.012382353473413 2.005083671049695 11.529184962465454 -0.2216925987509279 -0.7175372996040803 -2.038597871786915
Ni 7.528463720954865 5.589433534921339 9.297465942232785 0.9168376467027372 0.4336939383560208 -1.3448849282959419
Ni 0.9955368620545008 2.4814218670332755 5.149382762772684 0.2564022343179713 0.7561830370007364 0.25063087905183284
Ni 7.252057989119008 1.6710784142751893 9.851464282832413 0.7930012342703504 -0.0019890054055707682 0.09564760870299656
Ni 5.685943426330319 6.183748774213803 10.537597281106553 -1.9245751030108402 -0.32492984687572424 -0.07002862258331165
Ni 5.694637345973358 6.813614946059332 8.100504252117315 0.14488731956541498 -0.3421683222411978 -1.0428247869295395
Ni 3.4642777889714966 2.0488301456866433 4.3466081884639145 -0.9908463369797195 0.4997982861842618 0.8404105767922493
Ni 0.7538975795767414 2.3132102116043685 8.197963829652906 -0.5162410051213173 -2.400259269755718 0.8298914224284805
Ni 7.514139980736185 0.14532228164259986 7.956726940908094 0.3664220525822399 1.8630437192652622 0.25018145021924004
Ni 1.0660203698187145 3.0650865933023144 2.4960547859229134 0.6559982025490185 -1.3278459705357841 -0.03625229746381499
Ni 4.766593726328141 5.669875364654596 1.6710876434892477 -1.3521084426275745 0.7805802348981783 -0.8589654569763013
Ni 4.3569919772010515 2.4394381722814873 9.206868285349634 -0.32165143323476864 -0.8912009199712393 1.0819549201617815
Ni 1.4317556645260954 1.1582940519748768 12.064191426375649 -0.33086600985450115 0.3840785893217385 0.9348806202473771
P 6.38289675516656 7.090325241959118 -0.5041485867058416 0.8812422660966307 -1.4492514049291751 0.3865260224209666
Ni 1.6163584041227703 0.04134318729613362 2.9188921509311934 -0.1342187841079753 1.1522519659151316 0.5603922457172349
P 1.2603322426048558 6.084451660159177 7.6169764983822175 -0.7677694562867551 0.7291800260493314 1.8942180879855375
Ni 6.245021526347705 2.1450262438176373 3.0999924037926947 -0.0006720863663601328 -1.0513888744494666 -0.6033453522399932
P 3.9288395078165235 4.455347711421718 10.176882678846958 0.5000055170990614 0.07486229652652913 -0.12434780485116649
P 4.201636616955535 3.489888857983634 6.306265667918027 -1.1158312611942525 -1.5693216654509101 0.4834612395871351
P 3.08384035626904 3.914451163099434 1.5811249565333159 -0.13816105658517494 0.9560400279338116 1.6327132423336783
Ni 1.341161699328567 5.604338715625699 2.0072589968032664 -0.9578562552069438 -0.131340948339548 0.3494869673897981
Ni 8.019550201003813 8.578739051589901 13.485045543255929 -0.585769805250075 -1.310620093575801 -0.22793883677095583
Ni 4.219292103449307 7.145774360022153 13.361664795115837 -0.03734861585178729 1.1358203027216698 -0.746509004246082
Ni 8.078423357482524 2.500406360351462 6.333214050047231 -0.9678645313725655 -0.26445775763259616 0.354741273810202
Ni 8.157333137682084 3.2342488577792396 3.9177875239815556 -0.6398735290730141 0.738434968988696 -0.14360536752919784
Ni 5.141687444090767 3.365995888463298 0.9940509585910937 0.20750936527201033 -1.2521298106493919 -0.7119132685490837
Ni 2.534268346731834 5.225377957172591 13.558947551907385 1.1964237753363396 2.4926117526472105 -1.7275298704949473
Ni 2.1627832516660526 1.0287804910929579 9.973400658972363 1.2232900035995642 1.2082508498782545 -0.7304144126770646
Ni 0.6062809153192164 7.270682543088915 5.885413506853715 0.8512616605741404 -0.14075658522649306 2.1492514669804406
Ni 5.278067540232157 4.374527483912065 8.183281073007352 0.1506501901911212 0.5492061471934283 0.24939135021777695
Ni 5.093750906271293 9.143908432885851 7.42655566224311 0.29265581733336693 -1.897359976048629 0.655650846511929
Ni 9.120623125816437 0.11288528591284917 10.133712107167257 -0.05213374458076183 2.081358402682893 -0.5415982529391834
Ni 7.2157410317990935 4.946729526320536 6.697021361937806 0.13548016731890217 0.2672759438076816 0.7367385551228796
Ni 7.547097504138831 7.679979728152076 6.64692057342163 -1.2680773351175838 -1.8678375411094799 -2.307990604827283
Ni 6.958633586559409 1.3074566095871885 0.8543668038167875 -0.4412254708463756 0.4810184344735973 -0.28182016017044365
Ni 8.365156579849764 1.3811334254156185 12.209252521260394 -0.7793013681857547 0.4096824059327719 -0.15614155232299562
Ni 3.115985708834544 7.479788846010717 1.8430703557824282 -0.7139531817972479 0.6784722152818187 0.30090365916445594
Ni 8.46919750993042 0.27572276999553347 5.378367869854933 -0.2979497187424546 0.38065516546248634 0.06635503038646635
Ni 6.030968364690587 3.4705721129593443 5.181652709727977 0.4935713314379435 -0.318980828381141 0.5792577151631702
Ni 6.037788753879766 2.2554814776689023 12.421745022820232 0.7957821394495973 0.35821046330572504 -0.609643269433563
Ni 0.483457611708252 7.739222053193124 1.53353728300525 -0.10189590360555353 -0.14290885568280548 -0.24229536260294401
Ni 9.008386653651895 7.508759348940122 8.430353593801309 0.6725936450138545 0.055787539283265214 0.18008597895373502
Ni 7.580184236538295 5.578949147750964 11.68948256683926 0.37014758106294315 -0.6395038044384213 0.6210959913551949
Ni 9.12582840254539 4.959779634999153 5.027257187744537 0.5194019193478022 1.2643479499821386 -0.02926840994681411
Ni 3.0003990319667935 7.926787370502554 6.74893199933084 0.22936039970883082 -0.9556435638263412 0.7262327704955494
P 5.257569455808388 7.556382093481609 5.864300756773655 0.2555072333075277 1.4941418376839624 -0.3577060128654807
Ni 0.95902609123936 3.600417925547366 13.632294884793929 -2.861050321438847 0.3357277088221766 -1.0512060690146992
P 7.702240592461004 3.486658633063184 12.864020958478374 0.4880740557687981 0.5833331707841245 -0.5998278260050379
Ni 9.137789463965113 7.312657008626645 10.84071512719172 -1.3836833892203781 -1.4984648905393485 1.0063593450136539
P 5.47899675949819 0.6559590058315162 9.815790601732372 -1.1574237399240581 -0.179782074560071 -0.0798612924030173
P 4.722745730336549 0.5384185043475961 2.910287754664521 0.6449524862578183 -0.42444079518886907 0.6830976298689719
P 0.7100505065065563 5.525447393854257 12.031840262336642 0.27362528306447714 0.14964128931063259 0.7095177717337136
Ni 2.069881982953917 3.313832370605063 10.737055363651676 1.8735181364340252 0.6682585079736103 0.3294390475999875
Ni 0.214254358523592 4.185494721567345 7.173930846271603 0.8480171854949137 1.4258692785598088 0.727595712281347
Ni 6.393870290682031 3.8085367025649157 10.497655088504489 -0.9323925637182007 0.036274923171634305 0.24850457673744944
Ni 2.8975117536434394 2.763134396952729 13.235717402546094 1.0066825326810276 -0.42456472236124304 0.17507438467175654
Ni 6.565672110379666 4.6182802564092045 2.34051207263201 1.8350914570267105 -1.5520469375308625 0.5773345299985283
Ni 6.755517043561529 5.850592605132672 4.469705599732414 0.34284452237261603 0.18688603259470396 0.10823470133938777
Ni 0.4409423142266981 1.0245258234120227 0.7141713505836443 -1.9820510857401217 1.6356985502142474 1.2385587568331766
Ni 7.918813329556073 9.25117958788696 2.5132774222773455 0.36851133101110084 0.07967925829919825 -0.012610746785475056
Ni 4.880925230083945 5.52854840977789 6.009902683602226 0.39988598866764036 -0.6650873093344805 1.1383677517338717
Ni 3.1539270078287416 8.813354902169197 11.733531759697325 2.03820834965798 0.9770199726195882 -0.6440538857029489
Ni 6.245602966833387 8.25498745163431 3.9517187294673657 -0.6823545810553603 0.36033676562010847 0.6187652863394891
Ni 8.841965465750324 7.571342649470321 3.9886900380640222 -0.8966321182891396 -0.7468100804262686 -1.7839257327861726
Ni 1.6734318638600885 0.26813358727528824 5.587389264007396 -1.8151792914838156 -0.13017700993843387 -0.05965936353384564
Ni 4.528212356413007 0.8986836438825466 -0.03794499067982047 -1.2105334752648442 -0.7444824607343565 1.5870177971790926
Ni 5.0377572645788105 5.08982849029646 12.665144316418935 0.5619423638131742 -0.9250669765910648 -0.24881336622711986
Ni 3.377006340835002 6.425960267963184 11.197822952597281 -0.8945469536253368 -0.7794093545185287 0.11619689360925796
Ni 2.7308598353904068 3.4998287215245605 8.045000681691334 -0.06804090272932152 1.2117920302622938 -0.2535375111756666
Ni 1.4682756645552946 7.774985257669532 12.574749702245068 -1.3723224556816043 -1.749805394063696 0.9155135285746747
Ni 3.3421752869784953 6.096357346294549 8.688584234391904 -0.5527149316776352 -0.5838499625195429 -0.21976838514502153
Ni 8.275743954051713 3.1719978089551435 1.4030371191404853 -1.1462270998772905 0.2986768267164663 0.10275002407573272
Ni 7.065803220205875 6.826554304169248 2.159168168519366 0.3466718665385062 1.119446746459653 -0.5089354725988396
Ni 5.741198730898126 8.53747523553467 1.3365240192642072 -0.49470390238049 0.0019743501175514384 0.2698028239945934
Ni 3.25755262327677 1.8239695743671058 1.969355537586709 -0.23844642117049902 -1.0890467940115567 -0.34315434030355096
Ni 2.5546187637306677 5.284278801293478 6.315329679044809 0.3679253766006437 -0.6756103203529913 -2.1239073317886965
Ni 6.809360278378397 8.048991393850198 9.825353913339715 1.5981812699950797 0.747740562660338 0.15294721375541404
P 9.134503863760312 1.4331861927051517 3.597676848972013 0.6029638005308583 -1.023924864701243 -0.22635503722360373
Ni 1.8694880581032722 7.935979667704748 9.761637265323142 0.7541665207913398 -0.7419794918068447 -0.4552097009406096
P 7.909888679561573 3.5411202252219676 8.76957704820445 0.05929555243652368 -0.41178453987743924 -1.0378851835360772
Ni 3.2735653096681423 1.2559483659271025 6.90954155113982 0.1215401601990423 1.3128654379665519 0.14771553304282944
P 8.49731892516645 5.43672695911059 2.9510144304615515 1.1476885149141653 -0.07733826887084745 -0.08044750392379048
P 2.108312430293211 9.193626209018602 0.5877052761838185 2.672756352753023 -1.216875358322472 0.1374851135640729
P 1.7264075525554645 0.20663379647554808 8.107406781311612 -0.6177697551954393 -0.4144145213011185 -1.1668761435862098
Ni 5.596706155599379 8.718201705226805 11.891061522775006 0.3541023546746224 0.8069628386567651 -0.32791618319755783
