# total energy = -340893.04954252316 ev
CRYSTAL
PRIMVEC
9.06812856672557 0.00000000000000 0.00000000000000

0.00000000000000 9.06812856672557 0.00000000000000

0.00000000000000 0.00000000000000 13.27212277788510

PRIMCOORD
 96 1
Ni 6.21690925185683 2.0191638522151423 11.27334110935485 0.175393201463756 0.21703067449888427 1.722682569704975
Ni 4.5980941951984695 0.34741813077015143 6.160056621587894 0.28612881484812663 -1.4989348881972313 -1.0928875079138853
Ni 2.9345007210797043 1.7185463315124567 4.976488145369794 -0.2588177857379994 -0.8973191170538353 -1.7743967102498153
Ni 3.681968399173305 4.294656486599837 4.8052383563750105 -2.1541203650369676 -0.6413699111128824 0.5284421751731995
Ni 5.017322833840014 4.540139787343175 2.5883031603764155 0.08260491658642548 0.30610422952878896 -0.7808062348660553
Ni 7.468029842904727 6.000589051670936 2.428413922494308 -0.8097288314376764 -0.37046819762715555 0.24807057452382436
Ni 4.922180031897009 4.484806068561606 11.422572576066198 0.8372571187649324 0.419074131560317 -0.2645526313392476
Ni 5.733686831923655 7.763197418509457 12.58262195477006 -0.26800382311264165 0.437781221051517 -0.047223451763338024
Ni 1.9645646518244795 6.570874571247154 0.3670606034434973 0.3871672555493913 0.05902147283953061 0.39715342022782574
Ni 2.6260302012841246 1.5672808836272798 0.44833370317797944 -0.41996579013665086 -0.20590756800252924 0.20484750216913106
Ni 0.4973142912846274 0.01394224723478565 4.7256718783833485 0.10761172304340823 -0.8052473986275552 0.126750243645072
Ni 8.75281132613833 2.279473542700838 1.4915611056531768 -0.40723060195816957 0.3651961505949388 -0.028890714892421215
Ni 6.790667864565355 0.6033932559366746 4.7187039286108545 -0.05617551875030326 0.7151919393003554 -0.3240641564413193
Ni 0.6977153922700878 7.284481858332827 2.3197278709609597 0.21593435611091197 -0.2379795088364095 0.9954193010623823
Ni 7.540719959219551 3.6488787990694136 3.7786527829243846 0.7231908983454319 -0.004201953896489538 0.23067320498298338
Ni 7.454627149302768 3.9927150191678646 12.677358504565998 1.5384432307044988 -0.9328869868561159 0.2543746623649813
Ni 7.949873907338919 8.945128190759686 6.887063881837043 1.021841499809653 -0.08912986218913681 0.17849575164847967
Ni 6.832481004077288 0.8733305782202054 0.21257959726924397 -0.14274044842574127 -0.2541815725175687 0.15975369515428614
Ni 1.9358640258094573 6.317556407667488 9.244577736539549 0.44790725374192536 0.7597455575410141 0.026270760771070885
Ni 0.37281070358761276 4.814604826078302 1.559063345777418 -0.6879883823023699 -0.85817124320978 -0.20851518082870538
Ni 6.392722123003512 1.919323759821653 6.9977530829080585 0.7525865778987296 0.4855849707983572 -0.33645918767156247
Ni 3.422792224722958 4.552681008758269 0.6043236458984885 -0.5798662952814465 -0.9990301583420924 0.20223089048189044
Ni 5.736987630618589 5.271203221373213 4.631665312914177 2.323670734566701 1.390083379209451 1.184775906684766
Ni 5.426612803883624 2.914995177143428 9.242135689592995 -0.356004971013974 0.7821735475272272 -0.23014715727618432
P 0.3373797127611058 5.46046412676327 12.749360349944157 0.04521439175310923 -0.7202405574678563 -1.5686732332336337
P 4.030583522876785 6.174969158548938 12.642532357895952 -0.6122290278828681 0.5158589391915503 -0.5312336218754077
P 2.438229264547597 8.499629184482906 1.4160562423193757 -0.7848068713850161 0.2777300492614701 0.1896455976177121
P 6.470934729442554 7.8738285835594635 5.782331899283839 -2.125282614869669 -1.2101174707733484 1.2252900647487286
P 4.502915120742332 1.2342357361853467 12.722418034003168 2.133713262135525 -1.192271700841179 -0.2935513325644428
P 4.0735483146806315 6.252465382853639 8.26229450381448 0.10647709521833275 0.23819573861227364 -0.06802599033098607
P 4.737507599418043 0.849895814298998 3.7028024239030093 -0.5424284621499625 0.04423274456613027 0.7392129848053011
P 0.1402458583959336 5.499529623405518 3.8547815334840414 0.21450559408418543 0.582324784124268 -1.1844527190173924
Ni 1.5284874308335155 1.213016316003624 2.782181556688067 -0.08088407724057683 -0.26040107106471927 -0.5416591880841058
Ni 1.7628350700455906 6.543833412707882 5.040181771615265 0.014551415451613649 -0.5883123691662707 -0.983199619067739
Ni 5.977265825727607 5.695482807468271 9.346719319891209 0.45781088600888253 -0.001836024767474257 -0.2471676030935808
Ni 8.639632017040862 2.1985223615203946 10.341424981550869 -0.40610420166321026 1.055992177549433 -0.21582945510193152
Ni 2.63867117211033 5.14945453104851 6.90933429808674 -0.8896798553410226 0.0799160569003527 0.7131885357170813
Ni 0.7833257777622272 9.520718565381333 9.160339358856595 -0.8311952288415685 -1.261903602206704 -1.114806419474164
Ni 1.51135773650733 1.1036365526566423 11.304357735333296 0.23376418520348127 -0.14086919954495739 1.206242304088658
Ni 4.236484443665756 6.937471793335401 1.5296780760770456 -0.6479663333834775 -0.7776365788888221 0.18744550464259976
Ni 5.775137246304276 8.23131233672351 8.117283344005942 -0.9395001212972595 -2.690552243283863 -1.1416795897159242
Ni 5.303712461267006 2.6748802083435006 4.7330914209443256 1.027153913161502 0.14326392502937907 0.6655251682028475
Ni 0.9536497108593384 7.45369313208964 7.254913412441142 -0.42668228292487803 0.05669153915477333 -0.37969177310795255
Ni 5.059435221585279 4.460576029789998 7.238588967906469 0.7503114087113077 0.5348357374043692 -0.46057687878979386
Ni 8.085288266985783 7.644921821317061 8.99609651258592 0.4817200885263124 -1.0828080121906964 0.3495193632896303
Ni 4.239132337124329 0.4774179110193635 10.51709548308351 0.8163517360708328 -0.40164693722280503 -0.03168524691842285
Ni 7.942918652946021 7.318541748162976 4.422257746918252 0.6105089598679678 -0.6986957414175452 0.08274838414282525
Ni 7.130894969607256 6.122310537610792 7.0729133573671135 0.07121415825098057 0.09292532467582706 -0.25928624073398576
Ni 2.282547638188703 5.230360371587539 2.8648801661886036 0.6923877969216463 0.41691594756673356 -0.4542182835616177
Ni 2.252849518062574 5.227839431924924 11.50727524191723 1.0769656944773065 -0.15390520679330913 -0.27897986250817114
Ni 1.1657260270088876 3.4036040652765798 4.012746514544541 -0.2874986986124597 0.23711099018852716 -0.6997920598055174
Ni 3.7539058608406575 2.5737796461187035 2.763149369048153 -0.4059309093101396 0.12633398204325982 -0.7103654644459895
Ni 1.3088392275678387 3.364647386173725 8.201826410799198 -2.0350813739932243 1.2991321475408595 0.09892936477806188
Ni 3.915944245125786 2.4367965002789167 6.945288519915164 -0.5129024276663876 1.4040740370615883 0.3285880124536018
Ni 4.139110882165184 6.815578012958172 5.930700986995494 0.9084633065961129 1.131156064476781 0.7646836182725798
Ni 0.8294245147006054 7.212381170356385 11.455633158159584 -0.19993001026285567 0.8886197895076244 -0.44432982080331224
P 0.05162032024976736 5.628451203201907 8.241708945799726 -0.29438282732680265 0.7606086768722577 -0.7744859490749822
P 8.547182449197843 1.7246310455902072 7.847527384288067 -0.2192492794167579 0.07105912073035504 0.9157174170553649
P 1.856318404512846 3.197848234540133 10.412086557568832 -1.102086400804334 0.389677937786387 -0.744787136458969
P 3.95092908404078 6.218614059973994 3.862532969540168 -1.1205217246913863 -0.1579914610475408 -1.2504593649255045
P 7.0662845555923965 4.006471369772853 10.534919796036156 -1.061764818367152 0.31271093621202917 -0.9389349928224087
P 6.322389720042214 8.060532276773774 10.356714752648475 -0.5851596824699019 -1.9076814125792951 0.5589372584382633
P 2.3630182085701583 8.453680978474022 5.707025627959431 0.6273795103710615 1.1931363628343195 1.9155384467298686
P 6.955109302845423 3.864591434660361 1.6623330042874578 -0.07829677612937484 0.47365248102682944 -0.5076812884767644
Ni 5.232364427938035 3.0224887698075906 0.53710977225364 0.08077429113558993 -0.6312834734111579 -0.5602058407380417
Ni 1.399647464191672 1.1716656510341135 6.691193217741663 0.21801952077471484 -0.8269050861066469 1.8551234359769213
Ni 6.818860675396542 0.7655032784352369 9.334204396048134 1.0226071743310838 1.761325993108786 -0.25493027775813515
Ni 2.7577629008481774 1.7805451245818744 8.917287223305872 0.8976621022155509 -0.5919332537483096 1.3093761938663708
Ni 6.287559039308027 1.8086472541302325 2.506413427918704 1.014293769369382 0.22039753408858817 -0.16016635721167255
Ni 4.281135907330201 6.903974127458785 10.592507851508826 -0.43895955763033434 0.5934710305490747 -0.4794258931754969
Ni 8.052370961319266 6.902677385114346 0.154984287293948 -0.02076680023370617 1.7626681089589773 2.027221511629173
Ni 7.628100443352491 3.7867687577374793 8.209470842941586 0.5855931704628947 0.3264210867092701 0.2565094493197969
Ni 3.1019890504627874 8.444159443777096 12.536700953146026 0.5755653539132475 -0.09224089701429275 -0.44999498950888955
Ni 0.1325379493555643 4.790465468589522 10.247206221879878 -0.167593245803363 -0.3676721229392571 0.45999529525471095
Ni 8.80004720636337 2.571984156718712 5.762450028023828 -1.8046254272273696 -0.9358031320616463 0.19701926437396391
Ni 3.5254343687558287 2.635062057053781 11.530461539123488 0.5925595744783988 0.8432740143829737 -0.16894847427967677
Ni 1.2647046472155123 3.3427025157293793 12.60176114632371 -1.2504385389898982 -0.03957210586566733 0.905092590351667
Ni 3.0876251352628525 8.539891674058483 8.050816684131595 0.2620154667396907 -0.66997729043693 0.0869685928717599
Ni 5.415649436789734 7.793974645901238 3.4878741814085235 0.6656377825213117 0.18003507111114156 1.7941746642076906
Ni 2.885632577763763 8.384745067268272 3.571408872336733 1.0754993943444253 -0.32937399869000694 0.10535120914400567
Ni 3.432159601239077 4.362032679740947 9.266144466034502 0.33726368585072886 -0.30061286739691456 0.3712891508665541
Ni 7.459016123391636 6.262948139148542 11.393984394841883 -0.6271869347442811 -0.6779124861236068 -1.7643820063262903
Ni 0.578991829540522 8.995800891603903 0.4101296787225961 -0.7328104237130669 0.12675204341728494 -0.5888134771724053
Ni 4.541699505407815 0.27292164330139623 1.468945193715905 0.09340714940825204 0.2688972814611885 0.09809247069906332
Ni 5.875340063829077 5.46931461996727 0.25288561386057745 0.3202440113642807 0.3930553388990521 1.2099374935520582
Ni 8.051010742076846 8.838904136055113 11.31198947209609 0.665772251216647 0.732798596638525 0.933140754738135
Ni 9.101136269736761 4.905666970294052 5.952931503480747 0.37967917470246226 0.5539565173942201 0.8468334495994577
Ni 7.933324573222833 8.764726846701913 2.4367221416269977 0.33660445500017516 0.9202782969531699 0.11252381563304492
P 8.521102512256546 1.509616655877035 3.6746522332747524 -0.15586104496809933 1.1777673365774168 -0.6636366929308829
P 1.900815709996484 3.1684947032887507 1.7280705866478685 -0.3074309187600125 0.6802159374458028 0.13357266588354416
P 4.805282790203596 1.0271196862064822 8.35656585862951 -0.5849953889778958 0.6189861441010437 -0.2977607426601001
P 8.685416996740654 1.7330553367649169 12.56915125020598 -0.26168096621840736 -1.0709351720125104 -0.2925115784460188
P 6.2858632993191454 7.833393799546514 1.540587941214067 0.5432504438306257 -0.47289657669741136 -2.1104206101561718
P 1.8451646067250174 3.2725877478468672 6.122230738081903 0.9816453872067418 0.22014736575099506 -0.9360473868619685
P 6.941470837908111 4.089109222813894 6.018589286312269 -0.3999548942323628 -0.8247803264541601 0.16094540146954217
P 2.397622186097275 8.399399162573257 10.226117382745427 -0.7338146966078652 -0.7699939747418997 0.3764208156661646
