# total energy = -340870.8569896985 ev
CRYSTAL
PRIMVEC
9.28261026385555 0.00000000000000 0.00000000000000
0.00000000000000 9.28261026385555 0.00000000000000
0.00000000000000 0.00000000000000 13.58603842177770
PRIMCOORD
 96 1
Ni 4.692832846702759 8.661055862060186 5.882238748969218 0.2947111572004989 0.6027470565343619 1.1655947057706249
Ni 8.677745995119702 1.9951670963738657 6.796130283994527 0.12282416911778847 0.6720537133499844 0.7759807884529539
Ni 5.982697940854649 9.280410176852762 12.321341281164457 0.030818013822121116 0.9146604365457603 1.8692727308941097
Ni 8.435581261384073 7.510225702816771 3.668801285660891 0.3920186701044216 -1.529278276375779 0.632897097755181
Ni 1.1276050686344556 0.34669620669626083 7.986457949449424 -0.9357154574438465 -0.004755255296798262 -1.855079213002547
Ni 2.6595420704204207 4.664093885661456 8.77639043671974 1.1396749005810694 -0.30546119662815135 -0.878641338138674
Ni 0.01827745939609996 2.424543511724805 3.2227848633452747 0.047778295825543514 -0.5832796918383697 -1.2255587450290828
Ni 7.136841991923563 8.545023235116942 10.49176388257079 0.5480401519097852 2.152257086575984 1.434667079357097
Ni 5.374315671265826 2.320216256187595 6.087428061672607 0.15597905860320233 -0.434258295499923 -0.9584326965357042
Ni 1.870817250731329 8.460189460906197 5.475839578536087 0.7393327982126171 0.5923448873644315 1.5197950194756922
Ni 8.821997756935545 9.026725723914208 5.450310544086543 -0.5660941811980186 1.1429815963567993 0.3024355224279501
Ni 7.784452572029358 4.9280913184827275 13.358771361704717 -0.40939495659934005 -1.289669459466063 -0.060569791163256975
Ni 0.763471478761164 1.3141391197084165 10.325185586809038 -0.9436051446045685 0.09486470779038501 0.7689981864875337
Ni 7.790458420799941 1.4822657548441007 11.693951010760303 -0.13636102726195873 1.859119701620508 -0.6446146433024253
Ni 9.044863944157974 4.550669672171895 7.932153751778969 1.1662135703015464 -0.06611360379962163 -1.511124488284888
Ni 3.5298331855455363 1.1072483045635326 7.406863838735728 -0.4959472878692877 -1.121608787107978 -1.5933493958240752
Ni 1.0511720566144012 6.35425297754723 9.155685313759946 0.23077990576417676 0.06287349959576913 0.5491009890741319
Ni 5.138258895012489 2.5804263840654382 11.241644691803344 1.3291019544300722 -0.7742548069007826 1.1415327797254147
Ni 1.6056037959796927 2.7428442139555154 7.690118974585515 0.6325926791408848 0.4458585987430128 0.5430961776409485
Ni 0.5632418646638381 3.7633558092264336 12.263641504699137 -0.541745577150325 -0.21137244777184244 0.923321711765184
Ni 4.880536506656308 4.483983400815074 10.116639682273435 0.24935586899415116 1.2637416838567075 -0.9397459187594783
Ni 4.175308765315576 8.246197448992387 11.44288146910254 0.05879804397481486 0.2724616017736791 -1.0571291193673535
Ni 1.7017252241394767 6.802148200158312 3.8268748539982123 -0.869669987877999 -0.5280361979840326 -0.7809103645440874
Ni 4.923152969880023 4.599811810334899 12.635695017557067 0.708177198545419 0.3123738645875846 -0.2062068444105029
P 8.14347608501207 2.60156288738942 9.411293123522713 0.3820530742512775 0.381464291627343 0.08112318983457642
P 5.557526547904132 7.152455342205047 9.723160976915688 -1.5979562984684672 -0.526173433743681 -2.069634943598378
P 3.9437819028181016 3.3282798712400417 7.555046785952408 -0.25415740414785265 0.5725245102043947 -0.5517463971167789
P 1.6967497450961506 5.32945281638449 11.170644791507282 0.09406226649374769 0.6037973521757473 0.41236946584663176
P 1.4279253549940403 1.3642002362768102 5.983427554012867 -0.5279091854878649 -0.4503464593110373 -0.11396157652083601
P 6.3952357013835845 2.991646013952299 13.030940203627397 1.7931212832425116 -0.23409688595255168 0.16671058608809353
P 7.747712001034049 0.8995062740673934 2.60758173181422 -0.46234194111001664 -0.1779110827896033 0.730201011114678
P 3.0272169760680203 8.196767549914563 7.623655485872425 0.08919773931259477 -0.22209600483693365 -0.6909500360338552
Ni 2.7944369611995596 2.415084531976392 4.61630515205912 -1.0676233340304582 -1.8854704236998947 1.400098083132976
Ni 8.083315488594536 1.0896577583189369 0.46625808202061164 -0.013040892344358186 1.406602974131029 -0.08824540270165447
Ni 1.573337443079315 8.990523544307914 0.5647159431565251 -0.8375252848246544 -0.7481336843336985 0.8567080284006923
Ni 3.0745211574202425 9.203151012528872 3.5336743296278654 -0.9958872418377364 1.8840583738437164 0.16987895651374615
Ni 6.360416630690455 8.76515105234351 3.979214554042507 0.9430734404708144 1.1758469796262523 0.718330484929337
Ni 3.720822889494118 2.809057072194409 2.4339523653783792 1.0228498864695095 -0.3112623766909607 -1.547289111130903
Ni 0.6406012811774073 3.515120248449133 5.479656587832013 0.5153470325521382 0.48551940766774443 -0.3202920909933968
Ni 8.61335252847128 4.614719682244567 3.292617011283782 -1.1842331468074185 1.1765874573367028 1.0065781458926795
Ni 4.16176543709876 5.518279672166849 2.6973176524480635 -0.41949296426529037 -0.655911042151851 -0.6921980495083434
Ni 9.030308811434214 8.79046473023745 12.378551864074586 0.12843663020855944 -0.562017954246116 -1.092394370327551
Ni 7.358083722368788 4.1882023108215085 11.232691614308404 -0.5141563546781468 -1.690438879179921 -0.6781276874582063
Ni 2.80786889809451 0.7217350069801864 12.458696063634795 0.045807288142101756 0.6207900300790018 -1.4736933400216232
Ni 5.727147683274846 4.577700632944594 7.2534232211269964 -0.38531631838358155 0.34011941013196906 -1.5214484959187153
Ni 1.6685770232743304 4.129684736401491 3.3258079121556428 1.3114215064311736 0.5448622684024358 0.29112061163576314
Ni 1.8769066429933103 7.679512664221887 11.142670717542789 -2.894473119873667 1.1819772608937065 0.7404077764443507
Ni 2.9310491348574588 6.461866277079474 12.846931022515722 0.49524100583088265 -0.9498323564612029 0.5284048941773609
Ni 2.5398892255165464 9.256052607804836 9.553485074145058 2.7177838253063062 -0.5832886906994342 1.1654640937300316
Ni 3.700085538406821 2.2320871553716617 9.332195074127025 -1.3338651801466705 0.5462264957398141 2.5195666839694995
Ni 5.290929984239333 0.708265011383599 1.9849747904231712 0.1663172073044168 -0.5469507755003483 0.32572483197319385
Ni 0.1916218497001682 7.41681479682238 7.2687748018020955 -1.4011956870725286 0.9633306480579538 -0.255519831713018
Ni 3.4382695189720827 6.437740773285435 10.199867564927287 1.0141366749662277 -1.2684558015029253 -0.3556797264640713
Ni 5.933862128826775 2.6884759662749884 8.470446745127978 1.5156640280264542 -1.598231406506725 1.3455469873599728
Ni 3.2855056036436836 7.681099990558471 1.8646025432322488 -0.17090328401320243 -0.9585193427122397 -0.3150575820673348
Ni 2.0239803182964127 6.244142655883169 6.885023343626256 1.1362136815053463 -1.0588921248050474 -1.180756501112728
P 0.5004932765349622 7.338330327957969 1.8588965227696879 1.1082876445190397 -0.02751311781860423 -0.14071133381085443
P 4.812829148182385 1.143608288542468 4.064956167526456 -0.4760914294856252 0.6021379621954533 0.8687839857286198
P 3.807633859667976 4.341337530556126 0.8244832905299533 -0.20928265512234925 -0.4200125842141863 -0.04451608013450398
P 0.13517801038888053 5.880394294331328 5.609294736480115 -0.5078206422681061 0.18906247142073246 -0.10996556798756545
P 5.44034287730161 6.375491589582922 6.081232847654852 -1.2643266098258998 -0.01645968821792004 -1.3732704214171705
P 3.0478058053928296 5.316503575217624 4.837350091169048 -0.7514406372197445 0.54631442746793 0.0382911822707147
P 1.9548063074179276 1.6250879946960024 2.745751527456205 -0.23945300805814243 -0.03165465079080355 -0.7539703456201338
P 0.07370392463434926 8.333416854013084 9.845476074412149 0.1152620404998144 -0.008431675707120962 -0.14268799792125106
Ni 6.161425316787868 6.4832719760979645 11.515444560948781 0.295667093355865 -1.2632094655023212 1.9933297439777347
Ni 4.0961559485199714 7.338961545448542 4.100388818750861 0.7468759006671977 -1.699362664032112 1.7664350322005773
Ni 7.233845268048117 7.246822357045449 6.421998394722791 0.9804973896452275 0.8341098313852021 -0.8202014488342262
Ni 4.252308016555113 6.284540575279729 7.882157613481664 0.06857106420117869 1.3670164700876584 1.030522829633735
Ni 1.9137214748698634 5.390383869444927 1.352297145274464 0.4228030024751299 1.6746265947380126 -0.5488176535057581
Ni 7.603098217422144 2.020657143860758 4.690103759317053 -0.8761468538515943 -1.4455868115933943 0.2397682253057161
Ni 5.68764089445321 8.914990945472939 8.341609685736293 -0.647015282324118 0.5047959965091693 -0.3944069678309401
Ni 0.44077360409981287 0.034593503266351314 2.97348087413908 0.5992333869541486 -0.43668438844291246 0.032688491371956604
Ni 8.081356857851734 0.3177818043230197 8.238981147857531 -0.4843791234157142 -0.21109399729947517 1.2715238989052875
Ni 3.047146740071792 3.3654567249126575 12.00698754477185 -1.142606729515884 0.19628212909762327 -0.4328655289174545
Ni 4.6162327476999065 1.971858462273507 0.14827020375214076 -0.2338963399059714 0.6760582065236873 -0.47558826459696163
Ni 0.8806783558890746 3.800514097678738 9.852717438594423 -1.2174381728044774 -0.7650705692983534 0.6215665032337101
Ni 6.173204949075147 4.648879687616659 1.5624619370211785 -0.5670498602430686 -1.8976798212818928 0.9089268764960928
Ni 2.1002369607235134 2.353197370069943 0.6060161322601959 -0.3838443618237454 0.829520669352623 0.27287143561758814
Ni 5.323595489376395 6.536210701814549 0.40546998115656885 0.11664323711805719 1.717241601195062 0.11199982480877485
Ni 0.31756273472335084 6.4077022468223666 13.046590684349503 1.400504317432459 -0.08040945159700345 0.5051528656279558
Ni 4.425298739412258 3.817232078568721 4.309246618987687 3.088465938716481 1.0305698808215864 1.162969866553268
Ni 7.74460232663197 4.385494907065647 5.814049623028227 -0.6078473538754048 0.48444802898043665 -0.27091688299437855
Ni 8.605601548991471 6.175395645071835 10.752737969264428 0.15805856684005037 0.3568876307292434 0.6692933769960281
Ni 7.154711016472824 4.900252770626505 8.977885270581256 -0.7818935543929632 -0.054400943348383725 1.0858637682978847
Ni 7.875951260331724 6.2182998692103695 1.6312080195714969 0.2386053153458665 1.1597554733810285 0.3269959853761336
Ni 7.502354049404941 7.268757164842801 8.80259802997165 1.2164022753407955 -2.1988606453671355 -1.8576348895448653
Ni 6.456241015325266 6.069443932757419 4.091856243495962 -0.29604247441741277 -0.7058084412029264 -0.12883335142634586
Ni 7.047283369143689 8.497728336374875 1.1807953530862547 -0.7184808944642722 -1.084544278155513 0.488283600676443
P 6.646636632223897 3.6837667097535225 3.924204878000238 -0.5346709296917308 1.8831564308547375 -0.711460240172065
P 5.5611931789155395 7.457741824997802 2.5316091372578766 -0.1447757336882152 -1.153686384368813 -1.5253313759128893
P 0.2715107774811002 4.0828818159976645 1.4151487703760657 -1.0300623450575486 -0.2608307024029701 -0.8302290082735574
P 7.578647822272663 7.255464467100182 13.01837247773792 -0.6383450082436297 -0.14037323374514535 -0.09118725893879778
P 3.8094996643092234 8.374594512662703 -0.006816220637153989 0.3399558879709113 1.1599879011068088 -1.022733158385987
P 0.609724535017302 1.511598802935353 12.824038249350327 0.521682744962179 -5.682137986441827e-05 -1.1875156742134323
P 5.216158559437106 0.8334772115095781 10.13901541405317 0.021085359915389495 -1.7488170620084975 0.2886207280320449
P 6.829624726218472 0.5972403526192244 6.446425583346882 0.05599631285996162 -0.5573529446702788 -0.2476147179333284
