# total energy = -340871.49982558045 ev
CRYSTAL
PRIMVEC
9.20998353321982 0.00000000000000 0.00000000000000
0.00000000000000 9.20998353321982 0.00000000000000
0.00000000000000 0.00000000000000 13.47974186027080
PRIMCOORD
 96 1
Ni 0.569320639321426 7.465308476385416 10.669768334369703 -1.5464247062480787 1.6086569727154232 0.10106903682888399
Ni 6.429314302831977 4.267832548684058 4.483873888293387 1.1252453554193007 0.9334356602707344 0.4112749472308724
Ni 8.470034756874703 8.232021160274758 5.650303528336284 -0.26030002671048075 -0.6336213775157152 -0.18983251681753757
Ni 2.5985967682031776 5.150600231248319 7.592248754239279 -0.7860713399197365 2.0324069124848547 -0.7468738437846686
Ni 3.526668358273345 1.2496381545281294 5.037891219480677 0.11752178306826859 1.4265089690263368 -0.9542610816565178
Ni 0.7879914291427779 6.271832799590771 4.11884264998045 -0.06752539654548372 -0.26353010361200424 0.32163009307852997
Ni 0.24483358918138992 5.672566820796952 8.809847219108626 2.121447814504611 1.3962434852735761 -0.0881459010093127
Ni 5.385012724405531 1.533664827342653 6.584503441247361 0.2577482068229045 -1.4304031618744204 0.020503005049358237
Ni 8.733670526819116 3.3820992515198975 7.9736848146806 -0.3720393987690173 0.4435338072645781 -0.21943928394037693
Ni 3.3323929720302905 4.19277118536364 10.078492937025796 -0.7770074299452554 -0.6193224443945399 0.26443153238035105
Ni 6.393690087700274 7.364974919083252 12.048529532777087 -0.0032077083040202817 0.476393019886444 -0.36093994642174615
Ni 2.703876086499582 6.750586147826595 9.750058488073597 1.1562531166547247 -0.8296741642113519 -1.2685167366478474
Ni 0.8329158853396286 1.2903370704192862 8.677004263002978 -0.34113371032909634 0.7605958213564513 -1.3109787624668003
Ni 2.5925181792717082 5.081939806272403 0.049354458130239906 -0.08493099361644083 0.07222383046241755 0.19106150412863224
Ni 7.169327245339002 1.6070776036649905 3.992119727730803 0.10952616645730168 -0.4659972784744168 1.954312225063957
Ni 1.8303736470641967 4.079516021590488 2.862342136948021 -0.27247805683391135 0.9206835028113887 -0.027268348797649812
Ni 8.25699863479316 1.1535227695450767 6.713221245864517 -1.1461713069386905 0.48969796452546627 -0.030674546265721366
Ni 1.4894108579249097 5.477462536063243 11.278634799681953 -0.7108948545868983 -0.7188416202378007 -0.33281747715391713
Ni 0.4965884807597485 1.0624452453885598 10.987216194327434 -0.24643972378862072 0.0037561246083225633 0.23333609652712717
Ni 5.977721195139947 2.110596596804937 8.870573243532329 0.23036415838299681 0.4296035703367311 0.5067351225134112
Ni 0.600136322209007 6.86468863005686 13.225863792963711 1.2017379884604014 -0.4312526759043798 -0.0439308970549953
Ni 4.9709410883904805 5.613678188027535 0.30276069970164765 -0.014845292542948625 1.048864051145084 -0.24915326606504185
Ni -0.0011770358567299878 9.212930424132564 3.574207528709051 -0.3457961488017722 -0.5384825901283371 0.8283436183253863
Ni 6.161791919964717 1.905923139495778 13.956250460999264 0.5791517857129251 -2.0864463587287614 -0.25822746045216816
P 6.215117722863516 9.105201250297112 5.545188147741365 1.0268754626891348 -0.821237089187592 0.3076522907421992
P 8.28199452927802 6.1755240049599 11.75881016932841 1.4367077639362096 1.474452586785151 0.0644938088080115
P 0.7198762351740482 3.151739150983665 1.3124041902371661 0.07871046662802574 -0.02030734409878438 0.3520583276614001
P 3.2350802892274033 6.383724885845957 11.916388377393526 1.330648987202218 1.2586658119956968 0.9723562485953318
P 3.398870630980815 1.2863951975970604 2.291367384638577 0.2672060098016946 -0.4186946367337112 1.1310848449192135
P 6.752999163432724 0.22839837410834876 2.3429138187774377 0.6716220251292045 1.0724387531412305 1.1091775033231608
P 8.576741622571681 2.9212501106822204 5.243754606623088 -0.4090853957787213 0.0907062055373212 0.4413041466031109
P 7.958309668677274 6.076654834991226 4.77657360231513 -1.5232490394625637 0.2648825038748406 -0.32246647293689623
Ni 0.8805922845254537 3.4871667402020234 10.29058319382967 1.1057386528449407 -1.7777360590356934 -0.3042671763200502
Ni 4.634859590362828 5.4146320304716005 6.017302940065366 0.10219209468973367 0.28788899207234286 0.146071055460871
Ni 5.098112536823403 2.4366944730118125 3.1649757388811017 -0.15500255362254595 0.12025563705966387 -1.486969231194923
Ni 5.030649409667322 5.80076978735158 10.808945916940603 -1.0799926542290883 -0.6452070254707856 1.1734753940702825
Ni 1.2004660540658336 2.2488660750294076 6.536865723991099 0.754684598078339 -1.6877986133435963 0.5810145499532767
Ni 3.9536339708096953 3.2901191490068897 6.883578305660563 -1.061013027802792 -0.25996861151299094 1.0156199443799734
Ni 2.1512955126960938 9.080739534839562 9.746635137307193 2.7521108807229506 1.4804712821754051 0.8856391096127456
Ni 1.5629617839956895 0.4578872102310702 1.5106472372554887 0.43688364893791215 -0.6257054651027482 -0.9217553957193287
Ni 2.467354507182815 6.334000186389891 2.31036021205445 0.8963043026360756 -0.6454420242997271 -0.556435317952016
Ni 7.177910949708895 8.843462736897976 10.099615112564331 -0.026045789244458366 1.2759482532252284 0.863205720309894
Ni -0.10045512908079283 5.449593126810779 1.8059616655160864 1.5653320846755427 0.28270667654045506 0.11005169994346853
Ni 7.90874153893611 3.6396011726334634 0.6551853129700462 -0.44886730366234956 -0.3241849982898997 0.0538206453648815
Ni 4.109365577237296 8.124034106908882 5.547398543716445 0.06422718541018616 -1.6740486107473558 1.437560341744492
Ni 3.7072669194205936 1.3998806109509487 13.619930424405966 -0.30243500820731783 -1.6774594362011173 -1.2915643624959303
Ni 6.319752342333856 3.558452010398347 6.894240703245353 2.1864203627212535 1.2815792262587604 -0.33601438682466
Ni 7.654582841734852 7.394502125317026 2.5785125577746086 2.1727796320093677 2.682625789347935 1.9915546543551832
Ni 5.131296106399289 4.841568453965706 8.532123858816373 0.26834218028866685 -2.506507022572064 0.00466809489963067
Ni 3.0107343077400337 9.033391011056707 11.883093367020562 1.5904959855356802 -0.27527901661781623 0.2638509772865327
Ni 9.277308206906762 5.75774995568659 6.4652746823515574 -0.401086950954277 -0.06729785391570992 -0.006466838671266282
Ni 1.5903246441705314 1.9191578853965683 3.4560167349232116 -0.2486285039098234 -0.35054317656845435 0.576374222967788
Ni 7.672680458780818 0.41933606242903276 12.268451959319327 -2.478375040222538 -1.7048979920280445 -0.3095101698865444
Ni 9.149252600083805 1.686025579908257 13.1904118045184 2.013242937961894 1.7916580684334242 1.1983973541229425
Ni 8.11524778290794 4.629619109905242 10.212319519340356 -0.9408604919798957 -0.22305476920577713 -0.6373044827942572
Ni 8.678659296989318 8.698626540630872 0.6824698882874375 -0.16086338327869718 -0.5110185803801135 0.9067455525740578
P 1.2239146713681386 7.911661103619861 8.464967424101834 -1.927165746556152 -1.587072304566112 -1.751087346099913
P 0.8236469582174607 7.558725336282226 2.3114921189933555 -1.8313756987380203 0.8961862890009727 -1.2941380367603776
P 4.803853572640906 3.177066604864788 5.078533033475811 -0.15190154609971904 -0.2755281565141448 -0.8397014665403667
P 2.3877434121470245 3.2114382622772784 8.194698624235537 -2.738278345715232 -1.722588210218956 2.8183787507122493
P 4.012191044182851 0.9579764056163512 9.053155635067212 0.39711022569471605 -0.6073768419968895 0.6127414487429126
P 5.393366179194687 0.1498289281758147 12.664391901350463 -0.20853317855083442 -0.9498758081046287 -0.19868636766374168
P 8.110486221578288 1.808711766508415 9.38609192382199 0.10112662953969681 -0.7398395626457065 -0.21043913732429562
P 7.397053290671598 5.34125609408218 8.10350873828362 0.6519703123365481 -0.5190692185987319 -0.8964935358287462
Ni 5.878492835825323 8.27335556500875 0.9479651538458858 0.023127587156398878 -1.2105226766315667 -0.6340834047537982
Ni 4.562598061944177 3.4574921742365774 12.527532471558429 -0.3723762132831458 0.450331804023018 -0.30919495263897073
Ni 6.441075451416048 7.303286451412067 6.760265840200798 -0.2515860438762506 -1.0322133299622804 -0.5933149645871846
Ni 3.566621265522912 3.2491715635685368 1.3491464973329297 0.4923868242115391 2.0278318915196625 1.0648411432996305
Ni 7.614611514518826 2.5193632824797967 11.31811615579017 -0.6239486303126416 0.4514525478910225 0.3499019434400296
Ni 3.4874061997659904 7.942643487203896 0.6642184645215391 -0.5292183912175917 -0.06600073237084118 -0.6155768613091784
Ni 1.3851630577502092 3.953523451010941 5.293170771640966 0.3091229617504547 2.4782639685659706 -1.3922014539937184
Ni 6.201938236862103 6.79481248729465 9.128804595317671 1.0647167019066244 0.8066820741915526 0.518455753384449
Ni 5.669242016851103 8.962382040357268 8.291187013539384 -0.1589103733173844 0.25354342471293756 -1.6003595085933213
Ni 0.4102623869513302 4.344026739941704 12.909508237017 0.0014565299408684593 -0.6698222529163045 -0.6712417589716504
Ni 4.9728567649022155 9.169081693976917 3.7475163881301508 0.7230733989309611 0.01747630240789248 -2.594181640371913
Ni 8.161804248133057 7.958825427738127 8.32875453513251 1.9804806559292087 -0.36939553338826703 -1.1773801284413272
Ni 7.565172324542875 6.533423953258236 0.491686927685009 -0.6832493249554878 -1.1819638911572676 -2.04369868334859
Ni 4.638073874509923 8.205625348339014 10.26888078934768 -0.19644410859678427 0.590264607796635 0.6891150397076454
Ni 2.2089960576289056 8.384077983393789 3.851472231836476 1.7169893759749397 -0.3459324172693204 -0.6379413450473078
Ni 6.596687328061664 5.571818814249461 2.502945566374892 -1.7261723280257883 -3.167256623763139 -1.6648851990805327
Ni 5.838061009447822 6.720395822800296 4.343630710662835 -0.1102581595273198 1.0812301261806152 0.02142834507710503
Ni 3.098717277531439 0.37340587606352066 7.163418120098956 -0.9245563555032336 0.4087650363248251 1.086716088995851
Ni 8.468008560564215 1.408243275723334 2.026382352151043 0.22227058274158495 2.4595568790747704 -1.1965903828211908
Ni 6.841737351848948 4.771369961790463 12.039943065412226 -2.026314940654504 -1.0776886886862602 2.37385018363457
Ni 4.992225359633852 1.4835533085909482 11.105419882089794 -0.5173735760638638 0.058661518396950586 -0.964598973247416
Ni 4.10597630340884 4.895566585640259 3.3902629806545255 0.36524911532006127 -0.17142444662399509 0.7296299691025563
Ni 1.7514533007706188 7.597904604940515 6.379273700951139 -0.26740835562048787 0.16706616965529938 -0.37105929424393513
Ni 8.20698842585698 3.70990097462423 3.1330023611015725 1.3639010643871285 -0.6390235223678931 0.19941527540996623
P 5.932039678321631 3.856754157218594 1.0540254787201517 -2.420020511543045 1.1748655895495894 0.9074081258587211
P 2.3749967953573976 2.486446802417567 12.049635651762951 -0.2304250935279193 0.8112954045938479 -0.6454615646837529
P 5.560941824055423 3.6182616414907143 10.490406673970178 0.33423724031957924 0.24882159375723598 0.4109718141681567
P 1.5507769761830623 0.5184667959214236 5.2932112955671755 -1.5989549149363107 -0.7271023175846961 1.2880231821118915
P 1.138952576076009 -0.20788497846128537 12.656695118365572 -1.7744774428890795 -0.4888741830725903 0.994806607179048
P 4.623098441778757 6.817303266341087 2.2033577058958063 0.35859278634580827 -0.11136219122477593 0.9263612699224562
P 2.706657501434891 5.9262373888870465 5.220636627718723 -0.37463929828570963 -0.138898963192464 -0.6262970759401602
P 4.251355888686484 6.625993494697931 8.000617568638624 0.1290261841634423 2.243613009882162 -0.22849213817126454
