# total energy = -340855.72650882317 ev
CRYSTAL
PRIMVEC
9.39425238613963 0.00000000000000 0.00000000000000
0.00000000000000 9.39425238613963 0.00000000000000
0.00000000000000 0.00000000000000 13.74943795269742
PRIMCOORD
 96 1
Ni 0.42490109023295175 4.230964543740675 8.565528901389605 -1.7466804752814693 -4.496987470026462 -0.10263998086042969
Ni 6.519160143386064 2.9532428997911193 10.63546502003439 2.0748239439984846 -1.0144626908470786 -0.4449044623598596
Ni 0.8636192466879077 8.130697147094047 13.932855078217987 -0.8852737558535269 1.2856125157878695 -0.3944799871607206
Ni 5.429276573347967 8.148555620637717 7.934098932951409 -1.2554483334996636 -1.4499494594374642 -0.18985205720156337
Ni 9.422810785503835 4.630605429075376 4.594732537400542 -2.655698883050104 -0.7529084800145227 -0.8011336335694976
Ni 4.299495613967435 9.425347233613667 12.496616700506632 -0.8168024504550062 0.788235694560907 0.011804963054728057
Ni 7.047605621438945 1.1491894845468762 4.7758396295686865 0.8455841505733889 0.6972893479883217 -0.01594443914439835
Ni 8.939579843571778 7.494856577220421 7.190117367627702 -1.3555812316675235 0.024433707562332117 -0.7024732061821063
Ni 2.2182835743366085 0.8379813928488599 0.906304850100705 -0.8803395517767033 -0.3619845856361765 -1.204572886806035
Ni 7.1703978927115966 7.158551740613454 1.3984828778838898 1.2216149298899863 -0.2448510391452622 -2.325911193861446
Ni 4.828269890849369 5.891896525824574 6.60252098022831 0.8386527135608782 -0.33675974963111677 1.423594109372387
Ni 9.575655269751868 5.920379898672763 11.597719218311862 -1.684312454567209 0.7851328872658672 -1.295384507572969
Ni 4.272271070921904 1.6473948645792027 10.455690972261745 0.48335222481309653 -0.16271971976114558 0.3271235120929334
Ni 1.8622038367252094 6.143305504770233 1.0446079712775933 1.4397102982079593 -2.0404097281846734 0.3137884855469241
Ni 8.77635471057795 3.0185047702318744 5.977127758291515 -1.2961401547920708 -0.6063828535147363 1.903432407494954
Ni 4.888797058151771 3.5341458824562326 5.971862279900549 -1.1388976560954127 -0.8621857636858119 0.39228349373003407
Ni 4.116476791464659 4.456933887569943 2.569591031800619 -2.1439940752362436 -0.9533475687033129 0.3504192493960803
Ni 2.8648617745418568 6.130040820581036 10.374129134727028 0.5942331055260798 -0.8725041148926845 -0.7544508848009781
Ni 7.081678574381024 7.423742087622535 12.370080819708912 0.2590371008376571 -0.7159738117717024 0.8600535478341576
Ni 3.4063934459910197 3.6308221324498717 9.699389784526062 -1.2886646723506323 -0.7678437611681164 -0.2567043389394224
Ni 5.862022803642107 0.6756101973853421 2.413741326255048 0.9051188156039122 0.9700882784967616 -1.9794555570988042
Ni 5.3047557596597255 8.30898126645847 0.5908270707511379 2.2443159494864577 2.292964049511464 -0.6053986352245961
Ni 9.084570732931589 1.2013651615913492 3.3855654493083946 -3.439432833085915 0.11625345787880624 -2.289475062521599
Ni 0.5779710365351924 4.10495004394331 2.1226792085256796 -2.027778412573908 -0.5113327691864226 -0.036265152979621414
P 9.328840080160683 6.009240130787216 -0.006816469438867425 -0.24601266355353116 -0.3712305297144768 -0.2275763112252145
P 3.2373532708490957 7.228341640642873 7.930428598593959 1.7114656179432333 0.01617352443606892 0.2991889904661944
P 5.640356027347294 5.634005512820455 0.057798137021267695 0.7222316197559561 1.0734841636866093 0.6393924756715376
P 3.746803570835011 0.8606159042408211 6.004984534514053 1.1339721937693372 0.32648047919229584 1.9936537029760566
P 5.909172555728209 1.2736163557125308 13.708821889779223 -0.7776036687683575 -0.9589512880433355 0.5354587157003488
P 8.236570370048891 4.1629501573881385 11.121397748916031 0.14077792538273173 -0.8950534609481102 0.8676470439106994
P 2.2917184442423784 2.362006239641505 2.579627850913748 -1.34964018359274 0.09912579705958412 0.8452573633615894
P 7.786313253544652 3.2406412591396183 3.2219607885233175 1.672981860045738 -0.12327771171543929 0.5562918503956161
Ni 7.053946741713525 6.31750312440215 7.623595410172791 -0.8228468568768732 -1.2806176336764397 0.6065756862518328
Ni 3.675942726048108 1.8859806891918212 4.223538387330222 -0.984919429972323 1.3559229312776584 -1.3871775184165658
Ni 3.9486672633686153 1.5020375993813035 8.079747419969326 -0.39109024475288134 -0.2423429280114278 -0.4914190609816311
Ni 6.392516228687371 7.56788749427907 5.568302112523544 -0.16174835698681173 -0.2590381292789216 0.04865915576860007
Ni 2.972425962903257 5.173771700417541 8.074632249614497 -0.47285363927461793 -0.6407731580691481 -0.5856903581623913
Ni 8.288417248264313 0.04725308886094701 12.64896047110928 1.3036482902436581 -0.7304725196085097 1.286026977617469
Ni 6.044872529604228 7.872204901945375 3.0755701555769686 -0.7834241321048766 -0.7267048250359613 0.9254922370539416
Ni 1.6555584697919588 8.178401160063409 6.89406408367332 1.1161999573875807 -0.08425505059533876 0.7237573123718632
Ni 2.071921124147035 2.841197653102349 7.484973823844335 -0.011500544440431807 -0.023866007984320186 -0.40219972440248153
Ni 8.127211879506092 2.3421280018622275 8.714201398209577 -0.9303315674241138 0.31340924783063445 -1.5913945860905498
Ni 5.9868160506458485 0.5973758040006342 6.942709400718997 0.08099206357335083 1.3650454624042168 -1.6284634659183888
Ni 3.57360174194251 4.9880473332642765 13.3833317163724 1.95533012480551 0.1429767328062634 -0.013082544215571017
Ni 1.285979191684898 7.758684757651999 10.417343634541988 -0.14447054374297055 1.855882682740449 0.09771966074067687
Ni 1.5056919635099135 4.454181371658162 12.629092567007486 -0.903748931839579 -1.7488209186632397 -1.0612493121833142
Ni 7.621228058603614 4.44144276559545 13.38971135308124 1.3900283576017995 2.2359819756994654 0.38312625271079825
Ni 9.132302928657726 2.3338610598746263 1.0060558388585965 -0.6905872533777977 -1.0674287015211485 -0.18421491352044403
Ni 0.6600072838089709 6.261644900472291 8.81359540538164 0.9490975351777073 2.930720275131159 -0.10266852010551995
Ni 4.34207975945584 8.638963771295375 10.15202082857606 1.157909421311225 -1.4037498209529502 0.20953539456310363
Ni 5.620261721766068 3.430264240980218 13.27703481264069 -2.3199477771891597 -0.28662143821382896 -1.4711368921483565
Ni 6.327780436373098 2.99295240408838 1.6180613119016067 1.3607458065875984 0.04785979979575628 -0.30456928094150126
Ni 5.094099047012037 9.461327219764248 4.37153731626325 -0.7753899489464904 -0.5292083639152627 2.6974348293363093
Ni 1.7711829265912702 5.118937449983874 3.516804092786787 4.049257622402664 2.678778904798019 -0.2899358472990426
Ni 6.6967772708401245 4.724792202220476 4.8475290474048025 1.9121628453894166 0.9531498508702101 0.6844765124943696
Ni 9.36465096977061 6.709572242416389 1.978420131416815 -1.7088436069393538 -0.8868292732661051 2.80432381528108
P 8.453314558160178 9.51778667583866 1.2606992588569044 0.14632379490162542 -0.6332994753999222 -0.08870331617467948
P 9.451651139937853 0.18378445406185626 7.999807969799676 1.1662557363933914 1.1844452628182247 1.1491069925282469
P 4.855475645390383 3.9381175180821653 11.189925061441889 -1.9799255547566867 1.5711438062613134 1.3622874400431055
P 2.7069819710831937 0.35830053884534063 9.75292950699849 -2.428836052952146 0.8352277470397292 -0.0420071976697212
P 6.708642211442784 3.986150329880579 7.035408124306329 1.213617770617123 0.35056657360722204 0.3263760924039476
P 0.4517893190476242 5.137331395906287 6.6883863247227096 0.1822351640862539 0.6244006302483956 -1.0148797237798393
P 0.474903876730002 2.103147618654746 12.750664524911741 1.7725241758174506 -0.41704501694543017 -0.5319591871875226
P 7.864163422011981 6.646010731634447 3.8656681052383264 -0.17275087874490247 -1.3023812506057764 -0.6254167302177358
Ni 5.152991614421435 6.544158248646299 11.445031618076547 -1.5813212610149476 -1.3414167672416832 1.0272608710530113
Ni 8.29939912915466 8.563452771640446 4.575345619014392 1.0984338916534115 1.3241942327158098 0.6625468023008138
Ni 5.440042386436366 4.041012763071023 8.899350837124613 0.9337015123376113 0.8460526055693751 -1.8983218257412662
Ni 7.68800240365801 2.230101543677974 12.716813276322966 0.23972143122818074 1.031546385802243 -0.12171653787590651
Ni 2.209406005952196 3.34716268550031 0.6809357989907637 -0.08109670747201517 -0.16675095240772575 0.25745098729745985
Ni 7.6835213453306395 9.010158860790922 8.827344832987382 -2.355453426294937 -1.0502781578837914 0.8307216316392596
Ni 3.5086123048172557 8.985855930197825 2.559815372900281 0.7919609659312942 0.8277190973675099 -0.5235642782556079
Ni 4.105250660015587 2.2164892721552087 1.4654704724645569 1.448957013617208 -0.7804771336614107 -0.19497472314010938
Ni 1.0711890080434083 1.9161456331943068 4.680596942469715 3.233445817995702 2.0252497326147827 1.7789334217779043
Ni 1.066924017517987 1.8348665626525742 9.657839006786109 1.3837412390415071 0.428417777558746 -0.879937431242278
Ni 6.092003493185813 5.345244986894453 2.453752386049811 1.5882948641193033 0.7384246845760508 0.09119934312365584
Ni 3.2083438198744223 6.743635801106209 5.298331969965269 -1.1768926472819474 1.383571289122546 -0.9867600827254877
Ni 2.120808812900985 6.751846377580258 12.525352778740578 0.7866770918245355 0.18679938641816862 -1.0979397256258123
Ni 4.027062298466946 6.813012354036247 1.4587470061230499 0.5177867523418824 -2.511300073085333 2.106893313729204
Ni 0.6186716344457397 6.782828621529244 5.058253398668754 0.5091018229733749 1.0696743030222158 -0.4407351614735184
Ni 3.196300388478849 2.406318927545498 12.373325594439047 -0.16605161234785595 0.7850601250464028 0.7207048986987846
Ni 5.737783817521625 2.874603614134064 3.8195385689475128 -0.42868182985341013 -0.37579938003208185 -0.23371122047835877
Ni 8.53515728383743 1.0368811987948638 10.459183755251507 -0.41305903571448865 -0.8384490821905043 1.9352222983120413
Ni 2.4568036391834163 9.075251634691021 4.8388806987755 -0.7448521853689494 -0.285907699976256 -0.9152900997099591
Ni 1.8147158915577968 9.635966369252323 11.84505860717908 -0.5333501539977782 0.9553962237022254 0.7085741768735216
Ni 2.4061028597435494 4.5848648148280695 5.8001729256216885 -0.17152471964728525 -0.6501378871134996 -0.07471394387412295
Ni 6.246801981903643 0.7864557980606844 11.488809773027025 0.6233032834191587 -1.640814531284574 -0.38779974692706765
Ni 0.7269864235626051 8.804603227119673 2.5157074796955254 1.172993312227541 -0.02856109946714436 0.8141896954225074
Ni 7.902247720668498 5.860904887623329 9.94345621590637 -1.4409212877969249 1.4303106021606142 -0.9677801991888753
P 5.923761829485874 1.2890699006779898 9.019823667514608 1.5002844602465903 0.08529994692008536 0.5991143448777811
P 8.54936139325249 8.062570029714408 10.905998817728182 0.4330830442448993 0.2517498231476245 -0.30531078709321613
P 2.3867976713520496 7.339550798880625 3.169946692617693 -0.9199823629793059 -1.234422880287932 0.4180929985939703
P 1.5197175821320594 4.1895546797846 10.320053000450633 -0.14535397478918838 0.6027115753107363 1.8815867723747723
P 3.2286729817621143 8.049962943183315 -0.01974765767288205 -1.2626641345218124 1.6864672961266824 0.1205680260937601
P 4.789471629021196 5.57722665216925 4.439569551695077 -0.7233752464420962 -0.5663505201831988 -0.8513153966302112
P 5.984279602536016 7.209675261404961 9.712478796198022 1.6804061775342671 -0.6175339850355493 -0.8031907732088426
P 0.48647008011083653 0.31659099824221565 5.954304422429155 -1.1699966914930624 0.27133982946441015 -2.451495442222875
