# total energy = -340870.9617846834 ev
CRYSTAL
PRIMVEC
9.24788454212597 0.00000000000000 0.00000000000000
0.00000000000000 9.24788454212597 0.00000000000000
0.00000000000000 0.00000000000000 13.53521381789747
PRIMCOORD
 96 1
Ni 0.7116071404244001 3.7949803745490485 9.23434558580158 1.3481995944914718 -0.9621335424260592 0.3849121409666274
Ni 3.1119223783296928 4.921585406615099 1.8185511700674892 0.39030580117837294 -1.1697256972198629 0.5058506630259288
Ni 4.605945861131517 7.985224580029326 9.124101554811872 0.9464822090420474 1.4772160084629011 0.2284332599088711
Ni 1.6777142124007343 8.153619308683936 7.098272000968612 0.1526736483790532 1.0471879489942417 -0.7636726605095622
Ni 1.2996237029650086 4.521475684211795 11.769802009317043 -0.5294672740036043 0.5885748787990379 0.61383211070393
Ni 8.00167656653471 4.58858758194624 4.371995653701908 1.715216086124601 0.12126556638141696 0.5377254002473384
Ni 4.086797369589757 7.708194952286038 1.521574780270539 -0.16484267964141933 -0.9082023396252423 -1.8591721521249982
Ni 7.806398237671469 5.6349487203039015 10.991351159808369 0.23896861222255616 -0.15269935941066604 0.48981289283677576
Ni 6.708850058668891 7.223550317771591 2.0457531961856996 0.4946236839618578 -0.8221477739273195 -1.0438331735893958
Ni 1.8939205038618887 7.648768046561696 9.300667714200692 0.17437350194999002 -0.21956526799527995 -0.33296840090948465
Ni 3.6723996656514224 4.430300791037771 11.17352153719734 1.4734588554133141 -0.801350120455678 -0.23681042822897283
Ni 5.438754850876279 6.250284458412559 11.46772356164768 0.6899964138713343 -0.336324204755595 0.38178130864712956
Ni 3.8932298993569234 2.2280280746693903 6.148248849695013 -0.13757895882945984 1.4834475911949097 -0.8044716968037952
Ni 0.8115943427277003 3.9762204147584543 2.9175290720120186 -0.3099729684555758 0.7086281700399086 -1.0257871147209623
Ni 6.945688380424319 3.0859265750319764 6.7253769530386345 -1.0610027433901468 1.1142634024865004 -1.9472990269709172
Ni 3.2287046636529086 4.717336629797825 5.457073060471482 0.28882178829925736 1.0997587811124223 0.6935255100705152
Ni 7.702017365447591 6.543488636126572 13.3338097827755 -1.1543232466218638 -0.8174421409215341 -0.878307608948339
Ni 2.8734194373663 7.644421540852011 4.471141298516737 -1.2568958645794674 0.5106714814533398 -0.3135241761419439
Ni 3.61814232735626 5.620614499346428 13.195344907480097 0.2200622622363565 -0.4304515201593232 -1.4700981664711972
Ni 7.384130584033256 7.066983633378017 4.8609960418105285 -0.24117307607304272 -0.6766762997236605 -0.3243775739166801
Ni 6.804528671588909 0.15613018424570665 8.440870623152579 1.678224596501916 0.5999787497606054 1.8418686278495442
Ni 6.005289502538103 2.362880726283512 8.712306205568655 -0.7851254310666995 0.5785884570102875 0.9755338749923651
Ni 3.967740104682323 5.9418582628301575 8.869273323360588 -0.6559159272478575 -1.1398389369627595 0.6003888407148306
Ni 4.765749305096133 6.516762249954248 5.4019852621492355 2.047509572454248 -0.5912717089049107 0.7353015655660369
P 2.4297799226747174 0.7125337784501671 4.1049731617638345 2.1520046042455454 -0.7708709780302143 0.5445079703868106
P 6.476968602999403 8.447128666586076 13.444636430487998 0.7224105685359816 0.04039125933285302 1.4843716456710758
P 2.2495756455280453 3.647282411380132 0.31966422481306095 -0.1354300308072571 -0.9259920595084957 -1.4173303878508623
P 3.832591520764563 3.4861195283956787 3.486413611122419 2.703629388182795 -0.3566500607971406 -1.0533984486803278
P 6.1731016144699264 4.73229970690053 5.3916174588489625 -0.4496607460979224 0.4119298072060519 1.0258341659088137
P 5.255554259155271 2.6968680745926608 11.326930069038022 -0.9117538044219266 1.5841445893963557 -1.5080232236517448
P 3.914897692713931 5.984213573788372 3.5002872874323563 -0.6249968690714978 0.8745180599989198 -0.016660748485132597
P 3.088626957302675 9.472330645233608 0.5598031165425039 -0.7130574094558559 -0.7618062967247848 -0.333949019655199
Ni 7.544960543176116 0.46602494388491233 1.6316837921467138 -0.44759666448004204 -0.1609808826931679 0.7827636157027422
Ni 0.5469920221603175 0.7255150339069454 0.7431442761077409 1.3435528397480796 1.4127201427723606 0.7993577726159976
Ni 2.84291991432259 2.263502959568017 10.430060058651636 -0.28347929304042147 -0.46090032356748367 -0.6985774706721259
Ni 9.195680180754357 2.670585586875795 5.643209855517652 -1.222891739719881 -0.1755209852908719 0.0592893817889366
Ni 8.431555229107117 7.55668686070778 7.193005480093886 0.20129578026213074 -0.13088046376336168 0.5291145186498758
Ni 4.762632768023444 8.46238767599242 12.300477064085511 -1.8543541619110646 0.6140817648208908 0.40849661315478686
Ni 6.0615628796518 4.447797788490378 3.1303968771727546 -1.52869977816449 0.6847809311086658 0.465039799657154
Ni 0.36939287407411 8.080209601612692 4.119740183715379 -0.7630458255588408 0.009102476521900453 -1.0254153332038403
Ni 7.008980901864935 2.351441093170999 4.119970456039148 0.4390125223554568 -0.7571027206015284 -0.32792878160304817
Ni 3.647615335221725 1.8243116773154964 12.775184846716856 -0.2997543760513611 0.8901555094258605 -0.0035131553595810464
Ni 7.663481430783206 3.0808032470252407 10.957066477643437 0.5511696986777024 -1.053341370190147 -0.4852270732383063
Ni 4.169177524615034 4.0485851108824775 7.7050423484638415 -0.4456711653225551 -1.5018006397808006 -0.07737477853573771
Ni 1.5568813536714714 6.453127556787552 2.5586020288137625 -0.6196194068096683 0.498564927997793 1.1779735390509518
Ni 1.5560582919519776 9.098558897854101 12.107519029440482 0.8263227312406156 0.17778072785932608 0.43742512326367894
Ni 6.378312171274025 1.2528663989901767 12.290704824546308 -0.1183656191258026 0.13432368511695575 1.179577650313278
Ni 8.964076161619529 4.926468289625129 7.223567888752119 -1.1196928010321878 -0.543486728211148 -1.5604305336088675
Ni 4.797099633512802 1.1512876357663726 3.6124807724722827 -0.5944729894510279 0.8259337233323131 -0.046490430252055424
Ni 1.7862566326445244 1.3228636366850943 6.254743788313007 -0.3376148985425605 -1.014655009363543 0.5738460572292956
Ni 7.89625068336361 2.315744259044644 0.3364112188336352 0.04145518182099312 0.9911561549106543 -0.6142278034804519
Ni 5.06429876004461 7.934379711110492 3.4177906090625214 0.491944851578114 1.1244933077446249 2.4850136285849787
Ni 6.005492955996854 7.950859441269342 7.0740712120501525 -1.5796780689845697 -2.3429822904111193 -0.7907774871461541
Ni 8.552045916110298 2.040074070321193 8.00789299448801 0.25164852168306984 -0.6399149238339109 0.4350483955013862
Ni 6.866692951121904 8.26999468708965 11.124321866929042 -2.091751830102075 -0.14750290281139114 -0.8849199720585341
Ni 1.844601535883689 5.681225134285322 7.729324518765804 1.518752694254107 0.017397626651157135 -0.7407746728654662
P 9.059495833773862 0.3824009483959056 6.54361255777872 1.0912754262317594 -0.09453020726910172 0.9486537627720694
P 5.529902000396838 1.2460692038909873 6.8892883072931275 1.4646705676977227 -0.779431980226348 0.6780906635726838
P 7.118041203640091 7.100100307732028 9.290042819711633 -0.03157108993806176 -0.3087822905815843 -1.1445728521033192
P 5.217989352362199 5.5799515512496445 0.9783614437123015 2.043992817550241 -0.28042507959512997 0.3419500355828047
P 2.423361890839564 2.614885578600397 8.081186178214697 -0.4142833950398929 1.154409892798399 0.28653247804444854
P 0.45971511229827705 7.056626002750681 12.661447889755769 -1.1660675316419853 0.5320013532793677 -0.8980737358316726
P 8.269393574597885 0.8570347479513422 10.284231092937885 -0.12430692431090204 -0.04436747037178165 0.09214190954258325
P 2.707799074058296 0.06494419361029566 10.284136764516099 1.259362066731773 0.11652522348295415 -0.009322820062822654
Ni 0.8430510218159896 2.3624275799435663 12.506523629647386 0.1359511934180497 -0.28122906355366406 0.0569314230797213
Ni 6.019716202340464 5.546030310945119 7.75822230821607 1.4867116066581623 1.3239481781432747 -2.720048195860451
Ni 8.996351278485067 7.81948399422297 10.726548160147583 1.9371501114623733 0.4902774911780201 -0.16923489517184404
Ni 4.163878486803013 9.05590765459225 5.854033878206386 -0.1491347819878593 0.5314367390251492 -0.3480605193559167
Ni 1.9621976350419095 8.774022887492398 2.2886017180703297 0.11479461394509262 0.08747638574611385 0.48748244493138626
Ni 0.41467514047299536 1.10340208988392 3.7599336667022483 -0.9524160580279792 1.1903965953056532 -0.3930553388990521
Ni 2.1441127708189898 3.0382722262617414 4.518975056246053 -0.7099430321965902 -3.7202358648457543 0.045910132268553186
Ni 3.476945626982895 0.7853701166831133 8.248765243457406 0.21413535522896027 -0.5003754988439705 0.1043073412605236
Ni 0.743731516772773 0.4360331296996319 8.775001313671302 0.27804629495030825 -0.06417164958190238 0.7161823282380827
Ni 3.3390411734875047 7.021909444380127 10.996088851031928 -0.20519125866179502 0.7914536872775724 1.88006673618582
Ni 6.34870044514123 4.070345383084372 12.803554581962821 -1.200463749733668 0.9291946256061933 -0.2044024442119125
Ni 5.27161783451213 3.337422793701984 1.276616815934038 -0.8672397811699516 -0.3925879123443303 0.05757111354624924
Ni 7.973895921530676 4.700422249068006 1.5062528852496724 -1.5979357296431769 -1.0427743933075782 0.6641992503025723
Ni 5.176364624278592 0.8081004919678719 1.1734992047313153 -0.2874177088628792 -0.40711901608096984 -0.4300540276105883
Ni 8.906831756634519 7.928035662351248 1.1804896806163185 1.7091135727712887 -1.46675676080279 0.8582897710655154
Ni 5.215196491246615 0.7257527045383049 10.305237662553951 -1.4634127840312217 0.2542839024233879 -0.0858956715225553
Ni 5.998325845518117 4.627021789881249 9.703286387665779 -1.0412505004638841 -1.1113565132523504 2.5297803912777077
Ni 9.422854463219101 6.08031758939487 9.258668446795294 -1.736046906827023 0.2803808566207558 -0.09384346561472225
Ni 2.7097041382629667 1.9955177628546703 2.0157456605967887 0.15568312462933834 0.4660610418328167 0.032067312848189936
Ni 2.143409931597849 7.2091236179692295 0.22571219192708186 0.37244589017881663 1.5494526944411249 0.5841363834117101
Ni 0.7218510220725253 5.272265186426338 0.6629225773221245 0.8607225488767241 0.03910827885537135 -1.2484873288007983
Ni 1.0261730065188446 6.596941408471217 5.599030861738267 -0.5943788870753248 -1.8836817072305883 0.34602369143154604
Ni 7.174481042674585 0.07714030367398403 5.656162442532515 -0.07046673856199477 1.2872109706232413 0.11426419536291935
Ni 8.31909170584012 0.029109566005059043 12.604247874616304 1.5009123236385764 0.47423509300317673 0.20362057174056547
P 6.8149140458697115 0.08776427337459458 3.604413842832795 -0.9993777714894982 -0.5786398790735131 -0.8884639806560506
P 8.47342040218743 4.171341529585389 12.780666067853305 0.796863545439234 0.27424723291919223 -0.0004903093728572201
P 8.617178766564164 6.206218288823937 3.0314010480866425 0.2630606201747534 1.3039295689295027 -0.3147166537881483
P 3.6554297976146706 7.277012338000725 7.044293948785009 -0.05876770495751169 -0.47081038359234395 1.230917438237835
P 7.80433595943049 3.89665161661774 8.796495246799921 -0.5679793140358734 0.7284130659763197 -0.24548533029515143
P 8.668744970473115 2.4202730974203415 2.354193263594834 -0.8909677209145106 0.2952973687212721 -0.2656600054708134
P 0.9035534565063659 4.537733465142917 5.1634000150138935 -0.4413244583180851 0.891515880108497 1.131628119017193
P 2.158604205812772 5.517482091528523 10.10118124173404 -0.7791792407855935 -0.4128188946792245 -1.7221652637489244
