# total energy = -381165.66299584985 ev
CRYSTAL
PRIMVEC
9.19462675860522 0.00000000000000 0.00000000000000

0.00000000000000 9.19462675860522 0.00000000000000

0.00000000000000 0.00000000000000 13.45726566833235

PRIMCOORD
 96 1
Ni 8.890348731919442 0.1551464498270422 12.607520154941339 0.23038369876702258 -1.2548739490534324 1.4703375361755129
Ni 8.374594547267188 7.789880663813089 3.338962414674499 0.07096913211971004 0.357436561254178 -0.23014561461428748
Ni 6.821530183984564 3.829488383117086 0.6942908448502317 -0.16606703896682365 -0.3730840379834478 -1.0905861134742185
Ni 6.964708907950208 0.9304502293670311 3.2810831602761343 0.6060416681252336 1.590989637342647 -1.363126648114949
Ni 5.915408936354823 8.496956636821183 6.440970109639351 -0.9487416945001853 0.7883267116128165 1.4687676205852316
Ni 2.8256374503453707 0.3097927119721084 1.3107914716013795 -0.9979202131073652 1.0870870991820245 0.8586165582773149
Ni 1.236015252071261 3.7215434679259314 10.332690483343173 0.587539238445672 2.5217883742111664 0.7780934639205827
Ni 7.284976138438991 2.2903630736189413 7.5835992181305025 0.45622271558615624 -0.9187981128632177 2.3034626350499425
Ni 7.035470753547408 8.714648613998849 11.032454889352971 -0.24543030868749993 1.1700105754501333 0.1286312627178688
Ni 0.2058447009235082 6.5280285112574035 12.111215363739156 -1.293306799108334 -1.3300167529348577 0.25260471494875203
Ni 8.87055270105006 2.398620606111331 12.429950769451887 -0.8000637975440866 2.3290199146937565 1.0933487638210202
Ni 9.053433822272554 2.2790720722684523 1.5310064542925415 -0.3235581633391783 1.3511327089778666 -2.3809780529286027
Ni 2.6953128142363907 4.121555694109168 3.196140442217323 0.28076240832989063 -0.07980061436841095 0.9135587188411491
Ni 4.801709800705022 4.807566777789925 1.8239978252485682 0.9692544697415567 0.30495546063632645 1.7848461877179131
Ni 2.2226998171545707 8.322249538563334 3.2519619392034405 -1.3727929675601196 -0.8315184165089422 0.8731900852161156
Ni 3.434735483295803 8.123995001821283 10.77329422716648 -0.5144510031004301 -3.76916627199787 -4.149541701436409
Ni 3.155798098955593 0.25130569276163667 8.684026829880226 -1.2163881342734082 1.1679395518537175 1.1438532003284752
Ni 7.876843441315469 6.890931224858741 5.625109752040021 -1.9108179013257478 -0.14881596519585982 -0.2799255142508921
Ni 5.26753716342474 5.921937121174731 13.222933976839368 0.8333639543581132 -0.19877841315691572 -0.08605379436697437
Ni 1.228117067901823 8.243525146411148 11.19614866398084 -0.49427015727718093 1.250044388875273 1.6687835056936744
Ni 8.522683201787524 5.212608464672443 4.2640420626988425 1.206691732921251 -1.20267515556269 -0.2583981817020775
Ni 1.1237120839158294 7.445560290382222 1.1207072799733704 0.8123300165059494 -1.734393173273684 -0.724486477228404
Ni 0.4843214344757226 0.22354619587461652 1.7936518799251535 -0.39423470391913396 -0.39413237401331475 0.08747921395959127
Ni 6.148115738618277 8.483642817639174 4.2785493444014495 -0.14775872757593908 -2.4286326786920887 -0.48951773019386013
P 4.705920181756006 3.9557581889365188 12.648308437588653 0.04570907200134063 -1.9207205051514404 0.6542159138376153
Ni 3.0903783313589086 9.00537350952092 12.639318851252845 -1.3578623143922164 -0.5635935262633519 2.19658239085592
P 4.613495796108519 5.087460403286856 4.105340970264228 -1.213406425937265 -0.8158146326204401 0.5812634327392894
Ni 3.5926164150460016 2.8242122832367995 10.967630933553934 1.4232848056620842 0.652054130299606 -1.0755058221023284
P 1.8617279751196845 1.9977900581689787 9.399886429590373 0.029779802365593872 -1.0246938816567837 -1.9012919641131836
P 8.404615002812259 4.663385839535027 11.388749424883791 -0.14586870964207782 -0.9642557309753846 -0.38382250744687446
P 4.877216073579789 5.345415649938291 8.363502149849248 0.3613160988142422 1.093634156271923 -0.09625541749032455
Ni 3.166877623896422 4.956151942141635 0.2782643376799047 -1.3542684263933709 -0.22369548811356962 1.1512767464860558
Ni 9.149296998233625 0.7324154441984947 4.049695090644392 0.7853041227364088 1.2610278844699703 0.3466253295712869
Ni 4.965052340600327 0.4495611489663391 1.8416671390069024 1.1102547955477393 0.4659209167105266 0.7860949940688204
Ni 1.909089496256792 1.4851712411555815 11.511021407098017 -1.2902674980613777 -1.418987463838311 -0.15622151363131162
Ni 6.979788095421545 6.394945487196349 11.809651842490734 1.9605479215610235 -0.5341577375007381 0.9275560615615058
Ni 4.079370747695453 7.295991300994273 7.848626971491055 0.502202010529748 -0.5831534506731505 0.7940263331007551
Ni 5.998611111615876 7.520432134028012 1.6116828656521456 2.614160397486685 -0.7279153004042948 1.5821604690867914
Ni 8.040774437307215 7.519328778847182 0.4181210430886018 -0.3171944259046795 -0.5137691465420572 0.4843153600573143
Ni 3.45529466816526 7.182934173465274 5.612984798065355 0.5219362557338817 -0.2623124291548192 -1.5545362796116196
Ni 2.710198914551082 4.680616569608981 8.549898376785336 0.7940643854275421 -0.32693633578279174 0.26930171598845876
Ni 1.7449194399758656 6.068940809767252 6.923130806885949 0.4489228394906334 2.158016871877896 0.12115038095979136
Ni 0.7788841671017808 8.646332539052487 9.156121250027056 0.13818959583026524 0.7406299197574857 -2.397312785532884
Ni 7.227160326963525 4.805930134271694 9.305268206058336 0.6089590988823448 0.7465344581673788 -0.15797963397299888
Ni 0.16868921520907396 5.444432582791234 8.223949786577931 -1.8509029701376707 -0.6114888072827339 1.3567616251288697
Ni 0.7825896015840667 3.5135702109660727 6.845064749991657 0.21040314188003767 1.4944423996435166 -0.6960338783146658
Ni 5.20883866780461 3.3639184699395615 8.909974662198447 0.42546126603358336 -1.920465451717841 0.39456611911662365
Ni 5.166865197800553 2.6763167158731087 3.056588998408655 0.21095541483908184 -0.20746077142226207 -0.6185004627138767
Ni 3.260672008893439 2.5419096655950586 7.652594775975725 -0.9888935841287226 -0.6900686618701664 -0.6381069240908946
Ni 8.203749192142244 0.22556165800493178 6.236554253675017 -0.9934058701767795 0.6998761348788916 -0.8184145321371324
Ni 1.3228309155495308 6.112799178205226 4.641720541096789 1.5395740018748323 -0.19565169460247595 -1.861838900323884
Ni 3.4026462367866777 2.792904579980762 1.4524153842247052 -1.234769207883757 -0.7519823686558275 0.1800057605351029
Ni 6.5071934875927395 2.426884887993581 11.936513782257212 -0.4532800880180645 -0.8428698369660192 -0.046084967283520635
Ni 0.5332625924467175 8.05949469687529 5.394936988841872 2.57210229197437 0.8080126200775181 -1.5356790376958003
Ni 6.4095005809567915 3.896452847966932 4.848720087109565 0.18589795764982178 -0.7128740898004562 -0.638593633919326
Ni 4.554585824078729 0.6615846389024926 11.196943079711037 3.168771260635453 1.686134338267296 -1.8044251382911052
P 1.5801333437189762 1.7332790428181142 0.1555271073644284 -0.06747397448225798 0.10596313169639171 0.5094417228112968
Ni 3.9168741134387846 2.7384999749393595 4.941777063060727 0.1422676225543808 -1.039420903454313 0.2984441418803699
P 7.162981833945273 1.3977487323278555 1.1147289338185755 -1.0186407334841683 0.598232199383144 -0.19125150865225127
Ni 1.850197913480016 1.5228140420748821 5.558778796956502 0.6698849878334399 -0.2159757508718087 -1.139685956324663
P 5.151482587654488 7.622814300182485 11.875054140297054 -0.19744786727095026 0.7591341492092603 1.3669285383595426
P 9.059796503815337 7.500360264363422 7.298130890582431 0.27627017688649197 0.17136736813381453 2.2718802322579714
P 8.015388073521631 6.056160278922643 2.1877206995343226 0.4477702139434288 -0.7400141405503579 -2.0721119443839604
Ni 7.439059689441835 3.326496340056427 2.855819731316963 -0.367899922679347 0.37331235194417 -0.04782406146181441
Ni 2.3914212135564186 6.645453086377185 12.55856244664263 0.006398447327176078 1.4945272460478392 -0.01569607057901813
Ni 4.219689942817448 7.160673982692038 3.241411105286758 0.39727657606925126 -0.7892885613054536 0.025014519766466597
Ni 8.74489893520659 3.067851496416972 9.142126109020884 -0.4591738277946802 -0.1964428230452036 -1.0215062279574214
Ni 7.267864938509627 4.462069492166173 6.981831141431381 1.6383141334602238 0.7387203614395987 -0.2402917019093539
Ni 0.6115392062880175 1.4097201360398561 7.480463092602463 -0.04779320822387898 -1.1234538107365168 2.2458539833975384
Ni 8.715503714263992 1.2073004334901727 10.58775953673409 -0.41709489634675906 -0.5039804425864095 -2.165885733103012
Ni 5.680890792669508 6.003171646363305 5.911655689814702 -1.1832450718625362 1.3969729072404329 0.13971297445332712
Ni 6.3585439608554815 1.7494523908437734 5.79802205920372 -1.713261019280759 -0.9765165506206085 -2.5256020915303017
Ni 5.306844191741792 -0.009670908159970784 8.909396320191163 1.1785790338454347 -0.659208224845884 -0.6152688431504566
Ni 5.747092103519279 6.902534843510464 9.983676253080528 -1.5545756174899874 -0.9304796629662039 -2.241453283226682
Ni 1.7195698546963072 6.547686622729183 9.638685591377309 0.22066415748641352 -0.4395308567527721 0.3561983179717027
Ni 7.790009388584186 9.143228544739063 8.440908032560344 -0.9498557534999706 0.06683531245699458 1.0856076864230206
Ni 4.023274331376778 7.4564651174194205 0.8514316091666234 -2.9747727853656833 0.22043712907727198 -0.3084647593411655
Ni 5.772266990895206 4.41484589042667 10.897720510371276 -0.7521600318842723 0.7789360144265359 1.1919423425262183
Ni 6.111309648711105 -0.034584668143101446 13.268150391612412 0.21113719183258473 0.07522096541752851 -0.47320947995213997
Ni 5.0297825112089924 3.9520895329602603 6.616668388634644 -1.3121846098494434 -0.8541153279728516 1.3907266692204048
Ni 2.191456476284081 8.503825022821847 6.944689447656707 -0.8398631889292115 0.518547798877623 -0.3377380543839861
Ni 2.7566869461700327 4.574317492562564 5.715448796395739 1.04610885699745 -0.5425426191303236 -0.3557126365845357
Ni 0.4553914616343725 3.2057341155146353 3.397327145352429 2.358104747874855 0.16822213763661348 1.402552201100423
Ni 3.167374133727795 5.059269678416661 11.200468299513787 0.530042429780784 0.4473318408544296 -0.9235024603174224
Ni 4.065284579886863 0.2336400568539053 4.316875306070214 -0.6294947569418514 1.0544708558089002 0.7809347900241195
Ni 1.5840686438639346 3.6899967043807136 12.583942374189661 0.43422461404851026 0.6281768094613762 1.0744524411371497
Ni 6.5536723245851825 5.956021601635857 3.7046235162279104 -1.8466326248970906 1.7217060647243188 -1.4769624976911984
Ni 8.067218183141097 7.036261491427003 9.828688870292055 2.7255225887114607 -0.23627075367541892 -0.2521640278669076
P 4.375253828687904 1.0371538699797531 6.51991057551445 -0.31380005551114987 -0.6286627479588592 -0.4332401386480539
Ni 4.237803357036065 1.7490478272774694 13.099839995015424 0.669561285945434 1.2864139286432426 0.9242491086754598
P 8.543407889934107 3.2453261772534017 5.228699061059541 -0.6628345087445616 -0.6827554160382048 0.9408432655887151
Ni 0.5656258388257489 4.932779201561062 1.256419047752751 -0.41514265771639475 -0.23760361355422951 0.07244777354776555
P 6.423218963705105 1.462359372791931 9.895127402505706 1.1799800279580193 0.8383264405697112 0.07568530664845675
P 2.1568846806180892 5.955092944358658 2.3908851668310658 0.30394321732172813 1.7909610423663995 -0.10222731880304331
P 2.06896566195899 1.4280358320416262 3.172792527128319 0.037550190339632104 0.37028770618523327 1.0105939519202918
Ni 6.930514091971 6.804667238970886 7.792335629090434 -0.4356875717472819 -0.055302372116730565 0.5581756976818902
