# total energy = -340871.76379777305 ev
CRYSTAL
PRIMVEC
9.27243757910569 0.00000000000000 0.00000000000000

0.00000000000000 9.27243757910569 0.00000000000000

0.00000000000000 0.00000000000000 13.57114966937557

PRIMCOORD
 96 1
Ni 0.6670999727621284 6.698251422262533 4.350028807825907 0.2729035744071042 0.004895637529404471 0.1368431091046998
Ni 2.1471164203582997 3.8238049822854525 4.265412249602639 0.13803661519216873 0.6821668905245865 -1.5308103967495896
Ni 0.014809937625383927 1.1807614995955515 5.072977600592699 -0.08624534155249017 1.956582766265688 1.0196663465352052
Ni 3.6239468583325825 3.8896392905375357 8.765633222889779 -0.09685731274038158 0.13281984687791965 -1.319969653111501
Ni 8.861872781872764 6.651638877532502 0.324708716955943 0.13057193138400738 1.0179781601995048 -0.4502189325942375
Ni 4.612945072158935 5.808904097279156 2.13166112106329 -0.18337827655176162 -0.48103900329888766 -1.2311048716582926
Ni 1.8832135686452698 7.820948916467304 8.029547240273473 0.9323655671350072 0.3212616539955177 0.5144823705589978
Ni 6.131241851894246 3.5823136126914767 8.037255417801635 -0.07915475325429594 0.2510646241551418 2.3569796331314765
Ni 0.15233409858887112 4.7524210812755285 10.160177266255404 -1.8603684864259444 -0.8875869773677358 -1.824118760065291
Ni 0.3874404675261736 5.127491189556759 2.0804169936611587 1.0167448020130363 0.2125510414609759 0.606076120907595
Ni 3.7253780552296987 5.563101044116558 4.543159778167949 -0.5386759370860658 0.26481719785454394 -0.6631384131382256
Ni 8.445568142775054 1.8280889260313782 10.349345196689429 -0.12518752714364248 -1.9888609095731038 1.131036508179781
Ni 0.8005229344946443 2.7113349869542094 12.22700921132218 -0.6501990793687382 0.11988359843222579 0.2745408529002111
Ni 3.788013372446997 0.5947443590179772 10.552437546940654 -0.8605471996411244 -0.6658532409662274 0.571289866466345
Ni 6.059751356595154 1.9774864435746953 11.443274952675596 0.2121962292247184 -0.39014742122363777 0.8265119644332862
Ni 2.737881976324028 2.6179800833652003 10.659106743940814 -0.579273398892454 1.3060247608956346 0.01633036172890736
Ni 2.6339935834146857 0.35938207079789175 1.3446555463672212 -0.39393902705558603 -0.09027863108159935 0.5093584190688711
Ni 0.45603610774973063 1.5319643530259557 8.055658425067538 0.4827151054497299 0.2062076157414513 0.20695863497486292
Ni 3.459629988398054 7.758165240245494 2.9753528168957364 -0.01307508801640329 0.22944113234809518 0.47038486601915114
Ni 5.232974441764602 1.2037849626082162 6.766630087441992 -0.4212006909850165 0.2319307315391683 -0.23016926876337138
Ni 4.589912336708488 1.3234364997469303 2.1852539569555978 1.053458869604618 0.10361031519349899 -1.8205233294045486
Ni 2.1734130539080048 0.8877116669586345 12.615782128157626 1.980257998395441 -0.37278990378179666 -1.706410314907513
Ni 7.615137887458401 2.7853939475189113 3.7234215708577008 -1.1908195417756846 -0.8818315629411975 -0.10178174662519245
Ni 0.6026370580580014 5.234838201758781 12.224226552743806 -0.3685110739007847 -0.1568977137627298 1.104007271976131
P 5.911948698350338 3.3382445053941088 2.176920817120929 0.5329675738473789 0.5919088282682774 0.0012667825275655604
P 4.96004023565192 8.08137460401209 5.018842327090146 -1.0938030777496195 0.24916997823559023 0.7504093677417527
P 2.4979576487152073 5.674101396804682 2.4872934180221478 0.13374621534693093 0.49856518510810915 0.7485476319426656
P 7.864279018222512 1.701343973989447 13.03677213006657 0.15151279530173262 1.1620653524611277 -1.2715005018665198
P 1.037808326310713 5.2370172246375475 6.125515194320093 -0.9698195982164072 -0.07472217140423906 0.04354111781574437
P 8.997788174881077 0.5307988463420847 2.908962162376735 -0.21899139776968088 -0.33791854582590836 -0.02569509077325897
P 8.321549287441025 3.323343697878461 8.964517740875543 -0.6022526333964466 0.6107848392371739 -1.3266210969897474
P 5.385348411835936 8.63937136485629 1.7320320340726993 -0.07868372715514836 -0.13427714814973649 -0.6853748559389229
Ni 0.04796168442730927 8.559220412668823 6.892502503088638 -0.06909325525323584 0.24870563700466197 0.22557650718636635
Ni 5.460807510505717 6.113457316228402 6.035972189903258 -0.8066710184479592 0.4411784196585241 0.5862961100671903
Ni 5.0046870235721705 5.900293244058385 8.450877540649017 -0.021934595289562223 -0.5599171058530292 0.6123449846354422
Ni 3.1348999448352126 1.5453722980587037 8.115086406056047 0.2742274354248503 -0.3006396068697919 1.123324227137188
Ni 0.6087754118696744 2.537115153468523 2.831946221403359 -0.3155100962237211 0.0812399179180988 -0.7912647111952179
Ni 6.041447564413519 7.309230892592985 3.287393529353934 0.15786342011010876 -0.03964692496766075 0.8403596689496559
Ni 3.869341924232774 3.8150239837059146 12.664406791886346 -2.3856659453225753 -1.2477463368697157 -0.10010795846719533
Ni 6.790679082073344 8.479458902868203 6.740301927603827 -1.1267916168604981 -1.0827457914941934 0.9207974026814336
Ni 4.339009442765798 7.989753646288312 7.480593887998042 0.1262427078810342 1.1522823049324349 -1.8134875056036897
Ni 2.8299851008124692 5.834477480681867 7.089012349758435 0.9626233375782841 -0.7882549778346166 0.11329206125763713
Ni 2.5388490993337536 5.7278722635024035 13.321427624779458 0.05462668620594464 -0.000420889587502501 1.0928576831172145
Ni 2.69791776948368 7.588192183263956 5.450227658996473 0.21268808125947242 1.6155408443194499 0.46806804496051646
Ni 0.9752564610334526 7.781782139276206 2.1134352173590236 0.24179194060396425 0.11599120535635508 0.6455510390737655
Ni 7.800614460411415 8.301131379445097 1.9083205484275463 -0.04469502891452948 0.039620956825731767 0.09779088029824448
Ni 7.8000395692689315 3.785231641112402 11.68702694260082 -0.5076308948548032 -1.0968385221418335 -1.5565445682909
Ni 0.4213488452511089 0.5951671821808355 0.39679450276063855 -2.191679040017032 0.5011270322980144 2.04031562580897
Ni 3.7356704611677003 1.0587640356979955 4.499066554783283 0.1397872793346883 -1.9458103582405326 2.078307531671711
Ni 7.291316542798193 5.409373298129054 9.839192360312706 -1.6543292779415575 -0.3516734335181556 -1.3999055075061955
Ni 9.273550474517263 6.185133260283134 8.204289112006284 -0.3846051512491699 0.3867337675563985 -0.7517278294428602
Ni 7.670679789772481 5.820772817640096 5.58417544070745 0.6952779739852477 1.0794869182372635 0.7844014084164813
Ni 0.42811216136928754 8.665769995221597 11.887988486649746 0.027847618339887525 0.043125113324248315 -0.902107539581414
Ni 7.347915503019419 5.090679611562284 1.5862229499510097 -2.6738629555536404 1.455737269763835 1.9787330771104825
Ni 6.048939694141361 0.5937633351006433 3.9171088874666613 -0.053908834203313605 -1.2406660329841666 -1.0237795973726302
Ni 2.2202574095825853 2.4472374140477577 6.018668893758298 0.31081371918931633 -0.10995914022966224 0.9031408659419349
P 7.461354506844205 8.800313067438175 10.212643500957203 -2.2790178717440166 0.2497729019269118 0.6731706005632472
P 4.976804803161746 2.1982353698503747 9.612309716444246 -0.7564889982769294 0.6916745729047056 -1.4733616677138173
P 3.6284810804079717 7.453565659107339 9.367689826342628 -0.11125163378884066 0.33490752691372644 1.8051118799454846
P 4.11559932684669 4.077100165175894 6.158588125400872 0.3579271277373513 -0.5014911005056524 0.2751257788694036
P 2.6804948588913327 2.0221703212460733 2.8947669873762965 0.05350954188236591 0.3453472341898117 0.46830998576799343
P 1.5112404545832225 7.935009173623483 13.58268504999329 0.7438250296560157 -0.5684328566335243 -0.4827361884956525
P 7.0332645993255944 6.113244050159417 7.698913435574842 0.6312287089138225 0.2977111203690873 0.020815908304086733
P 7.9609349096619075 6.157686844448463 3.4123980448241866 0.6138267113872913 0.4041342224210331 -0.14427025480670638
Ni 5.1800102771539125 9.149151449234175 12.590769727240724 0.3051601204479648 -0.600465716699353 -0.3382288779774756
Ni 9.079691617809337 4.377758960256707 4.5242004246351275 0.6152372185815727 -0.6097386573608466 -0.8564064379998734
Ni 5.893663451044268 3.6226394446053227 13.501801575221048 1.3296444571971036 -0.20474594359426027 0.9059893911343235
Ni 6.436509048552704 3.49102646272785 5.865451131848805 -0.5732426193173418 -0.4412732933651755 -1.5708825821801267
Ni 6.0062772079064555 4.9485331403644786 3.902425054995112 1.4403353333864677 -0.16231117146881724 -0.3520914948921807
Ni 3.7104308855251413 7.681565631728529 0.40057394840057503 0.8987463364186651 0.010942615054432768 0.6714698158220564
Ni 7.205555765752628 1.2147635289420848 8.140341744842836 1.076490811723417 0.708267187156064 0.007550301543432158
Ni 5.514791643272424 9.22219971408064 9.23672869684123 0.7047010670713606 -0.24109697141946868 -0.5876935046353491
Ni 6.156564879476843 7.270147567341924 0.19892068049311223 -0.3638694613637153 -1.9402552327502587 -0.2722235176209441
Ni 5.5376482024050135 7.018363791809946 10.605650212883901 -0.7369164754616405 0.5701436686770438 0.7488718480513038
Ni 1.7646747240403937 0.18129933973223095 3.875812231317042 -1.2126366376507762 -0.9519612298787477 -0.6546368034251178
Ni 3.7232917567287527 3.580125317374929 1.6079640348184263 -0.7182412676496405 0.008371769003463002 -0.19924403993942463
Ni 8.558052085508294 3.839864844523848 6.8680872471648975 -0.6011030931730357 -0.1807740061596951 -0.1591345735130485
Ni 8.172318673777784 8.532339615538854 4.962169187366663 -0.7527120477330005 -1.3767552946419774 -2.893967898102474
Ni 7.7924918049143965 7.038336622792339 11.467608611146854 0.9761020887910092 -0.6226124279997214 0.24268102807713693
Ni 1.334229617325159 6.959010917567471 10.483713019831928 0.8830854899529564 -1.2179081704623607 -0.4938500390206269
Ni 3.3296211382568646 7.843916744853277 11.660752562901791 -0.5721900096831114 -0.818357453646952 -0.3623779644198533
Ni 1.2688682033999579 3.97741218658179 7.990584456713578 1.1333849538072998 -0.20401755006866798 0.8420817938470853
Ni 7.132896943293006 1.5073089409636617 1.541343423842432 0.18859555908664294 -0.07768433935635652 0.2560710762307977
Ni 7.552623111932268 8.878071730677888 12.90490137441876 0.2878473402011301 1.1646616524333941 -0.019696449987662852
Ni 8.40268311803338 3.6807683570605763 0.367886750731527 2.326315114168084 -2.5917684029447297 0.16213813622606268
Ni 4.798514369489769 4.607539240932038 10.648480530242662 0.7695499452259456 -0.32215896899880647 -0.0622705759044476
Ni 4.882596835296795 2.861455754644521 4.019407984540171 -0.1622692624872883 1.7223544969415951 0.7063535150731189
Ni 0.055933199188480415 8.648004004431316 9.415867558570259 0.43961776003962355 0.008637106849707706 -1.0311494074741403
P 7.044029899590477 1.247504506750268 5.572436534475459 1.5165042645395626 1.2439364762053222 1.722162949756079
P 4.688218722073075 5.79077648141538 12.518083087467758 -0.18437149370296632 1.7882860666373976 0.000658202409289189
P 2.0090405493467847 0.3965951453483259 6.689667926607751 -0.6005767883559204 -1.1221893422017963 -1.0151748864227548
P 2.1054182676527207 4.815751831326476 10.370597624085734 3.340095434236157 -0.41896923055133656 -0.10230445189788187
P 1.3646524856878466 3.6365017390893875 0.6796390903747046 0.687070755584107 0.2816424969419988 -0.6937921334683406
P 1.2293212562597986 0.9899440024801145 10.28984952690511 1.3481949665057813 0.4227513233015881 0.6389826418276287
P 7.37662297039244 5.332458426727502 12.961275941645663 -0.20625286715708996 1.810815615198481 0.03793122782813467
P 4.17487802158691 1.6143870524700064 13.082507502182427 -0.42976169318115015 1.0226323711420646 0.3069922885606971
