# total energy = -340888.5409435696 ev
CRYSTAL
PRIMVEC
9.12926338494122 0.00000000000000 0.00000000000000
0.00000000000000 9.12926338494122 0.00000000000000
0.00000000000000 0.00000000000000 13.36159976395121
PRIMCOORD
 96 1
Ni 6.427503681427677 2.646080536388615 11.310501202000124 1.8140636898221338 -0.5096998615686898 0.37590942324738486
Ni 4.885808420833806 0.6524045643960572 5.9765235373191645 -0.06749531463849667 -2.1927257361139914 -0.7207658338437071
Ni 2.8889372065824763 1.7348339612412402 4.622578885998014 0.9361656576073878 0.6737874082116395 -0.4705051936470993
Ni 3.681795491410552 4.721518193151349 4.856420408390341 1.006089379181719 0.042973161127416316 -0.6960271934464464
Ni 3.7061341081587975 2.8017162221815983 2.3464307173609815 0.35728075240260404 -0.03196421161142237 0.5805016148726003
Ni 5.51579151383688 4.422416129939505 2.8715012260395376 -1.2768617661784332 0.14071699023780926 -0.025750112380910493
Ni 5.458751874886003 3.1544435797592323 0.5196285546486878 -0.3015904008188355 0.008057065976521607 -0.5909809171373692
Ni 5.9298218764649535 8.117805094845233 12.410588420493639 -0.07501604849557403 -0.1227660621863434 0.6735048439742143
Ni 1.937019762112733 6.635157911193468 13.22739641544075 2.525519559118824 0.35955617870034207 2.39079066814365
Ni 1.000722487656586 0.4146739757116257 0.062225973600044296 -2.566829216500889 0.0869829910494631 -0.39623116552387244
Ni 8.061258436128565 0.007425743009386017 7.055833464793427 -0.2658466675603228 0.3068418790257619 -1.3734128605323057
Ni 8.848045760664974 2.5976132759548425 1.2700111147413684 0.479694059235219 0.4950628283818055 -0.8000401433950028
Ni 7.229628168806191 1.131654386157464 4.587905942858541 -0.10767651484307263 -1.3602845506804637 0.8296862483962097
Ni 1.0730353846043934 7.46876922871628 2.7722779987883523 -0.04863575872983237 0.36135492247197765 -1.8222603667003132
Ni 7.835528264441722 4.025174483065379 3.9356994834825274 1.0767515215839714 -0.3416852119571922 -1.5682657133825701
Ni 7.605534726655316 4.284317759515381 12.803245351189606 0.8158328874528853 -0.24527887071130014 -0.5284285483264447
Ni 8.273906373081637 7.914843306568038 8.924640282239535 0.2902004138143389 -1.8112056515480486 1.1214563206905137
Ni 6.86947871992461 0.8696344787482079 0.21146204561188744 1.518982550876726 0.7804750767788817 -0.42381241757625077
Ni 2.5024680907522105 6.677782442925484 9.282263663883967 -1.8189220463556999 0.3678932378111277 -0.8679275512655955
Ni 0.3816086958914939 5.194961803265388 1.1186506630906219 -0.40474871607658036 -0.7874677060466309 1.0555388920620985
Ni 6.545773291320222 2.1152868923614183 6.949474805115224 1.1491069925282469 0.1307341679934845 0.10553092925497953
Ni 3.283001869725023 4.525859815751347 0.26044876114430004 1.1181295703101257 0.1202021581139091 -0.6165158281836801
Ni 6.504116461529432 5.9147038159491645 4.598795328476436 -1.1257240948279323 0.05698747312863734 0.395822360121228
Ni 5.513454422356179 3.2107802654131805 8.974906920528177 0.14175314481180748 -0.9487995443213143 0.7179687307145441
P 0.22541886379820333 5.847256816498286 12.334600994948245 -0.5326464430625343 -0.9663550367065744 -0.9994667316588788
P 4.329315899782486 6.641374939702677 12.59964177568158 -1.4675355479503436 -1.965226300873299 -1.1338937751229181
P 2.3309018399833494 8.645348721032077 1.2655706409280352 2.043088303458101 -2.1769741297066894 0.779886037044631
P 6.705544533522415 8.039074325589091 5.72326772296254 -0.775159063882607 0.4504593307398178 -1.1524926211710282
P 4.887908151460999 1.260395261395184 12.61615661352763 0.06255673968629871 1.515617491059235 1.6111018347114898
P 4.32079829684696 6.447642836921537 8.011294889391328 -0.18468748228148837 -0.359786035322961 0.052667762707360906
P 4.972810302908368 1.3774141621750098 3.9232599489059483 0.15343598046637447 -0.7016977614686625 -2.766832503203841
P 0.36382854211096743 5.635603969277232 3.6460197332286217 -0.034177674322973396 -0.11635733044652219 -0.5376120145979257
Ni 1.1322751760820253 0.09895482690144805 4.699220879743279 -2.2359277254227625 0.45406556003383736 -1.0170247951473002
Ni 1.8936922770837852 6.865562265841715 4.888835684642403 0.726328158422833 -1.0066442232439243 0.4708895735697117
Ni 6.346152813519343 6.120294832142148 8.960075518889317 -1.1329653497713779 1.3429774268605836 -0.839573939823567
Ni 8.9114667548698 2.7686591586987035 10.139169210399588 -0.5074653158112163 -0.24904682239416462 0.5708010997553846
Ni 2.5075439613118595 5.257889817236001 6.915349617791539 1.5546589212324127 2.3989426078268234 0.8396150774741474
Ni 0.675283411895224 0.6319714466143904 9.090216823162738 -0.05797092008782919 -0.4033037560999376 0.14897537359185956
Ni 1.6282863258065903 1.2649142468754475 11.450409905395432 -0.07309337755156445 0.6150842379434762 -2.329134843005066
Ni 4.2841443035070474 7.3783164850022445 1.2657933949597895 -0.8400408521576566 0.28958257772468193 1.0414929554919934
Ni 5.900936886445654 8.161826403907513 7.821439984859617 -0.4413607108726592 0.17142187552083382 0.02330447905389535
Ni 5.742398094828987 3.06226540522546 4.902704861898192 -0.9437534972569748 1.0121931780866116 0.21929633060460943
Ni 0.970267264298691 7.961676428818039 7.020746053086672 0.5225456071831065 0.41295233493329525 -0.3487778571379155
Ni 5.264764152724159 4.62269391471933 7.072374777503908 0.39927458033588653 0.9120186280475389 -0.7404376012410215
Ni 1.1924644109736926 7.656466888260141 11.34073823595806 -0.2922128162586774 0.5556115364991399 -1.6918352453068153
Ni 4.9324589578118765 0.5124237398183369 10.735150361137531 -0.7042855768004967 1.0285608208113577 -2.3618395323269388
Ni 8.493328223623305 7.481805817132069 4.578378643369242 0.06049111540652163 0.1267096202151237 -0.03148727197500384
Ni 7.6155586580842645 6.311881557978114 6.658326156348642 0.6763346001135254 -0.3963769470731174 2.04916973376549
Ni 2.706936207522826 5.237851083641703 2.5389048076185268 -0.11733023588275278 1.001218938463295 0.4891834867828931
Ni 2.6732127077973873 5.2904173834303005 11.359297115923368 0.3424871390331972 -0.05468736424055098 -0.19947723899615324
Ni 1.1959426604039558 3.452605328820638 3.5239213101837086 0.12122982804747508 0.4080543834110456 0.416017089901548
Ni 1.7068162512636083 1.221997578708342 2.310421250030981 0.06635683015867927 0.7231371622893611 0.8184091328204938
Ni 1.3617666043706236 3.599367370397832 8.077114141142951 -1.503660832917991 -0.13349527567838942 -0.5719323851463506
Ni 3.975000050339063 2.5615070384307197 6.967486842191101 -0.0923221438741894 1.2836381656703182 -0.17486869641885366
Ni 4.565407785651348 7.080693362493031 5.814553968442935 -0.3957832793531765 0.24603683192324718 -0.2604872030206224
Ni 8.837729692800938 7.4251678657794375 0.3921228687755729 -1.3254545874854722 0.9859710111652891 0.2079179135643387
P 0.5654191149959689 6.124393871496973 7.864210584809178 -0.21293130761853005 -1.341956184684921 0.873405029440399
P 8.777458294536903 1.886105859035101 7.627443133434175 0.47801692864311224 -0.029956180042458088 1.515359609412158
P 1.9045104544456273 3.3933746666066025 10.177785082486386 0.21452847690232085 1.250576093009027 2.2708412494704957
P 4.5220803006224 6.324881629339518 3.468283926121252 -0.6498113570120163 -0.040848658585245785 0.1457473535728651
P 7.135651529343909 4.562504679827663 9.946054245837571 1.0127529072448236 -2.4467419866982896 2.379219418366283
P 6.574156171841712 8.182321600681636 10.310144797813757 0.6977061238107661 -0.7799513430649277 -0.3721466137708429
P 2.816441724362739 8.636046001427253 5.80676396781605 0.3758320330422302 0.3404338560485944 0.2659016891679743
P 7.136938755511015 4.311997686739942 1.5736221212435197 0.9279183299969309 -1.1719525296678528 -0.9777740771767933
Ni 2.9229802305337924 1.9135392961425572 0.060256791442281125 0.7548167527808292 0.2548847692321804 0.481133362784907
Ni 1.816385672948697 1.3081504392684302 6.720951991694213 -0.34375957798771767 0.032882352550317566 1.3383363285441467
Ni 6.956480601999171 0.9667159807596559 9.362152936690505 0.5294865572773139 0.4760865443896188 -0.5629700337467402
Ni 2.8017162221815983 1.9664342494206277 9.026094701513705 1.871080730637126 -2.089276371978389 0.2662163921949157
Ni 6.805199574941714 2.1032727814684358 2.4018407827598853 -0.7435992867984549 0.5234470359514534 0.6433244637360921
Ni 4.416701210928101 7.381922544122858 10.412681947750468 0.4832077288154324 -1.0807166768793064 0.04278444215537793
Ni 7.512498401343474 6.309654017660571 11.161746242179817 0.6202747810054801 0.6828343489052563 0.8089315323473617
Ni 7.880900704516284 3.788963916769763 8.16560774488918 0.47086283409683427 0.7464172158632242 -1.3392889222654032
Ni 3.2212424014947594 8.657326314870675 12.386016094597323 0.527375167361266 0.1521491433341509 0.23370376427919107
Ni 0.47280547458864364 5.200128966461001 10.004604777913666 -0.35704266824986897 0.4142877659152671 -0.062196785243718695
Ni 9.11477545516366 2.5239127309403684 5.62205340332096 0.2143204746565728 0.11092536079767348 -0.6112581793291666
Ni 4.190350249316696 3.061014696112741 11.217490438626351 -2.64889445853376 -1.236638142771696 0.2717571195074868
Ni 1.1056998897526393 3.538767318644323 12.461469458222323 -0.27325118755451006 0.5228747083877512 -0.09186680150432565
Ni 3.2897940418408123 8.60100788774392 8.002957132948653 1.467726323804911 0.2589391418072121 -1.3672039035081163
Ni 5.845184473661883 8.09584921589567 3.423014646725331 -0.06814246130419231 1.0114925524751612 0.5782660406738621
Ni 3.250428657212742 8.52607489214392 3.6070176932916915 1.1497685373716457 -0.14934509822645248 -0.9439494153178648
Ni 3.5560033683144985 4.584113646760558 9.194944996362608 0.771382370448994 -0.6868573540217203 -0.42100297315191365
Ni 5.420198994718021 4.921768590140386 11.189284665818631 -0.3594325086382842 1.3620840657830477 0.8578755663462322
Ni 8.2524069573119 9.048761750097432 2.38949527959835 0.6569654515582943 -0.5485985955164165 -0.0013981658991072694
Ni 4.924397818056175 0.6710218716483819 1.5309720275734318 -0.857667049879852 -0.008163766757714973 0.7072588004962077
Ni 6.06260701547592 5.958880322492586 0.4218897456582924 -0.0006733719179407758 -0.39069429486604323 -0.8133116636929283
Ni 8.311591973207953 8.875387905136465 11.58472145727973 -0.28880199080491553 1.0903457153286384 -0.09523931752098436
Ni 0.4756565436098279 5.013362491803982 5.765169217017716 -0.9206189681220404 -0.4749151497893369 0.09675703971709143
Ni 7.44082455284742 6.327045264811886 2.3617295372959815 1.5390644092282657 -0.53362166249161 1.2534942950970862
P 8.956875711998746 1.6693406242000115 3.3286682720873912 -0.6882706894294791 0.9542690520763178 1.4358001645202756
P 1.8063160952017672 3.480093541509673 1.403595977243387 0.5213734412518762 -0.7706568051368792 -0.5841878054749359
P 5.057812876255299 1.0599896669250075 8.183859881597645 -0.4332257404703507 0.925755003797025 1.0785327818541102
P 8.585725500483393 1.9933199307122946 12.336471581059165 -0.5800053919624721 -0.6605056035010689 -0.22806482082585883
P 6.697638591247854 8.039275169388214 1.3450454451672902 -1.1652542917120707 0.340049219015666 -1.575093792047997
P 2.268713296364051 3.4521032193228316 5.886840390526313 -1.4555130695681708 -1.1680138567350786 -0.5518476985813335
P 7.3699905966022445 4.114705171156169 5.994481711739823 -0.8363274078618114 1.14339528685545 0.652299670651509
P 2.590209443178088 8.920942930482957 9.922938950411252 -0.6424173785407904 0.031230932989823632 2.474513757494919
