# total energy = -340859.05024861166 ev
CRYSTAL
PRIMVEC
9.36468051565728 0.00000000000000 0.00000000000000

0.00000000000000 9.36468051565728 0.00000000000000

0.00000000000000 0.00000000000000 13.70615653107735

PRIMCOORD
 96 1
Ni 3.9126851487514123 4.318175803520259 8.07916249692293 -1.0905359769625735 -0.08281677548691543 -1.175654146889156
Ni 4.994286988116129 2.481808830150813 12.902893373073503 -1.7191419035415683 0.4291163462876674 -1.2265565901659778
Ni 3.340034951543214 1.5978672967954737 8.682850053879404 -0.5936715765956551 -0.49932366054068844 0.5545067334707353
Ni 0.22698299280411688 8.1100565770634 6.312424730606666 0.5550749472693796 -2.0756315275014448 0.9439805256661161
Ni 8.407516280483208 9.179840189954254 0.3875048498831874 -0.03357192241817444 0.3694166164341896 1.2332293742004632
Ni 2.2433091535768415 6.595544299161634 6.841893450720069 -1.4308847294965292 -2.108044139504196 -0.9704523467043996
Ni 2.5733298502213895 8.13663353960922 5.316137937711709 0.15859155652538495 -0.07308540713176445 -2.3414368003008708
Ni 6.261253308323677 4.333655619971365 8.299530279599361 0.36511284685251316 -0.21193320537131885 -0.5542089997246584
Ni 3.3787672690518504 8.618596173288976 9.935071685035368 1.345345412872128 -0.7280261149505461 1.6667713603596521
Ni 6.782641245850474 4.008841685545097 11.092762487888825 -0.2892164526345148 -0.3621709906153698 0.4093229657108241
Ni 5.482851721371222 8.699844139126725 3.247358329929948 -1.0094364412770809 -0.4790474267901556 0.5577522369912266
Ni 8.86459695874216 4.079957067353748 4.789808258417671 1.1032814495537 -0.8045747980405628 1.3567158594925988
Ni 1.9253595297728718 6.7015243855362066 11.819914925712226 -0.5642866956756346 1.3924349101607632 -0.49525154735384386
Ni 5.490914711065355 7.76121287311896 11.539994331930215 -1.6720056121753977 1.5143165128596243 -0.40248923061844233
Ni 4.206614367717458 2.4639878436375313 1.95320915236449 -0.007778101283522089 -0.7827343051267036 -0.2306752618655124
Ni 9.03299263897434 4.96590264228231 1.702606563037094 1.4504305128389408 1.1021416795223018 -0.03328987240138138
Ni 8.010200991571478 4.614464921908978 13.317778675067848 -1.2014927052188147 0.35281706020429554 -0.9411844509782177
Ni 0.5527015553424106 1.0553526406276024 12.638405772341354 -0.0728789475479132 2.6950501311542165 -0.7747602857822915
Ni 7.509508997394316 2.2827812808251253 12.928167708596728 0.48480618365080375 -1.2972734970655657 -0.6457829525789136
Ni 3.2829946841483633 4.270921626985303 5.434147892333767 -2.5516573938564573 -2.0028711078092667 0.9957933965723497
Ni 3.016241767264054 6.459344389624495 0.3720156687518324 0.00624855201287311 0.12170702479420975 0.1612297654791804
Ni 8.934775872525941 2.834239206630508 9.190210636861668 -0.5281809510920129 -0.9609747462312676 0.4778678046597577
Ni 4.165278669099683 4.026924883105342 10.36005866761399 0.5983445565912922 -1.9668520094021802 0.14170429385174307
Ni 0.02380689012825317 8.535119413552037 4.048442108912788 -0.46281322431948035 -0.60008802164496 -1.440501940871319
P 3.5678869866744107 5.914507292754946 10.825149893357683 0.5551754774029859 0.8275481190072844 -0.32410143743715797
P 2.056877099185659 -0.015453595346409952 6.9253364976081135 -2.1078189108672665 2.1126734107460905 1.863752572406829
P 6.205926777414339 3.225242701054611 0.6287970741073228 -0.8893101307064296 0.7836871559582761 1.471543640668472
P 6.970768307366672 4.243745324903566 3.6553221967524774 -0.12353559336251628 -0.060992480522972375 -0.028278278119402915
P 0.763238296693755 8.467300399190929 12.888939999502936 0.5351866929858847 -2.3091586569934557 -0.5627879996429211
P 2.7462018476124497 1.7031918555526382 10.778205687738959 -0.10346941874026051 0.3773009042782728 -0.09906563324561002
P 0.3013357445747454 6.77790271764463 8.121966577403702 0.3211881204451049 -0.002788104268098424 0.39444964814341743
P 6.506205249589006 8.480963467673787 1.3107471368382597 0.6356587196607182 -0.47854837566655 1.1235713101509874
Ni 8.277843553079416 0.512021384342044 5.918428284375078 -2.011037188559827 0.9136011420433104 -1.868201609317118
Ni 3.5729439140087105 8.040477002815537 7.708725713261027 2.2321615735121103 1.5418915942644156 0.7492099481170129
Ni 4.44468326899999 4.3326816932255 3.402635966069745 0.8743205992761329 -1.0858236590885688 -0.5824582243783388
Ni 7.655223422064137 2.0962930383524503 3.8875999797692113 -0.4481083140091379 -0.2838654727352466 0.6342199303316626
Ni 6.046258979173951 6.23812254810938 4.025552957448907 1.1138756801297784 1.0536900117788177 0.40276228177417084
Ni 2.718079712825594 7.788604562846416 2.8772511830128016 1.1302893456011116 -0.8811399361908115 -0.10264435173580388
Ni 8.072710232231572 3.0715589334931437 1.6195334210188732 -1.225680872429244 -2.111538782921015 1.5666204644696633
Ni 1.8714845243020826 4.0245743483629175 1.6721919545253559 0.5529406745351961 0.28690683066473166 0.30138754077941
Ni 5.553152375998237 4.449309421042849 5.687533664631077 -0.20388385270428114 -1.5574585954647369 -0.057039409412495315
Ni 6.739544987345942 0.5690373035682483 8.03160209534384 -1.6366681132163685 -0.8245892934892767 0.9491132189069911
Ni 7.508722364253424 7.191044316176667 8.0712540244529 -0.5882221234453096 1.081553313847989 -1.0813180579087314
Ni 6.490762891858894 5.388324638940812 1.677071889402955 1.7222565379111499 -1.6439625899952526 0.9565002553996819
Ni 2.5748188343809333 2.189274948541824 0.3368859437348723 -0.9938555561196885 -1.0107140224379239 -0.7175591539809514
Ni 7.1366355239317025 2.6168475193371132 6.993305346853201 -0.23411874032942256 -1.1194210354280398 -1.3729809152012094
Ni 6.221181841539477 1.2275878397617508 2.011391910749683 1.0509780121642933 0.3742274075592716 -0.7466977232181204
Ni 4.367237363343214 4.582774843947367 0.918262149998812 -0.467879068878162 -1.0529245943677028 0.2394074995321877
Ni 0.968448407919637 7.437129383752089 1.0398325560514265 1.4768401131807212 1.2182167028417148 -0.2092805982398202
Ni 1.3429607004257738 4.519619440350112 7.144937312972178 -1.4377338912078788 0.2626011640398316 0.037207205177916564
Ni 1.3479895337193273 0.216785792481304 9.59992850829478 -0.2295673735133143 1.0281651280348356 0.4895681238158214
Ni 1.045866219535666 6.334101155978339 4.8555014903623235 0.6308080764366362 -1.2883427702348393 -0.6964267428777103
Ni 1.7873054135464899 3.618484354058154 9.281136999736452 1.2333643571164306 0.3095875600916991 -0.8482706962666164
Ni 9.043865032743085 0.26116688511595804 7.975776426977246 1.105150898662271 0.27890401496491324 0.9249461347424844
Ni 4.756911073172002 5.310803815842048 12.50246807385118 0.45780985756761805 -0.16940998729712758 -1.29682561089487
Ni 8.409782533103394 5.478019546362891 9.651285351246692 0.21334654077907775 -1.6784261709897608 -1.5331282462494886
P 4.486824330119155 6.2530030250245705 2.4550052423429753 -0.5484846956463715 1.1777092296459717 -0.6525092155591536
P 3.6725466531339173 9.125955819803217 12.350370683123842 0.9020352915825819 0.3604390955259276 -0.10741631920315049
P 1.5809734136268132 3.5048907826413847 3.8213860716027304 0.5557025535510494 -0.46103582070408344 1.2128940050772208
P 8.650033404883875 0.6443358880439959 2.526538288890719 -1.4451517809385048 0.6778353530287682 0.2319757258444908
P 8.462646153107324 4.106065795887132 7.522377004524059 1.3065168700407046 1.9486676251836699 -1.13589666448556
P 3.2303089930691593 0.5544096730197741 2.829320876563889 2.8478808739364245 1.3996792504280022 1.1122345449819295
P 0.354904525001402 5.235680350886951 11.23393597910605 0.6174715072287301 0.2834867492395892 0.9463821931290733
P 6.0184739728760475 8.219005267076813 9.452930185962861 -0.26585540931107116 0.43922129593215326 -0.3430736076642866
Ni 8.496761683253348 5.955253016517053 3.6035673548899947 -1.198696116310284 0.6463578512457772 2.3569374670396313
Ni 3.8847034841682873 0.4953129218423079 6.04686861985814 1.5146450998436365 0.8677648004354861 -0.36212445364815055
Ni 1.3268815444387505 0.295980083940512 2.301674523226884 -1.3406976296874717 -0.259810745778888 -1.877725232536837
Ni 2.3858021282411084 6.203360855026195 9.006836150571688 -0.3512440592902209 -0.16277268448626805 2.0272222829601216
Ni 1.0429350746178219 3.2269002494586316 11.333373899858877 -2.1415384146068988 -1.9955568335360405 0.5135341477131156
Ni 4.781221783097635 2.3293424710216772 7.063960922861642 1.2334234924891403 1.0045194635914378 -0.8737264173355598
Ni 4.042002018305754 9.018870701159296 0.9116225917024814 -1.4861122825112665 0.024060383383313403 0.9041142855987978
Ni 1.4876450102682375 0.9134046903538097 4.707708106677291 0.35022024601139684 1.2047654624328155 0.1641248276387883
Ni 6.052917266830779 5.928573042488498 9.781836485657815 -1.2965366188995413 1.9786400031760438 1.5337059731298295
Ni 5.7902754445756495 0.23675503664363862 13.365640619350945 0.08858658809115712 0.48358465253887684 -1.3446980090961165
Ni 2.6599906012428884 3.9535713427172507 12.468585724243347 2.124306881219961 1.303560358515542 1.4734172035421012
Ni 0.7747044111902671 5.5408752801921874 13.449261595163714 0.7746078193648273 -1.2026515014136063 -0.16661931192586787
Ni 7.522207503811558 -0.03437024944879033 11.928138789474389 0.7650433156048436 0.42955754759014414 -1.9172297183893625
Ni 8.428671093165027 7.190969398734677 1.8817182468778653 -3.289750663235018 2.1392683876257994 -0.7351210741241146
Ni 0.15600808119919563 2.3828241599220212 6.353927120532869 -0.3103637761360913 0.3635005080600707 0.5789980337438804
Ni 8.530998954242607 7.0316012702622475 12.11876434768094 3.0476820719309 0.005573894543351691 1.930093461725908
Ni 5.39751139026479 1.0366420094906934 10.819338172795337 -0.2426594308105821 -0.18126482975318461 -0.6042202986457786
Ni 8.341607660892835 7.733999112316227 10.073243796232884 0.5233660462018729 2.5358147703972462 -0.6945935463237134
Ni 5.374586653015965 6.884332308671142 0.44294750282760964 -0.1673567043125247 1.357463536291901 -1.001585063553462
Ni 3.8087091039500613 6.125343703874248 4.70673511639945 -0.14570261637785875 3.7386213093314775 -0.5274402162712465
Ni 5.318979181699166 7.955389518075819 5.866947827643881 1.4166585585948184 -0.3935191659093481 -0.010195452475763086
Ni 7.131269562149196 5.7928226376032965 6.357792860539534 1.6479190035398392 0.6144782289283611 -0.729557463993408
Ni 2.3832268411727155 2.569143838150219 6.479927956811144 0.7892129708725117 -2.10490250855142 1.1016955931238188
Ni 3.7393261879874196 2.134697592052382 4.347181964122592 -0.21551809450909978 0.16292463668310006 -0.37826198263996147
P 4.38951593765488 6.07572026323637 6.949459913928773 0.7252495806466736 0.2807480101521874 -0.5894883917522428
P 1.4169135803497825 6.06127992629287 2.704540258122019 -0.8864726612576347 -0.8963356700946435 -0.0800672377662363
P 0.19468327415831482 2.9040341685240927 0.14261658844355013 1.8293247297462623 0.5446915471525264 -1.1944198575324332
P 8.463591985812442 0.7063544194590574 10.00789237511731 0.4909698892593544 -0.22385335384767258 0.6909826890440036
P 7.597752379377846 7.887916996883913 5.133079041146109 -1.2119270131782611 -1.6368180085306716 -0.1352269136575155
P 6.666893797976503 2.5335674178853957 9.454972622725103 -0.8154029990043182 -0.9978664770512943 0.31287240149055795
P 6.18425690731884 1.183508289831105 5.424677391198253 -1.096077218495777 -0.18968596393734427 0.43888216742517966
P 6.709849586277304 6.274045461543406 12.189638120739176 -1.075420975698006 -3.0998631248098287 0.6873052401924163
