# total energy = -381179.4351222664 ev
CRYSTAL
PRIMVEC
9.10807352654743 0.00000000000000 0.00000000000000

0.00000000000000 9.10807352654743 0.00000000000000

0.00000000000000 0.00000000000000 13.33058626429216

PRIMCOORD
 96 1
Ni 6.926744335565111 4.377531261165118 9.048654887066222 -0.035592552392629026 -0.8161457907076137 0.47919835054572313
Ni 3.286948789426703 2.7088593818765747 12.181089768278271 -0.05613592376161946 -0.04961020682795972 -0.12535850550386798
Ni 8.161990334326036 0.3127694129098768 1.1020140144423096 -0.24562879785155117 -0.7954013590714107 1.7355401423939338
Ni 7.143443613719084 3.183645022916012 11.112056086981369 2.1666501220728622 -1.3132827280096284 -1.5990449035469558
Ni 0.367357738972756 7.27343403477715 1.6403685417438447 0.4593458345961702 0.7149623397880526 1.290545691423429
Ni 8.420969288387488 7.563872273755541 5.5063721944824575 1.9076276765232245 -0.3468055639028931 0.9771544413149236
Ni 7.827523669381089 5.790493984679755 3.2755245331813883 0.11023784781234564 1.1739225089100298 -1.8912713466523883
Ni 2.6279068270584633 6.72611169857891 1.0769914048730254 0.6616762267704024 0.22622133985921686 1.458404532183353
Ni 1.0280919813460816 6.269442015182725 6.796772130653494 1.768870381114947 1.7358782424596428 -1.2128022166943628
Ni 5.155133012694852 4.1424245670247135 11.055881134562807 -1.8267423137310668 1.10053396871555 -0.5577545509840717
Ni 5.571126041071045 5.0540789402705775 3.8070953675454198 1.4230557203704137 -1.172808964130877 0.9942180816654295
Ni 4.803306360184274 2.2573721921450507 3.150110918918563 -0.6565013674376822 1.4630744268551965 1.0366155727950341
Ni 4.5682816387028895 1.3761387834685495 5.348897251662564 -0.32979308850529654 -0.14549924211780102 1.5528892309264999
Ni 5.963438079063903 0.15340454489592784 3.9847656411256875 0.9586337568029168 0.11812650653180301 -0.6347452067075132
Ni 6.801963732391379 1.7012605652853034 7.459995609439037 -0.0686530823920237 0.16680160314000303 0.5202768657535879
Ni 4.148827542501439 5.143483787040895 13.266265687750705 0.36245226930121444 -0.2696722119540001 0.12784321959893466
Ni 3.447105149003849 6.777599636516216 7.699465981461232 -2.5110812722063076 -0.3702941339431365 -2.3191967579557478
Ni 8.822243670433116 6.800470008382585 8.879943314309436 1.445404777489575 0.032382530095763584 -0.19507525327371567
Ni 7.484468091385571 2.136617357336486 13.298539234413903 -0.15423019423289566 -0.26990926766547063 -0.635110560466732
Ni 1.2996765087500473 2.821098168220363 10.930666987103596 -1.2846504089849167 0.13996494256313316 0.488283600676443
Ni 6.877833982350299 8.832599549689213 12.423119508876512 0.4657951897659397 0.21645423317012397 0.4998131985825974
Ni 4.647285065850987 4.949436286995906 8.704179360455027 0.3121697189965785 0.5847645039140122 -0.3095389662419508
Ni 1.9721984194903397 5.6538819943875795 9.17894860696266 -0.32916779621647185 -0.6708699774545285 -0.7422887955171474
Ni 4.841705996898176 7.98725194951669 0.9152484189401959 -0.06903129166704886 -0.6841643805705895 -0.023866007984320186
P 8.705405307111025 1.452209411038404 11.414940508020848 -0.18289593759870434 -0.27195997954691226 0.07954221850070173
Ni 8.40390986723826 4.604267636012336 1.389473913476335 -0.39535801889029976 -0.6464627522547576 -0.3710484956106578
P 0.5123591755118893 5.808154538661789 4.458867265865975 0.7293756869999051 0.9694406176104338 1.5394421042826585
Ni 8.997018487535358 4.54655888406279 10.293598251389126 0.03831535064043078 1.642937748275164 -0.11002161803648149
P 5.055791258036757 3.4323956107465077 1.3250333846066655 0.33288072629168475 -0.48630847922794307 -1.6003497384013083
P 5.126214880207509 5.60690255269633 6.081146263378919 -0.44349549782747494 0.8610873884153106 -0.2193418391305642
P 8.23814293455491 6.383602604976852 11.67592688142095 -0.2764465545633562 -0.2123201563970924 -0.2625651685955736
Ni 4.2723967719363305 2.5981598599077036 7.657794724845141 0.3038025779788058 0.07212561432165643 0.3005048810641405
Ni 1.7585048055004058 1.4564993135270776 8.775697773027346 1.1722227526101037 0.21975655807047959 -0.37031855942316866
Ni 6.504922140325327 8.783853141792438 6.57159232552032 -2.341062704790904 -1.4525581007049047 -1.2065528933505414
Ni 8.35391565330975 8.609114756983091 3.422108042039593 -0.20204140017890362 0.006430329006376022 -0.5969458764715525
Ni 3.1002788286934453 3.4504022715110674 9.729021581274656 0.39187237433454447 -0.6564586871252049 -1.1815998229496294
Ni 0.6124286652206099 1.4267068060101962 4.441831525707133 0.8457075635251305 -0.4035721792699759 0.15846942912522385
Ni 0.9205165284931658 6.102263331149597 12.949424055302218 -0.43511807239705713 -2.1385937301562783 0.38604522612980613
Ni 8.725443068204617 2.624855622528303 6.326483145364924 0.27518234313895185 0.9510333187478395 -0.2681539755372607
Ni 1.9152456376184166 0.6177213665712855 11.363498110449664 0.7659249468788486 -0.60458282419152 0.9781049781536512
Ni 9.023003820444458 0.29458696633208703 7.1790406963018505 -0.46600036379821036 -0.1435724574087334 1.0336698599031486
Ni 6.196959968463268 3.8241884885655764 6.849388558863299 -0.20915924217060752 0.6727453401003703 -0.48418603356830164
Ni 1.9001535602856523 7.505589713192861 3.4856414068161157 -0.5378428996618093 0.41987503019505756 0.19024312199239493
Ni 1.7922411087234351 8.64009131401914 5.805123371892722 -0.08647288418226398 -0.9188899012460756 0.38399811379279025
Ni 0.43969587813526784 8.322766042882439 12.823943952104855 -0.0022641134438283585 1.526677091307506 -0.28536905386396666
Ni 6.398567169284476 4.164201970104159 13.057855667038224 -0.10452408525701998 1.2220504747655083 1.4229019684013688
Ni 5.832937605905273 6.701556333166035 12.197566272741138 -0.48482598114514563 -0.7811970425465707 0.16887339806736723
Ni 0.16840645230377116 9.055783775978929 9.81144417911118 -0.7011115499478893 0.07466046492836818 -0.4294863280325765
Ni 4.1509679397091634 1.088396534164569 10.159906309372678 0.22140463519686387 0.8006122138483889 -0.6151158625123601
Ni 2.4193410582938437 2.288603775231381 6.1604639190532575 -0.6903985344057595 -1.0245061911260096 -0.5776780293808762
Ni 2.948164897773409 4.51033607684951 6.948940710012877 0.2163251637914274 0.5591676292815144 0.5658339855580965
Ni 1.1668170446263084 5.165197433607769 2.50798993498654 0.646363250562416 2.0587316664223128 0.025555736981917276
Ni 5.45812217657641 1.9637279113916848 12.044863960290808 -0.3477198481870463 -1.0873421526156242 0.6844178913422923
Ni 2.0656381426990484 4.207465317919868 4.744742360158962 -1.5025598865443284 -0.9033936053826893 -0.12130233315662334
Ni 1.9034597908660948 3.128213289272557 2.7619904162235565 -1.1169219231552698 -2.597893284895545 0.5204527292098198
Ni 2.6683375641013973 5.012782936271329 11.355726191567317 -0.5889590016113341 -1.1363062412191527 0.25743273246501475
P 5.75300515528829 2.354491576936401 9.19418459185237 0.05805036717551292 0.969115630170847 1.3030530798618205
Ni 6.606932560438159 2.4480770293167 4.770949930054735 0.5184133301822879 1.0472095462607964 0.3229241292996052
P 4.42311716765304 6.266472783311583 10.450872816598082 -0.04072498852318793 0.5184282425806233 -0.15711805730365197
Ni 7.6783061057464 6.727250207731955 0.49413665341191226 -0.9980189434687586 0.2897083046692688 -0.6849143713627366
P 2.819449606966754 0.6190857559402947 4.3463042321154 -1.8455442769289185 0.8507500110450446 1.4685711883037096
P 9.058671035191052 2.0755750505868256 2.4291395234686104 -0.2661937664870964 -0.41159633512603305 -1.2126242963556018
P 1.7574664851528286 8.293337858294532 8.033504566964636 -0.4056894827232949 -0.11782928700635838 -0.12965147645226704
Ni 6.810224754805874 0.6148313749371961 10.19448510936896 -0.013635588505563614 -0.1407974657667575 -0.9233350815016228
Ni 5.774527532317452 5.739789341039743 1.6929312323216261 0.28141778252570243 -0.4511105911705715 -1.6608897047678943
Ni 7.667367309803944 5.087441812491408 5.430214129409649 0.27753361697994783 -0.7148798073765753 0.8605014340048535
Ni 3.710847625361641 4.5285613313714554 2.449282027404283 -0.7566368367087034 1.2149125781691463 0.35499427036127246
Ni 6.435600595014724 7.084068084369481 4.64749546234247 -1.5382781658815443 -0.4051382382055152 0.31371469488619524
Ni 0.6748426477978592 1.8084625871360205 0.13909940508974805 1.5252866387178827 0.2897525276436429 -0.061391001512971693
Ni 6.919303039740809 6.191868555530851 7.382824726623681 -1.311682473402044 0.9099393769210071 -0.12828827755615327
Ni 3.146329246915809 2.116761757707381 1.2486694770789866 1.6096139373120535 -1.2336415220372172 -1.5402576582054182
Ni 8.822799262899801 3.6463260346402744 3.9297902219507734 -0.2546042618772841 -0.0989260223439522 -0.016693915715913183
Ni 4.350243473784936 7.933924180788062 5.581049286848985 0.26841391406686677 0.7411361699699429 0.33291646462562663
Ni 2.979132346736233 8.1536017988864 9.844517414603475 0.2664853295855862 -0.4512460883071712 -0.46006445792974954
Ni 5.071830574984855 7.765188016233569 8.4930760824901 2.890082961225771 1.4046936729234583 1.8144624679224493
Ni 3.0851867513606805 7.082219145504936 12.096373757603855 -0.12928072337640958 0.44504972968847223 0.6517635956423807
Ni 6.790186993712282 6.649640315787184 9.99567317622031 -0.5761371672563175 0.06589248892775103 0.2845005352160842
Ni 1.5404393163627792 0.5374792414646742 2.176377740190107 -0.5192013733012218 -0.7783757710476917 0.2912208846590533
Ni 8.831961984563508 4.830311797294502 7.649863414681367 -0.870049996925237 -2.7216232536570546 0.8868529274151887
Ni 1.1075963525215198 7.1092610149080615 10.871866177174448 -0.664588515321191 -0.4870651548883096 -0.5650490277629558
Ni 4.252796198357508 6.864117224074413 3.32278177110598 0.08822637653826094 1.114872496825409 -1.4698778229302751
Ni 8.613231606080502 2.3638364600645945 8.961086227857937 0.10932819151388269 0.5057341920527225 0.3715164363860118
Ni 2.1045296153670656 4.129855425975097 0.5387598365600191 -0.9250183827413166 0.0937323939581547 -0.7233269097026639
Ni 4.374261462877573 3.7285537197097964 5.084978989491541 -0.6834125900062294 -0.5750066531963001 1.041454388944574
Ni 2.980489449646663 6.169945423279816 5.061170486083065 0.04867869615262584 -0.006186074206053862 1.1998027191109015
Ni 6.97806832818438 2.8575760014839244 2.376737134979578 1.0109929871309233 1.2419438712553255 0.4627777430958547
Ni 5.75969048103497 1.2664320414811334 1.3245734269088354 -0.6097034332475371 -1.876813519355845 -1.5615625903307815
Ni 8.82309072124298 3.919968986592946 12.660257303345947 1.149335306488969 0.5775746710337925 -1.1206873037349732
P 6.312823767950351 7.699591672871729 2.3907872487354753 1.5594949091684753 0.6428626936083252 1.006041299552603
Ni 3.719837293634084 0.3871304551355191 7.424056974110358 -0.47744460107941 -1.2021406232154586 0.4095834184610624
P 1.3141128048106578 3.404761716583799 7.692174968845133 -0.45652173488381376 -0.8534604679976722 1.087581779430256
Ni 4.509252216135812 8.7427848396238 12.156761193888684 0.0030357015025302557 2.5852596552919347 -1.1719296468497171
P 2.691499394310945 8.91331529460349 0.3693050450281241 0.1036033732149635 0.2751412054883713 -0.43739529846700803
P 7.347910749532741 8.184988219217546 8.300262726367013 0.21062065720748244 0.5347768591419758 2.656011014973884
P 7.765443042283851 0.7396465887891804 5.35339026418414 1.4201999960891734 0.25232780713828157 -1.618165940647123
Ni 3.914513250731554 0.18195471122500664 2.788572327928851 0.6446429254371995 -1.4050140323773546 -2.387205007674921
