# total energy = -340897.25370949385 ev
CRYSTAL
PRIMVEC
9.03851896123186 0.00000000000000 0.00000000000000

0.00000000000000 9.03851896123186 0.00000000000000

0.00000000000000 0.00000000000000 13.22878612726673

PRIMCOORD
 96 1
Ni 6.466156278889416 1.9273918048964729 11.4366690987972 0.26098188326885374 0.4107175320655056 0.3708173534364581
Ni 4.6667679758403455 0.3523178435680709 6.0398536404920895 0.03153895114854568 -0.10607034669821733 -0.5288075289324183
Ni 2.626277186434866 1.513762073570199 4.757389068191161 0.17424109013718378 0.3296190248212775 0.7736732233656999
Ni 3.4194975876584266 4.445676769888551 5.210342682831055 -0.17798898721539022 0.2777331345852636 -1.3626674490903434
Ni 5.072263040335475 4.473461176376259 2.588569390265033 0.8014663343185681 0.6745381703347351 -0.1749676838905632
Ni 7.477937100828415 6.106857083476483 2.680905993465349 -0.4435762304667393 -0.6467586862286215 -0.23827132904521542
Ni 5.005441271576977 4.601934681196127 11.374506686429209 0.12627664644276318 0.17609794084026448 0.02291264293211538
Ni 5.563316722856838 7.880205414147191 12.411365782356755 -0.12257091545640181 0.6137716897796397 0.4781927920993441
Ni 1.7353323210131613 6.5847416442500935 0.6591357839939425 0.9345018967517195 -0.24701822199991005 -2.745608046607426
Ni 2.735796917538169 1.4911115457048136 0.3232544866841333 0.03530201773540372 0.27980621506420844 0.7639469972168713
Ni 0.5877486594394324 9.071057368595776 4.8463922656944485 -0.27992268603741466 0.0014624434781394166 -0.4508570803988687
Ni 8.718473792577887 2.297220874596387 1.2779579668764751 0.1921297974921465 0.6588950644808395 0.5396699255682189
Ni 7.070462600737708 0.5044415364216859 4.781783126314021 -0.8088474572739875 0.33386700146435405 -0.23491218276499543
Ni 1.0185868265210565 7.322655349540576 2.7441268163732606 -0.5547592158011736 1.1930422604586164 0.21146192216185516
Ni 7.512852898571427 3.8837701392679227 3.870160841659419 0.8309332334294334 -0.44767739711930643 -0.8398061104390311
Ni 7.615611817686179 3.9426832041628086 12.65257944249319 1.1270608113614846 -0.13101853200312275 -0.8666093466748043
Ni 7.814224227627911 8.748734753189742 7.050321165663794 -0.04748107630009887 -0.033410971360277944 -0.027875129143713283
Ni 6.8316739751688225 0.8369794856638948 0.4984101328923276 -0.0007322501803342228 -1.1214681477650557 -0.252422680844933
Ni 1.888770214485941 6.5662669120246955 9.15306294492054 0.10935955897245037 0.5523164106876359 0.3216630031989944
Ni 9.219289075296624 4.768433234192244 1.4063121632494873 -0.14488629112415047 -0.15291173253178827 -0.15563710188275132
Ni 6.463137413643191 1.9013427939994094 6.997683544303201 -0.707423093988214 0.6429285138492541 -0.9372228952273085
Ni 3.5351454344411914 4.350094434622608 0.43953683747972755 0.022417705573567846 -0.021938194833988022 -0.6491834936200304
Ni 5.978157615689083 5.483741604210847 4.886818848289624 -0.64166095999074 1.2274235661519637 -0.7677059500386713
Ni 5.295378874476356 2.873110093647881 9.499379212070966 -0.3200658339152036 0.25166651940519885 -0.7095913052841263
P 0.22627931568632448 5.567863097763578 12.288218676607546 0.6721840682802617 -0.3412080152104575 0.4586770906639197
P 3.825643425500048 6.307566429756911 12.655039727283675 0.09979094144740878 -0.7934668610528594 -0.10839668083854881
P 2.4882770829038576 8.494887955464542 1.4593999028414035 0.6941952824440303 0.19536810192378612 0.2456761061497188
P 6.330397727996322 7.6129906472628095 5.71263937876493 -0.18632733187775652 0.6120076559006815 0.2197167059714797
P 4.770150552745485 1.0416892803215057 12.641732316199795 0.19601601992043016 0.2374622028803588 -0.06673118277896249
P 3.987170793210465 6.231633834147532 8.103544499699993 -0.513992832517089 -0.29261725078594764 1.3105768990426911
P 4.69033139409456 0.9455104028212789 3.7647400787871423 0.7074403203793945 0.7708758631262208 0.3890616443586268
P 0.440848326543282 5.471340756552703 3.582289444135152 -0.7887846250858416 -0.389432140324168 0.3006961711393402
Ni 1.3026403537459066 0.8755875182963747 2.60646746499729 0.20500588212386628 0.648323202502264 -0.05912508829693044
Ni 1.864628331034846 6.580321808605173 4.873180627421276 1.0304665224745029 -0.13027136942445308 0.20410008248014525
Ni 6.045277655564722 5.576259881637059 9.296966105015349 -0.9403879232188515 0.16828641521564566 -0.33331061474025175
Ni 8.694295755051987 2.2802194209192956 10.13826329106284 -0.2687826102601952 0.605792271118589 0.30886456588274547
Ni 2.22301463605895 5.236312154763548 7.08876379340404 0.7733212393429197 0.2016570202562914 -0.09220335890813798
Ni 0.38091662059076303 0.0695387474801001 9.108442489647974 0.366526182260272 -0.34155331436501823 0.2598770802404492
Ni 1.540922822267519 1.1194295796711393 11.346197142004957 -0.8763648833996713 0.4900108677801948 0.2368662211675727
Ni 4.189362456557902 6.90012267729355 1.6258975519856502 0.2599038197133266 0.19898050186539282 -0.2768913554102586
Ni 5.6462270549035996 7.704198339477337 8.068170449058826 -0.2026201555005091 0.6627368068244329 -0.1733887694392175
Ni 5.05367080736696 2.849302635388733 4.82592725165103 0.6698582483605625 -0.5880539732985613 0.4690790027235341
Ni 0.8413938981975957 7.545156564409769 7.000422215469686 -0.4932268036143312 -0.9264047215658819 0.44071125021411844
Ni 4.943084531056908 4.573047575426865 7.051168074866103 0.5534626084769372 -0.5520310182367333 0.6761283976399904
Ni 8.069363533527394 7.050207280328158 9.070251132727622 0.2682596478771896 0.4986096651927993 0.09718332862123263
Ni 4.619966526005163 0.3608782246300448 10.429455440357954 0.018931803907496426 -0.19900235624226373 -0.28917634342519877
Ni 8.32019146600637 7.066621230289667 4.856009249592601 -0.2441097901038635 0.06461413643595969 -0.2855186920679535
Ni 7.276423326383574 6.143282313842606 6.938339342066265 0.5302324343044029 -1.2269327425584742 0.5963244408374698
Ni 2.4759937359888298 5.319186332735503 2.4356575385806667 -0.3899741288705671 -1.147873634341778 1.8292668799251335
Ni 2.3231704617877362 5.23355540655966 11.391929335077778 -0.680352463023667 -0.2566382615881773 0.09483693987624311
Ni 1.0126756352904251 3.2115303108608777 3.6345555823771227 -0.2063677954683994 0.36660023003131703 -0.018214466125497663
Ni 3.54907379175985 2.7471854511017706 2.819967219091887 -0.2266813102147709 -0.5825140173169386 -0.3287754458740596
Ni 1.0077406040795311 3.308820926161361 8.079335731210508 -0.2519997343749015 -0.35014722668161635 0.07533923616294766
Ni 3.3340564703753097 2.5972002717728766 7.166747228906739 0.44498982298481427 1.1422501175074136 -0.9400102281644586
Ni 4.06591436813594 6.956812266587923 6.042538984398237 0.45192434532111847 -0.0644156472719084 -0.7619495071708684
Ni 0.6856927596420175 7.535937275334472 11.342532926523463 0.41256384124562495 -0.8692470414079675 -0.1943409462108524
P 0.294058263575287 5.461687618579745 7.989723337546754 -0.9222824718673923 1.444302802674648 -1.1037733015884539
P 8.4277588770702 1.694134752772767 7.927733560885956 -0.02758588003806862 -0.24245811343305343 0.3001950631332056
P 1.7626015319348964 3.1769670153472167 10.26028600508561 0.2989305945984852 0.5755702390092539 0.9947477289166545
P 4.059036055404272 6.034467587198002 3.78584050069526 -0.12411152047064432 0.7743656214470341 0.37324036105565395
P 7.002022937131682 3.9577142607630225 10.459180416810824 -0.3136799849935178 -0.10654137279736489 -0.0013187188114235353
P 6.2564084139077165 7.748794390749409 10.260180254416808 -0.4925737434113645 0.5522382491515327 -0.8811347939844889
P 2.444132957566849 8.54430153720439 5.979424816011 0.38624140130101225 -0.054955016079640845 -1.505130218374666
P 7.043274736484284 4.120868561839669 1.5388918671153435 -0.15892168617129404 0.2101264911798833 1.0764298765784945
Ni 5.563199222113722 3.003427456282809 0.43873150546344425 -1.0986825173291077 -0.5528113480461835 -0.8223251800454484
Ni 1.3185752622162477 1.0327411468072472 6.987775520102868 -0.26503728428515 0.9602584368905334 0.11867929371147948
Ni 6.727649663435892 0.8377875292357885 9.127147704100254 -0.057879645925603546 -0.7384275127895283 0.42230189446899535
Ni 2.714764284520311 1.554281752907998 9.193014101432029 -0.1257166601742351 0.33054385062839203 0.5262040298713003
Ni 6.175350978194716 2.128598269705471 2.6119836729606756 0.969119743935905 -0.354089499158816 0.3287985858025111
Ni 3.9970770097070583 6.893199171968376 10.517043205832623 0.7509680684587002 -0.05466216742957038 -1.093741885494381
Ni 8.299267295212928 7.002628517884667 0.39886802258335774 -0.38389089879096466 0.21081348994457885 0.03836960091713392
Ni 7.531707248582277 3.908327794579277 8.224706746742402 0.27159025491231936 -0.3556136491128263 -0.5288792627106181
Ni 3.0541425847156423 8.41175166045025 12.202139439904117 0.20405560239545503 -0.19307879166897715 1.3090342371459198
Ni 0.08384039562112151 4.891962669282518 9.98495555225936 -0.20667118564143117 -0.6655074275910344 1.9264165270949531
Ni 8.546262895762567 2.462047301632768 5.694648207290049 0.488547652971107 -0.5489873463144028 0.06179954980530002
Ni 3.6982906969991363 2.6307693302293975 11.522008080818992 -0.5051405243327817 0.1647105249389292 -0.274136932593573
Ni 1.2296904693079467 3.2301767749416 12.564594886047535 -0.648948751901405 0.7067114126331699 0.1042860011042849
Ni 3.199825429142731 8.56455685761394 8.048010033095641 0.3216406346014912 -1.2222031982932886 0.21285725984748502
Ni 5.7007745152657705 7.79018176788253 3.5471133370535446 -0.4366417081304351 0.012832118767661771 -0.037843810320650956
Ni 3.1963546379614427 8.453527693887525 3.6924183713989205 -0.14954101628734248 -1.2675291759235976 -0.17237652612461926
Ni 3.388649123330988 4.3584369873838815 9.243852153719198 0.07594138852332083 0.0911368653168366 -0.20350975719431405
Ni 7.23352651662734 6.2446583395960635 11.393741558077384 0.8718497691381372 -1.0593441247408013 0.37493883180399945
Ni 0.8123766377590346 -0.18866100085163373 0.20542022222753079 -1.0934788616409814 0.7665790355230797 -0.11444160148104805
Ni 4.587988246840066 0.4216035125245353 1.590245114968486 -0.008114401577018284 -0.7998575950705515 0.06501060054342997
Ni 5.883533363405474 5.572264856371096 0.16876089422704493 0.012435911770507615 0.682893741388282 1.1576237717500064
Ni 7.890337593611316 8.94693139127122 11.109970936487883 0.08045367457137757 0.08374288684561061 0.5356438351279613
Ni 0.204333792279638 4.875223332647763 5.739242450858381 -1.0533724805383986 -0.07943371794729545 0.0004468577294314885
Ni 8.02972962902232 8.552689282559172 2.486958363025342 -0.2922071598317225 0.7640377571584648 -0.01655764724836503
P 8.351654549605497 1.5662397131497796 3.3410622262206653 -0.10748445343692457 -0.08781062915708103 1.0538064827520237
P 1.9238306285281723 3.3190073367376933 1.5455848902136349 -0.42553017159830586 -0.8044470142134468 -0.8099255208295149
P 4.664652962464248 1.215870574213703 8.127448670109244 1.075147153211329 -0.5897658137833456 0.6894533968836707
P 8.60508557547044 1.515822855834089 12.504284466161431 -0.1788698471584468 -0.013220869565648198 -0.8426173546355811
P 6.381103817910454 7.565610732230746 1.304833098382835 -0.15828250992539836 0.7242031416600302 0.27864073400119754
P 1.6830173747702037 3.271762999486149 5.872257811325639 0.2958866655658388 -0.9595907213995474 -0.22893745323879927
P 6.752342896527766 3.8290690240878296 5.945532178584974 0.5112078135727841 -0.03818525282046972 0.716514771876837
P 2.3204408291399523 8.576722703785851 10.160633624848487 0.1392334637137473 -0.7939250316362004 -0.8539307227658712
