# total energy = -340866.0826823299 ev
CRYSTAL
PRIMVEC
9.29642090316658 0.00000000000000 0.00000000000000

0.00000000000000 9.29642090316658 0.00000000000000

0.00000000000000 0.00000000000000 13.60625168840919

PRIMCOORD
 96 1
Ni 4.836955539015012 8.743423041529079 5.725497196026335 0.8578264582758517 0.6480984880859677 0.17743234338097183
Ni 6.299598581195027 2.142890028371417 5.934706634635482 1.5816477911164308 -0.8250392365425017 -0.5810070937541091
Ni 6.169857734991 4.695287385152647 3.5277201706591312 -1.8931991598027198 1.1188829035363828 0.5808579697707544
Ni 3.0297406664715534 0.3720836575529114 7.119566121128434 -0.33349907660197403 0.0017437221639840937 -0.6056171789933054
Ni 9.064921155908117 2.4932814180443863 10.853679844590236 -0.38717162642476544 0.3093757011912091 -1.7326584499707645
Ni 4.273211296061562 4.5863891139836905 12.519574249402602 0.4683678355891224 2.0113608904478326 -0.4191998585049039
Ni 3.596803731587145 2.4945457312490116 8.715388755500642 -0.6675224011385342 0.13113551719696126 -0.8138870765804243
Ni 3.83482928519906 7.213287985631578 12.423038358377104 -0.37016866410886573 -1.5284269841190774 -0.3169270311759058
Ni 7.31880235969404 7.652367228040748 0.9035869841463606 1.6534818423395976 1.773803042529874 0.3100290185044919
Ni 2.602412099728899 9.159874796143708 12.481027570934533 0.337363958874019 0.8852125635982884 0.1108788238304542
Ni 1.6444531402892246 7.55320230926328 0.7170087519000015 1.1862594332088279 -1.7047378123010961 -1.1269443403882786
Ni 7.823123882030112 0.8078022439071398 8.666079610878201 0.7587543972723384 -0.9656148161064404 -0.6654950862958603
Ni 7.25784572967399 4.066059155336116 5.437452251256439 0.628862265564175 2.213637546565994 0.7829824165817677
Ni 8.501372137787731 5.040891118205162 3.127573408173854 0.34817904721165194 -0.9607307485412615 -0.2536560390314019
Ni 1.751176049032577 5.871935343309972 12.43921598954393 0.8078848362504023 1.5414771324348162 -0.24563856804356404
Ni 0.3854993221528705 8.709630552567225 8.256096305732529 -0.04897231613364469 -1.120701187692044 0.2907483158980089
Ni 5.478213337116727 4.053945919265333 1.2192776245626824 -1.26605002027491 -0.47215172811158684 -0.17207956370949073
Ni 6.55734184294672 1.0036787560598666 10.639449409203015 0.5646906159822727 1.165882412214373 -0.0009839611798241118
Ni 8.750953142233096 7.372712302882428 2.9961368948483305 -0.10125107093270305 1.2150683870207202 -0.4768419344984045
Ni 2.9216604803173536 2.65914815478645 1.8082570012952124 0.7028138773509767 -0.8800580159805423 2.052906575100103
Ni -0.2470375037631179 9.077257506073833 12.717776725995014 3.009811522137371 -2.8953650355603164 0.8260121419787322
Ni 1.538576205822497 7.978718073984597 4.6326425251476 0.050481039468687254 -0.17761694858795216 0.08475667282210564
Ni 5.658192040363356 1.1139714903221603 4.059479148819692 2.102334233603612 -0.7342692676467806 -1.7659719765212296
Ni 4.215870973663566 3.919398823599607 5.4246761803952905 1.551818109349508 0.6057498479164277 -2.411486505930105
P 0.3871615221601276 9.055066950048538 1.3089648425157736 -3.575484556637571 -0.20350101544356566 0.8440710563629722
P 7.247954338131923 8.128297481796489 12.308459974207956 -1.9305554889639913 -1.0481027474990272 -0.5241294067304586
P 4.265764863143144 1.9876955825036888 6.330076896205051 -1.3684082082288627 -0.9703171066781161 0.795443782273572
P 3.7074497298330837 8.236452039315667 3.9348057814968502 -1.0195110519042636 0.3183321390535485 0.07669497885989372
P 7.1294807537220555 3.2923366597880572 11.326333110076636 1.363592274897458 0.2535773632746665 0.26709776635860455
P 9.368839738890491 5.585689255930481 5.036830441677366 0.5011900243254659 0.5033983448306942 -0.21939763206916404
P 3.3968749096851822 6.1105093857386 0.9781061622122 -0.42328919808292914 0.4278256525007019 0.4098256163788555
P 6.966960728404 5.566334108194971 1.6539215446929796 0.4289944759978225 0.16004680091467274 -0.7595905200203886
Ni 1.0900610964817505 1.742232892393979 8.523322846160973 -0.26554456293887174 0.854320244894806 -0.2149100286114557
Ni 0.4699377810226435 4.0190192669875655 12.42563670794102 -0.6518057617342258 -0.3554395854288072 1.0095953354524483
Ni 7.333286183023494 3.0046403307914966 2.847013011646927 0.35009143374301643 -3.021743754798583 0.2092111784544655
Ni 5.493208463580405 2.719593481672275 12.572257994710915 2.1974542519379123 -0.8324722957817792 1.1986909741039613
Ni 5.817309575733671 0.279744170796294 13.471087070782811 -0.024327778112087133 -0.021132153992924896 0.14392187032835213
Ni 6.172813996748873 6.300035512964271 10.827677756109821 -0.5470651895910256 -0.06052633951983124 0.2672803146830558
Ni 7.32974424676642 6.5471901516272295 4.992637117323346 -0.4878390569398566 0.32654244277848277 0.3651424145388679
Ni 8.649426932617578 2.22624173567045 4.982990221643644 -0.2754926752905191 1.220478502292698 0.1437678612489911
Ni 0.11470016727929902 0.2753042003071106 10.39449523330134 1.0004548066037608 -0.6553068329089489 0.5683613799656405
Ni 5.230603173843279 6.800117867496602 3.3235307991859946 -0.5264403142518224 -0.710788153805705 0.13212204947994666
Ni 3.4781256259235884 1.473826636188573 4.234524241642096 -1.7911844712311151 -0.2953819580152784 0.2537668535776533
Ni 7.586158120369133 7.929307598377373 10.15299839622908 0.46456465979294825 1.1289953093800362 -0.9933125391320248
Ni 5.028043464905221 7.693094846786796 8.97204340639747 0.17257887194341245 0.4867270548226004 -0.6545349877399308
Ni 8.970385854600526 6.180102390516712 11.339531238434036 -0.05090038639429298 0.7411284566604591 0.15644339983413058
Ni 3.6950947868261226 4.992475359604518 3.1096266681626137 -0.7676303596057296 -0.31898571347714744 -0.7100823859879319
Ni 6.913255306469301 5.266227057667715 8.084439758226933 0.2491468383071387 1.0412723548407552 0.2900821430689198
Ni 0.18006330067429108 4.158381908535613 6.695091555516808 0.4066788432197577 -0.07016103439611787 1.1146246424806612
Ni 1.9746155186881926 6.224957620019035 9.604543976273032 -0.5374520919812938 -0.9582717454778077 0.8687253645765426
Ni 5.264265512916421 3.643648395102628 7.467070042556134 0.5316894784659036 -0.38112799133384684 1.358909010489176
Ni 3.7807334135982273 6.618633144109169 5.550357279713583 0.07920797508973455 0.4739854388862159 -0.817889769981914
Ni 7.908939140794039 1.497151355529781 12.612994909877587 -2.1674211959109315 1.9417451870322235 1.0863576772151677
Ni 1.2349272190381668 3.490006451478815 3.6717691378428516 -0.06795939875910877 -0.07718425979148642 -0.041162847391554916
Ni 5.6887679677899134 0.8013839951095432 7.675980136421246 -0.28037031509779453 -0.46957625407492676 -0.11696436790290178
Ni 2.20469263266809 2.8109865928095483 6.090185550974251 -0.5988916873440138 -1.2390212982918918 0.5649834646323431
P 2.5417157694862733 7.222584406253822 7.809512062955023 0.24446383100917252 0.8602461234609379 -2.289664038603953
P 4.644668374864533 0.6261129992660185 9.409021657746013 -1.234816516181925 0.001658875759661659 1.732147314662301
P 4.089560506669146 6.152278203594338 10.274189324386828 0.5804892735774261 -0.7771627245761971 1.5028159684191926
P 0.48734718792191833 3.878996579575338 1.0841764622278707 0.9823822653727663 1.1774891432153656 0.3408804566677097
P 1.5690312797809658 7.884629000866872 11.101666512898884 -0.9609130397553968 -0.8286282394453407 0.31668586169937724
P 7.056048327226957 1.473826636188573 1.2701950499527708 0.140554496518016 0.13909822368746366 -0.4759880711385415
P 8.64840432634913 6.34777263285949 8.848049607422116 0.1241634567545023 3.2974369761356823 -0.5415278047125641
P 6.871672417026007 8.269352071897785 7.201094800343444 -1.1973007786246541 -1.2821849781635597 2.910815308677116
Ni 2.5579566163133323 8.870179736713366 9.210602574553102 0.389556067496542 -0.324791264415331 1.7789262226890523
Ni 7.7655790383784264 3.4312437767256156 0.5101457298559077 -0.15641820302315 0.3625083193501305 -0.5503040082432974
Ni 7.512614136826566 9.071921360636665 5.547064487529185 0.040896481104045694 1.1301682466422147 -2.1000984022945572
Ni 0.5186872811236247 0.5942857736237066 6.241160351521543 0.08356830894095929 -0.6755388436851075 1.210316988378664
Ni 6.958184907336603 5.482573358388559 12.942851436038083 0.6435787458387433 -0.7388383750747017 -0.8028089643893915
Ni 5.380517252797573 6.699921046030064 0.5138159567175693 -1.6443282008647873 -0.32249706906451553 0.4324202138499198
Ni 5.422193106447089 3.9962523328836914 10.430306904822347 -1.4382308854489554 0.6499257711026936 -1.4144738922386737
Ni 2.1934439637151755 4.861256382521556 4.989643669882984 -1.0860249764660972 2.666559222803375 1.575403867089248
Ni 3.9717376717028356 2.098044095289716 10.992150029758548 -0.08336159224679192 -1.7721264261583998 -1.0871074108969987
Ni 4.935014183738433 8.85370647937075 11.291705802542904 -0.09736176318062588 -0.7001527855790458 -0.17060529315680942
Ni 9.087790350638835 6.009522368519171 0.5988066229723034 -0.07691480818018366 -1.0906809871808698 0.09940399042163525
Ni 1.2999277920288912 1.3574540428393322 0.28084486699796757 0.1271896451753358 0.4044607525225163 -1.110601894474513
Ni 3.5026495835250655 5.217662556337116 7.3546140312150445 -1.8358836139107029 -0.011231349939445173 1.838897203926046
Ni 0.42235498170975383 2.0974677172111367 2.1998315343247192 -1.5562000404672875 -1.3905173814230762 0.2772762495535031
Ni 1.3331253100709217 5.953948366039402 2.8021531339342927 1.378765640203787 -0.07566730892632774 -0.3814483507877431
Ni 8.692181171059275 0.412165175065713 3.6403119097413055 0.07008338708064704 -1.0155587521247347 -1.8301184292921513
Ni 0.5735761374035353 7.019225205142251 6.751598918627052 -0.20015549601010044 -0.9011302632698093 -0.5721164761326986
Ni 2.121452482416524 9.06386136395718 2.444702972082854 1.9267949934802946 1.5141239372328439 1.503914857910326
Ni 8.894666508632353 4.5197244817015845 9.577603878951834 1.0972740670173555 -1.8935974236824036 0.36973286212302775
Ni 7.08461622779911 3.006248611559145 8.811231133547722 -0.23569945455298116 0.019926820830914068 1.3498826386208496
Ni 2.58952726074647 4.283976551142119 0.34782929614947883 -2.0868420515052835 1.0254598132885306 0.4952551468982696
Ni 4.963461230842499 8.795390032807418 2.0521086217110875 -0.15511773904417156 0.1329041790616098 0.24410953299354735
Ni 3.244413611480393 2.3452080303732963 13.086288698744859 0.2575306914954597 -0.5743371379331013 -0.3892611619639425
Ni 2.526692753760728 3.9278120842627366 10.973142568154309 -0.9571540869335968 0.2507424649290327 -0.750183881994508
P 1.6865380364461198 4.082300002163175 8.767147506957043 0.5629232396692048 -1.236857972091986 -0.44770619347471285
P 8.219318736108873 2.3632895684835593 7.153064843198625 0.7304879462274774 -0.24288594499909139 -0.8211812962489922
P 6.702617008010514 8.262788798938482 3.3691799430094576 1.9513904234314714 1.4241638658329279 0.7953833613492818
P 4.6959288381755835 3.042774248183938 3.2411319750007417 0.430423238024549 -0.041644929234296024 -0.5754234290187444
P 1.5192210580869865 1.6446018830191809 11.682817373825424 0.9018869389301758 0.7732268798569006 0.03032461912547035
P 1.2870522494670844 1.2810095760626263 4.458836645194141 0.510901852296591 0.402226720985675 -1.516207302124434
P 3.7155469121950575 0.7851524447031065 0.8767417103155087 -0.48087445269656537 -0.2441990073835601 -0.5577676636101943
P 5.53719912596486 5.527270548740304 6.437267414905702 0.3774806243892466 0.36185114538210583 -1.1213534765640623
