# total energy = -340858.9362263825 ev
CRYSTAL
PRIMVEC
9.37678892658496 0.00000000000000 0.00000000000000
0.00000000000000 9.37678892658496 0.00000000000000
0.00000000000000 0.00000000000000 13.72387841440235
PRIMCOORD
 96 1
Ni 5.70624487388837 7.676711419831224 5.787839815378144 -1.8235993972267108 -1.4288712986109262 -0.7902064451340327
Ni 9.015163641577507 6.476623094821606 0.14066964912264554 -0.1374131226755569 -0.29224084128313543 0.8738575435967854
Ni 0.3115016150406846 0.18488964780931083 9.053285914454477 -1.3652647775038746 -0.3647984009358879 -2.168971828227503
Ni 4.4467452145250315 4.388787282447956 1.6620986537463949 -0.37880499962762504 -1.029543496439601 -0.8215700470469787
Ni 6.195553848096105 7.175062591455324 10.178355240016977 -1.686544429221521 0.4513707868104936 -2.010634296694453
Ni 7.70656711563019 1.8032596466064357 1.6062017398654922 -0.543155313013658 0.4575602034506572 -0.24530843839765493
Ni 5.848181327188918 6.910646521783517 0.02749086964303003 -0.7937525106140781 -0.14750727368676533 0.7524999317221944
Ni 5.195641212130557 4.735578442444486 5.831426880815302 1.048434419806833 0.579505312397602 -0.8825527573779381
Ni 6.855820437192891 6.3365151153529675 2.1210662144910977 1.1437439284441206 0.4975886801274528 0.30466698286163013
Ni 1.606047022848946 8.541945237090571 3.056225559477086 -1.2517616286766957 0.25044370274169125 -0.4982078017686904
Ni 1.6260758439000111 2.965381353434517 8.309368991745073 2.3147268951098523 -1.1262262312753313 -1.8504471135471743
Ni 7.649068646208313 7.671207244757734 12.189301383561633 1.191244030907613 -0.3591427453120073 -0.5616286892274972
Ni 6.901297863268578 8.275569418542512 7.677549704757238 0.19817986034096838 0.32563458625223274 0.9486375648221534
Ni 4.728442706105599 2.1704546992092926 5.594539187942051 -1.4353646196447538 -0.9953126002811891 2.26551932303695
Ni 0.1596182640945519 4.050228943089459 6.261917133726633 0.8267659894256212 0.5779487665437594 0.788439583041597
Ni 1.0703229436773674 1.5813766913014966 10.446162894227253 0.6147931890656185 2.9881805741311567 0.3411797330756834
Ni 6.352971379840149 2.7235820985450925 7.580988470533567 -0.5173735760638638 -0.2738219724563155 -1.8148478762863263
Ni 9.175928686952275 7.010471816216868 3.395342755452926 -0.4998869892433262 -1.205160640988705 0.5153002384746028
Ni 3.3132039602080203 1.9941616914466185 9.697745112854687 1.6008076518743335 -0.9560693385098502 -0.4440225739755385
Ni 2.6703125609088096 2.1954907255231233 1.432072894976688 0.07127509339590306 1.4031643807631253 1.1400747071226496
Ni 7.271118416758277 8.4279234842905 0.7940996214458689 1.4730639339677407 1.2510034103544325 1.2360573305675615
Ni 7.583459254403865 5.442100731094129 4.994420948805078 -0.8040459221202862 0.3169170038735768 -0.30417075995150195
Ni 8.941640239957001 2.857182586529911 8.86054789435128 -1.833976883806293 0.013649986683266814 -1.4881401115745725
Ni 8.094775552116678 1.1260585767895068 6.901340058818544 0.3238193874203649 0.3337168490397349 -0.07870069643601285
P 4.415276711038433 8.89471878839355 10.13733460169671 -0.5949949233927689 0.9996847612069558 -2.3317604535533714
P 4.743867523815807 2.100728897085829 3.3392526797210627 -0.8266274069652281 0.014510277801033073 -1.3604375313185602
P 0.9718854139984912 1.1776402924271043 7.123200509830168 -0.8261800350151642 0.40747100010374987 2.3637712021320127
P 3.795452212387921 2.786265932218486 7.682846652796445 -0.2999608356352124 -1.2030975878120893 -1.2125785307193309
P 6.121899171431257 4.2603534051368905 13.427566366823733 -0.715770951732277 0.03704728256128459 -0.3105573802041361
P 9.415046180221568 6.161337945467202 11.65230018574438 -1.7951604251597275 -5.01052804549748 3.007317037850292
P 7.973974380955222 1.6280449695651438 13.07929554954169 1.0235505120809598 0.663143041123916 -0.1693084287222568
P 7.841011514614352 8.713906168389952 9.966623596355241 0.024985209190427935 -0.43668258867069953 0.182967157156272
Ni 6.655635371359939 4.170833201684402 3.046728747697817 -1.0120851917538376 -1.3736283189772216 -0.14168835301214308
Ni 8.948232122540755 4.333267315480094 3.4080098595530584 -1.6767153589462416 1.2737486744707482 -0.5263292425952548
Ni 3.225915432509348 7.069611223693022 10.668956335732592 -0.0343404251530828 -0.6215071107506845 1.1686846575498582
Ni 5.752650602063333 2.9156843723621177 11.378055365966897 2.764552706030729 2.5771380546260647 -1.2821518109327787
Ni 0.7492795082707822 5.111737705218137 8.300544495728614 -0.6997174978138402 1.9553992874805486 -0.7045599135078059
Ni 0.9308750901459922 2.5044277888046946 13.129195069253932 -0.03370433423098066 -0.19601576281011404 -0.49980265705963595
Ni 8.040877769625329 6.48214602347286 9.130510334646544 1.0308521879486958 -0.09840511684347569 -0.15689025756356206
Ni 7.278235399519401 5.377007062678168 11.02288229438912 2.3176196432766147 -2.411751329555717 0.10718851946306056
Ni 3.6101856176655707 8.269821446958101 13.107813177567254 1.5627144445470378 -0.9987398807951832 0.2949489842429178
Ni 2.971044933918994 4.920938805055652 6.949333277351159 -2.0406892070983047 -0.3004732564952567 -0.0742568017320463
Ni 1.4914064019826916 4.342447191795165 10.292263533671578 -0.9594050877513026 -0.8907612613306594 1.9130653025990276
Ni 1.7447391071964655 4.904116845802088 12.800508613229967 -0.4889572297046998 0.20801047327814498 0.38724053198948793
Ni 1.2599122380741286 5.489847340079159 4.828375833611088 0.3207579748862218 0.8814934628754882 0.9463587960903056
Ni 4.875995855946216 1.0950401591692245 11.903584062587528 -3.1645451383692467 1.7366017508892286 0.11906753028883364
Ni 8.33058303891077 2.597445534510015 10.925798773024745 -1.0872274814146308 -0.08136924440711148 2.30461706036936
Ni 5.35352758331868 5.7638183576213 11.937125774095845 -0.9337678467991726 -0.47187224919795506 -0.5420559093018923
Ni 2.4228966094793156 7.625082820249219 6.666895019448946 0.21230010179243436 -0.378547117980548 -0.9270724370568679
Ni 2.550008359558078 8.699887869011985 8.797843431742347 -0.5279253834377812 1.0343853979129345 0.24460704145525616
Ni 4.687672428048469 0.7232579814454965 7.838447900534126 -0.16607320961441074 -0.6501335162381254 -0.03703956925180072
Ni 4.272430709216372 3.1197889359475726 13.206392296758242 -1.6617191426477254 0.21262946010739509 -0.48675893650180047
Ni 3.6488179878577 6.6738732257346225 1.173785494517885 0.06742486641187743 0.3873747435745071 2.0680709415453675
Ni 9.277160499717864 0.30468093880821984 11.847385216104637 -0.8101931726686046 -0.6077445097489532 0.6881681024133439
Ni 3.9097083849100307 4.210806452686597 10.788505705578359 -1.060266893665387 0.376913439031867 -0.36496860796516495
Ni 5.38287693251804 2.0925523371810866 1.2540826884264473 -0.5532008701751182 -0.909521572657298 0.488211609787927
P 2.8108612494548826 5.573929005980329 9.194518170910017 0.46058639187149064 -0.24695574419309083 -0.9719415296554164
P 8.76595672347163 7.041058901548597 5.624237353687807 1.1114156486250601 0.5109710149716297 -0.6775142222439235
P 2.6772326311034194 2.4020895149510793 11.656980141075179 0.28637075565560355 0.6988962874641255 1.9070316948104384
P 3.432645496981646 5.950613368931349 5.118265825637496 0.0763000574143202 0.4600230631688529 -1.0085440113697988
P 7.716665917255656 3.408509642400447 5.724477102189724 -2.3280917464525324 -1.4813434003677133 -0.6667592977202645
P 5.615702600447789 0.10689258021340113 -0.06179397640853134 -0.5970749458502491 1.054215031044352 1.7368652889632605
P 6.919620108743194 3.7493371646682876 9.338852269127587 0.18873979797399107 -0.2909385775319441 2.157841522642297
P 3.8152091065614204 9.209019374915387 5.903998538364327 -0.37338202883984084 0.13422906852062044 -0.083689665010172
Ni 2.610760574721865 9.37660134580707 11.3252462286647 -0.41119267192971115 0.467441210009795 -1.74455057342266
Ni 6.549537005164809 1.7411009131104107 4.353570876445389 3.832862010384618 4.192421017298438 1.7521294142111825
Ni 4.8721326189270036 4.510207321675597 8.141801086036715 -0.11818075680850615 -0.2151144313127779 3.580162421729215
Ni 7.621613408363032 4.8766241008012825 7.520026215298832 0.3448242718068061 -0.677725309813465 -0.33291389352246537
Ni 8.409563731660358 9.231092335942638 3.6200021779457017 -0.4261613774244015 -0.6750889006318825 1.0555766872785692
Ni 3.814055761528985 8.220011944419124 3.8455542707400046 -0.398107813721295 -1.3828089570352249 3.927607933208952
Ni 3.522418873733938 3.590306825236611 4.222233945296584 0.4276806422824054 2.0124199278399666 -0.17156611440818195
Ni 0.4585277893461564 7.599662345591242 10.49573422632864 0.4560795051400726 3.136459435876624 -6.102448561512406
Ni 2.495707375144821 0.6974474323700464 13.493811504914353 -1.2522123430608691 1.5444189886719595 0.43800567835749726
Ni 3.7155150871724114 9.078006880661887 1.861698607953136 -0.7504083393004882 2.469369237179502 -2.8368816946124435
Ni 1.416729655329751 3.4040369141039313 3.5034861993031305 0.8300713996497705 -1.83790938609148 -2.1877434524080517
Ni 2.0790403844027234 5.974224123335179 2.683018109843357 -0.08062311026970631 0.9781214332138832 1.567293579277288
Ni 9.35860728794331 7.520859811830404 7.597058411318827 1.0493253070522186 0.4891310362784027 -0.44316742506409484
Ni 1.2919996096269113 7.700894158356831 12.416706329838934 1.8041651997614994 0.27990108877085995 3.893601237246204
Ni 2.6636081568584764 1.1576958624759737 3.8192317489916197 1.8305686294556924 0.6538693291314739 -0.6979830316212366
Ni 0.1642513354809429 0.3959499133871246 0.9133958179918303 -0.3257726544919938 0.33502374077661656 -1.006462189140105
Ni 4.869610262717856 5.82393295114114 3.341572497290367 -0.5815745362218049 0.5864601464488803 2.0282558664309587
Ni 1.2319787839958876 0.37013936431167455 5.314187265565992 -0.8163483936367231 -2.4823463661654603 -0.820203248606439
Ni 4.27106169803966 7.179685348373946 8.411296562245674 -0.03511766963873952 -0.42226769879695014 -4.8850960064432e-06
Ni 1.6560159307989109 2.5993490226529765 5.577329029628792 1.7415981756625554 0.24716477488010338 1.1105332460201067
Ni 5.593488987587314 8.529127166689443 11.81258138881286 1.0683411860330891 -3.3127242413120555 0.2923753099784707
Ni 8.345801567265582 4.005426645813247 13.130595023833953 -0.2408087507550885 -0.27320130815318105 -0.25333002315055086
Ni 6.793933630574432 1.0547012134006473 9.085303897769535 0.6127440198460737 -0.35511768331301424 1.26484263023037
Ni 6.021286226731854 0.07896475220848924 3.260766143745534 -0.9743339411469929 -1.8614308662521877 -1.6743620282227163
P 6.8799375381963275 9.368443539480092 5.496482355891768 0.9727131177141184 -0.30458470756046896 -0.035184261210616824
P 5.9399050760285785 6.140737140294361 7.643678867959177 2.0955696611862686 3.3828744770748966 -1.4665700987132808
P 8.124509349660183 4.766287426031674 1.407877966625535 0.41499687616714975 -0.1949274148419417 0.5567636478257121
P 5.2510486576318405 7.757436195312787 2.3714171008405276 1.3509558170803702 -1.8989008381731876 -1.2668298358637278
P 0.029843505973419632 1.4146198778313943 2.7722373183727473 2.3661756978084476 1.6498205914379265 1.0060143029694093
P 1.6312612081515274 8.282977081758965 0.8957111941611615 1.3543676709753965 -1.0936914918724194 -0.19915996486605053
P 3.5587445538611973 6.153677108950948 12.962820828770198 -0.7669122504927823 -1.4832670997529875 -2.2964093277475874
P 1.860439305206339 4.416223766715473 1.4468263346029735 0.7084121973743606 -2.185648774662552 -1.6935725397128962
