# total energy = -340893.2307175496 ev
CRYSTAL
PRIMVEC
9.03498219104438 0.00000000000000 0.00000000000000
0.00000000000000 9.03498219104438 0.00000000000000
0.00000000000000 0.00000000000000 13.22360970659026
PRIMCOORD
 96 1
Ni 6.260447593087048 2.0577171983247156 11.544660840893812 0.7645697184025348 0.2879776951314073 0.1377414525492531
Ni 4.509621635488988 0.5308810986873457 5.937532811410981 -0.5340592642496609 -1.6816295084184072 0.2231910376733253
Ni 2.682513323092 1.5447560833526597 4.683075223956333 0.0817857631192398 0.29199144427649065 0.1496232915885036
Ni 3.342663333246967 4.380412354903952 4.948473308883618 0.01186075599332796 -0.31194860412470793 -0.3541753740044029
Ni 4.749961197256873 4.8058606321900665 2.514932473061147 2.081546093213667 -0.8503409485320839 0.13190633392471476
Ni 7.322437472013432 5.931745905305483 2.4036160712447714 0.38835844764401506 0.31864092854321896 1.639622824969318
Ni 5.164007326993982 4.591885148510926 11.49892033995753 -0.7272874370123088 0.08696576465828249 0.40071645498873565
Ni 5.613036907848165 8.059737195259483 12.546415396924429 0.28437043739612317 0.27020083076396045 -0.12621622551847297
Ni 1.9765288481857652 6.46590308854217 0.342144837811806 0.8974412444539963 0.375637657643237 0.8149893085056673
Ni 2.573967046821207 1.6580005503726465 0.3686923260394131 0.7880729437307976 -1.0963083606699764 -0.6584263523745371
Ni 0.6889878663728057 8.921168539088558 4.835754677828254 -1.018650246565865 -0.240611804252934 -0.4233604176404967
Ni 8.544292326163339 2.466071289269533 1.6283549667452344 0.9337781312118176 0.13268512107226826 -0.3040139226586635
Ni 6.69509348226293 0.6611167532514354 4.897853014055721 0.16493883889965144 0.3649629515382102 -1.4514800371493777
Ni 1.0606436665770946 7.363880935410646 2.656662431992783 -0.9828342653085201 -0.7211800385629902 -0.48790384873952103
Ni 7.602549025469682 3.646844079310625 3.814813433576508 0.42850236685275234 0.8325856814311918 0.3562057741708704
Ni 7.710860392203016 3.935602110741834 12.72123146070904 -0.3711935058289542 -0.2105440383332761 -0.05116032492389898
Ni 7.86292817777932 8.750931404287968 6.8752989129358 0.5907366623370471 0.5496447773927436 0.6940862676699918
Ni 7.240625708101992 0.7201955984243245 0.6025429635840847 -0.8292923553919008 -0.3899892983792187 -0.6487890863950891
Ni 1.6046941553337184 6.4197072245025035 9.135359055344297 1.0222580185217813 -0.05279811763763811 0.5937083433708613
Ni 0.271952061022411 4.830128594406094 1.4478793901042868 0.14636518966252213 -0.08378993803346214 0.099251524004171
Ni 6.367620552061924 2.021794109057804 6.959652217342908 -0.40015569738925927 -1.0981826948745539 0.19367940136745357
Ni 3.4449845067750786 4.248465474709291 0.48481714538794396 -0.06257550873937609 0.9515215712381678 -1.0710269603953682
Ni 6.154937070838812 5.572795097084879 4.729635197779063 -1.4746616174721634 -0.38613444340950276 -0.6911410689987387
Ni 5.198665518751496 2.9331527645792708 9.379308092505072 0.9440036655945678 -0.6611550641596097 0.1849124538081009
P 0.39331174906340877 5.512061946669341 12.50031801419085 -0.993061085242851 -0.031132716849062513 -1.0319040262519776
P 3.881157307944448 6.10393459626343 12.541562707979443 1.298887635630221 0.7191439819695679 0.05875639210360203
P 2.464472097418365 8.449813517193496 1.3717641824762448 0.05805628071278388 0.27749505043252853 -0.6066443347062391
P 6.219193864316244 7.825098707266101 5.815333773522674 -0.5833439694174017 0.012467022118759174 0.1666823039533194
P 4.50779656908257 1.2683669425669237 12.708246384276844 1.2214750618780126 -0.8290936091175335 -0.7583548478410747
P 3.866574846657528 6.139902860441392 8.146629329667599 -0.7590801560428733 -0.30689458664056823 1.6794741526383008
P 4.7890826702261196 1.0027113606466531 3.7027823646673226 -0.24982612376235042 0.08220356738294875 1.2062374189926515
P 0.18396307977400306 5.368369589601696 3.63345152518076 0.13889382098614142 1.0443322247130014 0.11071093079402224
Ni 1.5004666005592997 1.0204922056359091 2.470037646459718 -0.8069918921224875 0.39839372039283 0.900326022200959
Ni 1.8241177332854817 6.410581892470415 4.764797541543894 0.2112564910192684 0.3405852940247941 0.7625981964984608
Ni 5.822314200778111 5.363689468816922 9.095383776556206 0.6068600502614709 0.5246806512482383 1.5151107266261454
Ni 8.523520902062575 2.1539578288255052 10.151144035248802 0.043071891488809695 1.1500498160574903 0.04709309683306083
Ni 2.214754224116513 5.1429467834625004 6.9781784483644875 -0.15749883768183842 0.18595066526462817 0.014462712392549286
Ni 0.6432166464970076 9.123525035645654 8.968212787957745 -0.26367639938188137 -0.6085796040557391 0.6702364576355877
Ni 1.5508637313266114 1.1266171066744255 11.311753455491864 -0.6599834124490118 1.2542820811057043 0.19815826307441356
Ni 4.206064303197818 7.05820038230013 1.592717382916159 0.06472675075442401 -0.1411371084943634 -0.7871208642301735
Ni 5.575135157477265 7.654373683426172 8.125181185399308 -0.23420872894006758 1.2393306020021946 0.3902932027728827
Ni 5.227541321894616 2.9333424992056805 4.971019203490422 -1.0977013843627612 -0.8348953034009751 -1.691418983705003
Ni 0.8122945930800558 7.364350754485565 7.1397971136349705 -0.2772798490979289 0.17060812137028683 -1.4366560847626677
Ni 5.015634849141564 4.675883378117183 7.074274519149919 -0.2951415598696982 -1.3831578557342115 -1.0648308588869855
Ni 8.258036984804296 7.215074778412147 9.057418781309837 -1.4359032657570432 0.4013047233920379 1.021937144847253
Ni 4.682984874134234 0.47158993143252187 10.54159711594097 -0.5599973242716614 -0.38941388549172284 -0.3476056912066852
Ni 7.903386828115646 7.187364487974114 4.506923789801085 1.7555543807323313 -0.2100714695722318 0.9451658042234689
Ni 6.944260221649973 6.1567079273519685 6.915577767126146 0.7310088517279539 -0.46464642087347724 0.9086610244292156
Ni 2.4781962353953366 5.134544250007212 2.736533481725517 -1.6164780114217385 -0.06570839794140296 -0.8782063074837843
Ni 2.2432144180779745 5.23213109285729 11.236656490358888 0.1767466301678569 -0.09112760934545595 0.4908439052044514
Ni 0.973248283659883 3.2726512561017715 3.671389415480499 0.8037512736980029 -0.2081873651756415 0.45778980296295996
Ni 3.6692327652269747 2.4513623382316725 2.4834067096358363 0.294343489448435 1.1390148983995674 0.6070035178178708
Ni 1.1346672758235246 3.2527020153821185 8.125881396520583 -1.3445761388062714 1.048422335621975 0.7724324089800633
Ni 3.844999309140077 2.6324504866664578 7.009095253988846 -1.2860776283497464 0.9402256866093742 -0.33101590516880414
Ni 4.205874568571408 6.714455449138934 6.052882429285894 -0.15184960981586104 1.2792881162317387 -0.7716741906578001
Ni 0.9631110336202767 7.492421627312141 11.50164438709384 -0.7869370303541414 -0.04440089471287837 -0.39835155430098496
P -0.22479939236670582 5.475054659537231 8.024059857508684 1.3118596224098569 0.09969426796854443 -0.06881557611181696
P 8.635708276163994 1.7024797677924162 7.974100923378557 -1.9797062396570289 -1.1019673587279666 -0.11824092062248023
P 1.5879071583875612 3.344777519084104 10.269098438494856 1.4796744973057228 -1.7434745667496616 0.9135612899443106
P 3.9497508928826752 6.322310116278835 3.8450815274781878 0.3256543837465747 -0.66095580366461 -0.1851158280681586
P 6.975051441021612 4.07917701304075 10.5722889505083 -0.4707705314933441 -0.9105908944620769 -0.9217849634056834
P 6.397128803959744 7.682156253721885 10.369491546819356 -0.9864237824319915 1.31618884591283 -1.4763042952819092
P 2.4137587422737035 8.323124996645047 5.828993763125955 0.8765906262572323 0.5275047509605948 0.6017677233402281
P 6.810858709319503 4.048241233953752 1.6297038895891858 0.6755195604113979 -0.20742914685337827 0.24134225466105533
Ni 5.359162942729719 2.969247518508172 0.593451964484395 -0.18022019053875415 -0.5794952850952729 -1.04793254046975
Ni 1.4883687593801258 1.1920484478391569 6.96962232021163 0.5300149189769581 -1.6163265734455388 -0.6526007468316953
Ni 6.7010475355393115 0.6914761004734363 9.201702026214017 0.44749407746390674 -0.16523143043940577 -0.5951196218960911
Ni 2.766891021951076 1.4484793129230298 9.112297263253303 0.5871821122165694 0.47573481747715496 0.1879070176600506
Ni 6.394544799047687 2.0503265828769455 2.587596317484974 -0.302097422362241 -0.6554505575756647 0.6591413761636906
Ni 4.3159658268001095 6.915682572919781 10.336406345464601 -0.9967277354611608 0.06676563556132373 0.1997842287136108
Ni 8.481173940444364 7.078411637503871 0.46953447297974965 -0.20653774538736044 0.6103117562554973 0.17833480059058318
Ni 7.4139618418006075 3.68765509395314 8.088565112996893 1.08297513389618 0.9305241430508943 0.9086347991769707
Ni 3.2463233179418673 8.457430007196516 12.323451912942792 -0.7563817832751039 -0.4715858283057878 0.8374100994030288
Ni -0.046273564886673384 4.743537324905572 10.114329193237763 -0.2152555848763325 0.39319417846976157 0.3808821938716279
Ni 8.39516994478749 2.1370262721639883 5.792589109307251 1.2562296917503786 1.1471871497977146 0.12322603254189747
Ni 3.544486765853674 2.740915448097361 11.45697543504766 -0.5240216775080007 0.5842865358363293 -0.5729238025253424
Ni 1.0209349197641986 3.34740669890721 12.694638797570384 0.43679134633442196 0.04297676067184212 -0.9129390829792793
Ni 3.0490083414579443 8.17393033541152 7.965426436958747 0.2699275224979158 0.7880096945930299 0.4861598694652207
Ni 5.7944232106958795 7.609912535970823 3.5557759761250534 -1.3619100020990287 1.2530150414678225 -0.6848495795630721
Ni 3.1027755205895815 8.361758580574955 3.509427420886037 0.916367649044854 0.3289957894149818 0.8212903110230306
Ni 3.2454017497564487 4.093840789167561 9.067720468025664 0.1844781944841597 1.2360465319342844 0.10070728261409108
Ni 7.42638494233934 6.268877231488967 11.473861816798129 0.640131410720091 -1.0301304792913228 0.20951354018623272
Ni 0.7047746907883172 9.172223589757488 0.18434525952148556 -0.4553616531374416 -0.6444313236470256 0.4017940043236306
Ni 4.7663596899680005 0.48267675810239785 1.6150789638858787 0.025172642610885677 -1.2231246816662935 -1.3244040347337707
Ni 6.134409591257719 5.829578326474942 0.3148646125269689 -1.0629331276436405 -0.6135675441886336 -0.12196387800002223
Ni 7.864030445608939 9.033997396926885 11.28394378024952 0.6476943106690135 -1.1200085325003937 -0.02716087668550806
Ni -0.18735661909207446 5.224288728299021 5.902225907930791 0.4767558025425015 -1.343145577007332 -1.1367273879169715
Ni 8.0932208393297 8.681100026786973 2.6733907015545757 -0.023228888620953545 0.5012514736910205 -0.4171571170432622
P 8.570755789056392 1.4352249940209778 3.767512591212559 -0.0361031734804604 0.9364045130910712 -1.3006542406123405
P 1.900662102568498 3.2691185780576664 1.517131625245622 -1.6789064530602893 -0.027452954004630138 1.8415410693067962
P 4.774545383850249 1.1386788079247592 8.088789180555699 0.022891816996508964 -1.9719700473550361 1.942737889962796
P 8.544482060789747 1.6887646647976549 12.356484711400729 -0.12592491953029925 0.9106526009379478 1.1481947651266224
P 6.5526389177580535 7.754029537202337 1.3993226852131495 -0.956377099558256 0.3498649195545071 -0.5423927238160207
P 1.8698528132324397 3.0775950251703454 6.127714669440118 0.36594974093151167 1.1651578753435223 -2.3438680354501824
P 6.760886222716061 3.937273582450682 5.886093043696635 1.9206531422486146 0.07473039893435517 1.0519079801777302
P 2.3978481386019155 8.544590480576268 10.2327732925196 0.8659825117240828 -0.9296913627369537 -0.9570142189216228
