# total energy = -340858.11656711856 ev
CRYSTAL
PRIMVEC
9.40075600946746 0.00000000000000 0.00000000000000

0.00000000000000 9.40075600946746 0.00000000000000

0.00000000000000 0.00000000000000 13.75895666283868

PRIMCOORD
 96 1
Ni 7.344547321728812 7.231559637209389 4.1660333204939475 -0.9408265534181668 3.308402216897935 0.29929054904106517
Ni 4.502830439905177 5.320094550178956 10.011071717596547 1.3396085103883508 1.567183793172301 0.661283619317674
Ni 8.476586340767744 0.49692865442540607 4.702824940010972 2.2726528487579376 -0.44226882450922544 0.9293920863289801
Ni 6.687528495614953 2.5477740480143907 11.007894024841354 -0.34372898186009837 2.572556348792653 1.9460355868774617
Ni 6.634179206185905 1.2736896081344184 3.7382124425231247 -1.4766717059236567 -0.48413538283602425 -1.103311788571003
Ni 5.73699927046079 4.327177316912796 12.265861808898041 0.7703508438606862 2.343057623733745 -0.7058205253877844
Ni 5.349161687256421 5.253264576865986 7.88846377410192 -2.334505877508992 -0.677689057258891 -0.6766025090629315
Ni 6.545718093670075 8.921138683994217 5.710324625746266 1.4050446285049738 0.3385098995530041 0.5443557610796625
Ni 6.085334877598047 5.149668247437245 5.413943235870431 -0.6317035916677121 1.2050637103995245 -0.4255340282530477
Ni 0.7767722346160281 6.198877206712416 2.994403018207363 -1.229543954929076 -0.9419604099122938 0.2379946783450611
Ni 8.026327738742426 7.913142638350226 9.812296495524047 -1.784182585991985 -0.5147991304684681 1.5751184746383453
Ni 4.45342946793167 0.45618013813304475 5.762140651896744 -1.1047104686907425 -0.9885665398066072 0.11007715386476527
Ni 7.62386257944086 0.9940547247235894 9.711140602313066 0.7527938088135293 0.2793876394695511 -0.7519021502371953
Ni 5.041634761248942 2.2905223642741457 4.91142489201868 0.022873047943431576 2.9674387135981153 0.0005021364473991352
Ni 2.9913675141445193 4.458628085914801 7.880620723499162 0.7261672073649365 0.48780434704717923 1.7169400107942432
Ni 2.9007254262722935 8.622721090402024 8.184722014076165 0.4527882359833105 0.027785911864016664 -0.18999809586112437
Ni 5.826221844200189 4.0422780102279114 2.5164441490046663 -0.5297578086608296 0.5275523163690785 0.6420031738215073
Ni 1.1781121234427656 8.05258404982178 9.744739843784142 -3.1079546435687115 2.1007383498714014 0.8444271541508103
Ni 9.191194197197435 2.725072303279914 6.633660284463178 -0.2295339491722176 -0.7260255395807497 0.4401687474470871
Ni 7.005979099916098 5.776416639725283 1.1012205211472572 0.8475870399360306 0.8501720270543874 0.7336606875285042
Ni 7.356006843105731 4.4534200671758235 7.453584808641524 1.8908129189587304 -0.6283076786122856 -0.22665328519031286
Ni 7.904992183031286 3.761092002102405 1.520956749090066 1.432383682639559 -0.6964051456111555 -0.4270736048260258
Ni 6.7362714146792015 6.838373023928345 7.495384329437527 1.829711680772036 1.529735675628172 -0.2884240386402065
Ni 4.183533767577845 2.3548705380436314 7.2139717630961195 -1.3417764645739472 -0.21383350771782525 0.43602412915109423
P 2.0576092374205617 7.485032217099331 12.290449485814634 -0.22064127466827807 0.042022624288688915 0.3049456904443135
P 3.0778544679325788 4.631310570059678 11.461884726937745 0.41391264196403554 -0.5427719615323103 1.407577936449789
P 1.7046860614301986 6.133203526368569 8.834378168211023 0.4181112534264154 0.24809165756974694 -0.17819441835797697
P 1.1696702446925835 5.244023633868849 5.0311134353055085 -2.0914525536941015 3.5804221031485044 -1.0433760314473193
P 1.1636161579274191 2.2970370880757898 4.186107694528624 0.25253323828086827 -2.0126950358782243 1.366663457623614
P 5.309669111945156 1.5255828610421427 10.027884969428063 -1.8770017241072514 -2.6776846432925754 -0.985506927044677
P 1.4185552557294185 1.4667153279311826 0.24827208175564155 -0.12960699636757678 -0.12274317936820797 -0.27545359452246754
P 4.313273599015781 4.107256034639114 5.966530005360792 0.07432107931107845 0.9634502043549537 0.3271638784125656
Ni 8.664093816882595 3.574157972094191 9.365226629881873 -1.2250733207522322 -0.5841476962656198 -0.24365470484431584
Ni 2.573268897870175 7.345440393534233 2.0249745134993393 0.8563940967046992 0.2142734234687213 0.7240339630720176
Ni 2.9142155109120615 6.048812941134285 5.959347827894045 0.20155031947509805 0.13747997135775034 -0.3503318318885967
Ni 8.839060684698179 2.297018286564097 11.520457076315122 1.4862871175262338 0.2307598511595187 -0.316807474878906
Ni 1.7555253490482232 1.3058119908620054 6.053775600145667 0.9020777147847431 -0.7293227222747827 -0.35778134618810636
Ni 3.3970195296780594 5.015604068309906 14.0035905870532 -0.6756368027155526 0.1582902232348822 -2.179284523007421
Ni 2.3288304443487484 0.9033355506534225 10.378229518089725 -0.5914496292436717 0.1650049162508965 -0.7731397194597329
Ni 3.106695986869728 9.42547983440461 3.560240153063406 2.438059885543259 -0.8418745629322857 2.7792622443267616
Ni 1.6634825485548654 0.5517538625223588 2.165852360464242 -2.124477088249238 0.03066040519833429 -1.4743793103450544
Ni 0.703183117849405 0.4401274074495132 8.040004898423541 0.16197512828563718 0.794649825617367 0.6671241372588511
Ni 8.545352869785097 5.763227379272604 5.750156568343591 0.27849443823132036 -0.09924766734942908 0.09106204621484318
Ni 1.2903289459827734 5.41144169473967 12.578520607522137 1.52309323061099 1.809516950991716 -1.8132954441975413
Ni 4.407911008122781 6.007637630526492 3.450195845199531 1.065585991885455 1.4128535830264313 -0.20278213499967013
Ni 0.8729034238270412 8.145425914562093 0.5783166382423091 -0.5616256039037038 0.7576979309833661 -0.8244494254773027
Ni 2.4311388702265146 2.42492497061196 12.366632271119315 0.7229885525266387 0.5093059685643809 -0.745515272874245
Ni 4.0648210227478865 0.5586540173137106 1.3992996875289747 -0.7316441713191078 -0.045201793347618924 0.0950040615817267
Ni 3.8703287850390633 3.1567738132641834 9.935383412049395 -0.7894168593532017 -1.5948663466892339 0.37909322029200515
Ni 8.600497703580832 1.8603155744694737 2.748888178141508 0.39306305220853593 -0.49951855016031393 -0.06589814535470587
Ni 7.539735215370278 3.402800994523674 4.952233573148459 -0.9986403791028414 -1.4133462063921336 0.6037451587815731
Ni 7.672013250886777 9.165962568505352 2.1842477595047285 2.088136859057307 -0.5415902825193835 0.48834376449041705
Ni 7.735957192154862 9.117887103106208 7.9240164926379055 -0.5895357000504104 0.9650957103781765 -2.9532850478055526
Ni 3.4602490135018082 3.304403283078063 1.6644621073140735 0.562178133973064 -1.023302400625896 -0.5669416167999785
Ni 5.911702917112671 3.003560294477466 8.626865883654759 1.21280838734195 -0.17155891531933035 -0.5855494617091528
Ni 5.219403054306792 0.14147479496115747 8.0085104861865 0.8005397087392406 0.6754501406260431 0.8597632702872483
P 7.026576155975841 5.597332240848919 10.803174704847095 -0.7109267362660981 0.6122951052341132 -0.9329952302992061
P 8.847333349843124 7.962919640557593 5.775610994949235 -0.7650656842023469 0.3546960223945633 1.521291658625877
P 5.292503331769395 7.59594233457667 8.985933393666414 -0.5844593139687677 -0.7925430636870093 0.4422030042682965
P 4.775969401026054 2.1246366266063084 2.7718655055815926 0.7941518029350259 -0.9473864660238717 0.07910307408075408
P 1.5561729205667454 4.8924353652086925 1.4589032998227178 1.500697636524609 -0.20723220035122372 -0.3638519778622185
P 7.963549491199311 7.764281669520452 14.046931831808035 0.24852514556273975 -0.1452264480723886 -0.45427176250737256
P 7.123704765382171 1.6081591003980467 6.721359935755439 0.20567591160769738 0.4315213561847343 -0.06310901264534292
P 1.8963204693616769 2.5525026282051946 8.24743539640394 -0.6183878483954124 -0.8281024488488576 -0.09996937600680203
Ni 4.022160392716341 7.505319048216139 0.1494569767504446 -2.433004325397223 2.1381131909754334 -1.9482953294459158
Ni 4.717665913265886 7.425045994042633 6.373231145246805 1.6072796327519223 0.025725429790562148 0.17494582951369225
Ni 5.955482237089953 8.062699263112645 1.3091210569199832 -0.4273294295905737 0.5869589404621698 0.1888678389114231
Ni 2.134300603616539 3.787921759288397 5.847418668482941 0.8925988287600306 -4.271361340549082 0.6320866860387437
Ni 2.6668628230782105 4.56664277059141 3.517559781444583 -0.4503397744428179 0.02569971875894929 0.0444551449895815
Ni 9.037360228524845 7.896663113351263 11.919934675408664 1.8048915364045623 -1.8848492451761283 1.8167121831885744
Ni 0.0684055399928474 5.662733299273216 10.17489962980958 -1.691230264732965 1.4030682215048933 0.3035336405881353
Ni 8.274470090067386 4.9845063679695905 12.32744710052423 -0.4242366495978629 -0.33181320425911887 0.6778073280043101
Ni 9.306297051782327 3.9150763828685378 3.6803009662817567 -0.4162762571002057 2.4622218275014434 0.5832084722808021
Ni 3.028021061190133 7.257750142997818 10.25719196633892 2.5759923710573958 -1.0208189720824097 0.5644823566262085
Ni 8.194761081244673 0.6540444269640172 13.53734129933294 1.9825686488064889 0.09843802696394015 0.4046654123341547
Ni 9.115414704318571 7.359137294802624 8.049181916280922 1.6335105414239932 -2.230297009499546 -2.961308689440977
Ni 1.2357199552702909 2.9293883308483584 2.217131603455884 0.6411182001133926 -1.0673636526111683 -2.941358985791928
Ni 1.4035986531775921 7.768041971859063 4.637345855313149 0.03321736729223311 0.17257630084025116 0.6788851344495211
Ni 6.377275350411981 1.519115141019731 0.9442072168473733 -0.056962790538288996 1.5481054363846114 1.3224726220390128
Ni 1.4611594812258848 3.9181316285186596 10.150009248554728 1.1108422926200934 -1.4702043530317583 -0.15522212583251974
Ni 4.775377153407724 2.600728505697884 12.963716578333631 -1.3265889582002315 -2.544330521177741 0.9508232596195626
Ni 9.327138527494078 5.841206649019555 0.6046603763510351 -1.1098372483943466 0.8673757925271837 0.12811267121023742
Ni 7.22839158248911 9.168547776363148 11.664333764395067 -2.41528762484375 0.5510537419251283 0.7541109849630561
Ni 4.972586209556193 8.232627325794489 11.12291885315272 0.6007547086946815 0.486240344994169 0.07801704010542693
Ni 0.6404857168065696 4.802855562747125 7.571718466911336 -1.0619018581656485 0.11771281603315212 -0.04844395443400044
Ni 0.507259145025156 3.498594696599797 13.175274008130659 -0.3675088578885155 -1.8986321578928333 2.549971778623918
Ni 3.076669972695916 -0.029290875066612695 12.508432332232763 0.28694308321930584 0.5949015923480142 0.64633573975859
Ni 6.008276881924055 6.6824144844344415 12.909863408391212 1.3480391576542075 0.44297099278257257 -1.4804964789863857
P 7.694565664162599 5.415361809927672 3.590001065922345 -0.712198146779354 -3.8383795977687383 -1.657843975963035
P 7.703496382216801 2.9416187142046915 13.272343392775156 -1.3192266042978893 0.06640285290526629 0.31996067579590703
P 5.166457997379145 8.319415103769638 4.128168956095301 -0.40615588083675214 -0.6592689028804904 -0.36956856863102155
P 9.394306928017523 0.3801665664336021 10.941232325058039 0.9419755794209455 -0.8693018059053029 -1.1672844347682219
P 2.9351415934264335 8.439951595233822 6.011879251564445 -2.156980460193582 -0.10737338178035702 0.01593286918017256
P 4.981902358600101 6.033893941605845 1.1263553220541198 -0.1361615096566429 -1.5594406588917724 2.342768117517785
P 0.3031922374866442 8.269403082666107 2.835596989767546 -0.2502133318984401 1.5028123688747665 -0.8392083289540321
P 5.263765221146558 0.2968486074414069 13.407498059580691 -0.30228896954775686 -1.401516303636741 -2.2176356119817937
