# total energy = -381168.410281247 ev
CRYSTAL
PRIMVEC
9.28437401905934 0.00000000000000 0.00000000000000
0.00000000000000 9.28437401905934 0.00000000000000
0.00000000000000 0.00000000000000 13.58861985579950
PRIMCOORD
 96 1
Ni 8.951733354894959 4.740127811851274 7.365072849226408 -0.6128494350756865 -0.5153907413058801 -0.7035988351461173
Ni 4.078644024377461 0.9061808891890054 1.891114623136234 -1.1340608968284018 -0.011028747010335845 -0.9268577499429006
Ni 0.988228758245437 6.439001117387412 8.30274169250776 -1.7359957418741134 0.5702915071088178 -0.4117953385107166
Ni 5.954988137071261 2.553880582646064 2.2088166137262433 -0.4953968146824565 -0.8326088213596435 0.36707794099868396
Ni 4.441365944023579 2.9110875841937434 0.24208912108581307 0.1841966586879989 -0.1476887935699521 2.0230470685365094
Ni 0.7724756921731433 1.057388059449592 11.380265605475335 -0.36590628928808594 0.32906546631065264 -0.21862527267951384
Ni 7.410499433859472 6.904658890497143 13.3866930809254 -1.6150487351743796 -0.6162893139951708 -0.3055475856943705
Ni 4.854715554563272 7.6643063632483805 9.794649591870884 0.2521180051203206 -0.9269904188660228 -0.3881900403869508
Ni 0.1672802783616247 0.11911944561409978 13.562529838276118 0.3960113362035825 -0.09099622597391425 -0.15499432609242986
Ni 3.5682262846809074 4.379959095028507 8.606623892543013 0.07800392747930437 0.3532502910869723 -0.17562871451332981
Ni 3.161951367055371 2.000791860490886 8.181626106504496 -0.5862200054136163 -0.363290963152426 0.12271952521912413
Ni 7.309884673871631 8.669302700762808 3.3218877056596474 1.4691849106283084 -0.4874953004471927 3.480246010447535
Ni 8.39099430864363 0.5635865637274078 5.383104128386656 0.7383861180286315 -0.5326942655813341 -0.21737854475660623
Ni 7.577265357906865 7.177461648891786 9.145046089243472 0.4914357731521794 -1.322595263659806 -0.8833372009524465
Ni 7.7987348129912935 2.507356585017655 6.755446003750942 2.789205728692719 1.607912638350231 -0.15837841207331432
Ni 2.9480486767019642 7.181992423356497 7.6834136047409505 1.2942758478898226 0.98667292232832 0.6952440354235188
Ni 7.431509972002176 4.695989898315959 5.331290822945654 0.6194360871542687 0.8784487625118934 0.29663999879209557
Ni 8.328668306632153 8.646528131578515 11.430285169878262 -1.044163303235305 -1.0595138175494463 -0.6552926918415617
Ni 2.7107957859822736 2.4422081333396366 10.581866084489972 0.11595598124304547 0.532843646675005 -0.6143828410010773
Ni 5.839444103847243 5.064783798494702 9.194467739967036 0.15265513643629192 1.481300977165552 0.33007822384588315
Ni 0.6805018989769127 7.883788962317547 3.707233787632827 -0.8425309655693619 -0.38192400487258094 1.0997140439174158
Ni 7.795540988368629 3.3784351133538384 9.157887306788842 0.4241096371016954 1.893312802562449 -1.4052914544084572
Ni 7.833922590084025 1.2457680059433904 8.694202463133518 -0.5468546162421163 -0.9144568051753864 -0.07044385574385932
Ni 5.69226820873538 3.311448355643008 4.783329860497156 -1.3812225863847116 -0.7477310495786413 -0.20524936559324003
P 0.9756577159806462 7.799876790981374 11.855391583091444 1.093733657964265 -0.5483923930428813 -0.2271230257378798
Ni 7.39570942623184 1.5623837247867376 10.981398689787081 -0.9903747966599394 -1.0693547148992681 0.006845819277239823
P 1.1849089350086024 2.776204200129578 12.683671933046531 -0.1839593458662122 -0.45677113189045854 0.020217355488139375
Ni 7.262042295148981 1.8647479296888343 4.057806175589354 0.03908308204439076 -0.6054773109813314 -0.09611143571329255
P 3.0935626688851734 5.90683937400981 1.4473642586882447 2.3894356967776527 1.514869814259933 -1.5144337551637788
P 6.7925779287389805 8.952123298598888 9.737563690490314 -1.011848136042367 1.0857935771815816 0.24391824291834766
P 0.928855187135144 -0.3465550393686579 1.9827560357467335 0.8610979299382718 2.657941399227377 0.029743035590387483
Ni 1.1794590075274858 1.1354510752268152 4.246729257956484 -0.8076079284399317 0.11714845888924985 -1.2676430757936428
Ni 2.478714291526607 6.79686730948221 10.207716957443925 -0.8298469423437901 -0.25429367261540076 -0.6040860870607596
Ni 3.1946323631942657 6.371791534702907 12.339214233742585 -0.6758766866405004 0.4032986138936151 0.24208478925403468
Ni 4.151173553308439 8.407037706748179 6.034067791790873 1.0429949939588168 -0.10894869668727689 -0.45941216905773136
Ni 0.2528116445064975 3.2849228994018653 5.134663567113736 -1.043259303363797 -0.3991977043513641 0.9877291315069763
Ni 2.160975163440985 4.413336419210134 0.1848788090949414 0.10813905630178795 -0.3064086481430852 0.43366771310377566
Ni 8.704750440324824 1.4177796012460324 2.176937787492576 -0.36207868801187965 -0.4185473125225695 -0.1230645672633687
Ni 4.8899033316560025 0.31325941767737847 8.270727314415108 0.42432098178155314 -0.9168325044964145 -0.7749083813243816
Ni 1.134847590923114 6.073261776222789 2.1422049447210973 -2.001057451639296 -1.0713234085898646 -1.7465472921377148
Ni 6.7323316264817965 3.870506930217876 11.079875258465037 -1.3223168131874388 0.7059645071648165 1.279334910309274
Ni 3.0799146392476233 1.21201930680564 5.732100958091829 1.0889683753651374 0.30073885145181756 -0.10298836533878392
Ni 1.2914842630422305 8.549125764961145 5.827819139283178 1.045799039066515 -0.24929750495239 1.8132687047246643
Ni 3.266335582847869 3.873450076745157 2.1573839676152677 0.6851288013663879 -0.8708179854395132 1.1375853650418926
Ni 4.733405925145433 5.201589047956807 13.492656568718816 0.6886427280569172 -0.2217939002154825 0.6834904944320165
Ni 5.385948860550565 5.270135580483357 3.367205663118045 -0.24071696237223061 0.4378239013639944 0.030518737414147436
Ni 5.377360814690203 6.892403516945058 7.651629479121095 0.4498728621087284 -0.17702868018464996 -0.8529912416707373
Ni 4.862727969241644 7.743892016345711 2.9841017574424633 -0.079122871575096 -0.24028116038639263 -0.01587244825588234
Ni 0.8513548044164485 3.988864128734532 3.13248926334868 0.24894346404708093 -0.42449864500999795 -1.7864392432366458
Ni 4.993321972562579 0.8489018728312507 4.1074320825387876 0.8759424511502721 -0.3601256780505669 0.2442260039667536
Ni 0.6228635773491085 5.640981327294683 4.909173978129267 0.8909996025937106 -0.5246503122309352 -0.08704598307691461
Ni 5.997399157060599 1.4346214555062466 6.543286918816537 -1.8475515371669342 -1.2680994466047708 -0.9809676444134267
Ni 1.5374551808569275 1.8730945818277167 1.103179519977047 1.1224492807314024 -0.11103591823360877 0.8000062048332739
Ni 2.0321266224138315 4.316946049348202 6.708334305254467 -0.25230826675425577 -0.7149775092967042 0.993509228523863
Ni 7.457496934556938 4.413642803548936 13.177835519350937 0.5961398356304894 1.2644775335814673 -2.2367813316723093
Ni 0.1512275958831734 5.735784069219187 -0.0358098301442376 0.4747467425322727 0.6306939194562751 -0.9651584452953119
P 2.448150132637618 6.1947849462404 5.893560862453603 0.8032668778624166 1.009964545866409 -0.93217941926613
Ni 4.786698231349199 0.6453614721910884 10.487655685620487 1.3169730323770223 0.3392002407518093 0.9174901926850714
P 4.291219049262725 4.404237732785101 10.658831687271848 -0.2769854577859617 -0.04770759048860816 0.6542490810683957
Ni 6.509283827833841 6.240491918965337 11.016701593116208 0.4552333550896935 0.4118269630796004 1.8115098130520286
P 7.9834381474194664 3.6963320757958127 3.426968249494877 -0.2242819567446589 1.1699709804614493 -1.19423345255324
P 4.251871872661408 2.9057769223211727 6.480344434377894 -0.7746808386946078 0.7562259744235299 0.068799635272217
P 4.2198129295740205 8.244431182209372 11.731966044861089 -0.5413084896129065 0.004151560274528334 1.327368259568417
Ni 2.954074235365073 1.3352693703692267 12.704218252494082 -0.4623113449823973 -0.9601087986865465 0.19343514656713137
Ni 4.789771359111123 2.4710825361782622 11.776319355870957 1.1603041467956468 1.6630314337012457 -0.9866459257451266
Ni 4.6100258803472025 5.190048571195259 5.649278772251878 -1.7773275107433648 0.6630700217941355 0.9963107025284003
Ni 8.513668741025226 7.130176332603322 5.807843808830668 -1.0266013830921419 0.15228824001517643 -0.0904282692855862
Ni 5.456083021014545 2.7650815201936703 9.480929669247912 -0.6643216348130494 -1.2214236398147866 -1.3541750953486162
Ni 8.914818684256254 3.338419461831499 11.1851730566496 2.0169419840800358 -0.33095831245799134 1.026402122597142
Ni 2.7561313837510864 3.749875060094962 4.5344547905255705 0.636138230400298 -0.39382435585459274 0.463452400565376
Ni 5.963167670479887 3.9448933339294734 7.2530475937116625 0.37555075435638546 -0.04446182985780085 -0.23335049470483035
Ni 2.698475421812866 6.244707024717342 3.528624716234646 2.8203045069800528 -0.30910547824895795 3.39061529736258
Ni 9.168867007366643 3.652862637181522 0.9563425045126474 -0.4094098689976755 -0.5724604897356786 0.09208277416987366
Ni 4.404869070210512 7.701518133851986 0.32478411100329035 2.2895280272467216 -0.17748710787830724 0.6206794726430666
Ni 6.534333068624392 4.526401524602026 1.4991784925666376 0.48650568284041373 1.4384406874669162 0.8559721786759322
Ni 7.27247793141606 2.1428056437126277 13.284954911695287 -0.397158048213516 -0.9854920146463415 0.8484306188832484
Ni 1.9898270149113308 4.543698313183492 11.502141581701267 -0.24594195821659579 0.14906073421681426 -0.9984460037038483
Ni 6.130156419500955 6.922354907156444 5.290524994011945 -0.6693167740347956 -2.8881546338548065 -2.1767319317888965
Ni 8.757262859120729 7.457190550218136 1.6346969278057741 -1.00299248542395 0.9907031265336357 -1.3355903903678934
Ni 0.6964004608485728 2.263056854505515 9.144923535507951 0.11381836607475236 -1.279370905753532 -0.23259227638256716
Ni 0.44730349434070354 8.345231629675274 9.555001332684194 0.0051391209987782455 -0.00026070986055438966 0.19749723245164696
Ni 2.616457262752925 9.299414588818061 10.341564205380504 -0.1808763360655143 -0.8882099556637154 -0.501118290547266
Ni 8.538625138076744 8.853244716530925 7.357585001673562 0.3059425071399441 -1.0048346808390116 1.4235691696717225
Ni 1.2267257550681425 4.440270387903013 9.196682991580316 0.13232259552652692 -0.38381453702707446 0.5362845540357537
Ni 8.05541061391626 6.106657669152221 3.3268882694438546 -0.8154636770389246 -1.11768965455923 0.6457700970631073
Ni 1.1230564360661832 1.8291330713965614 6.690221420206919 -1.2548479809115034 -0.818441785830642 1.0782443040794139
Ni 3.0162795405158103 8.648106475142042 3.9212683160956576 -1.0992247629858232 0.9016015464792732 0.01842915323946503
Ni 5.198943001394425 0.6005755093573384 13.27086308898517 0.3622442670554665 -0.15659020982464 -1.3580610606665837
P 6.567171899119638 7.1946284562386085 1.909839348423996 0.06476608863279168 -1.756169902829143 -0.563771703712429
Ni 2.2536517837416796 7.948473195300411 0.633115383012906 -1.742102883213116 0.022078062845961977 -0.2651223877997886
P 3.0825792545578117 1.8207214286403575 3.558316143976744 0.24892649476621645 0.3064875810101367 -0.6613604953021964
Ni 6.296476693601 0.19035658969776748 1.6553518744279896 0.0701414940120921 0.6168187041360796 -1.6730322536676994
P 1.618099252579211 0.056107328371184 8.089142601180985 0.4403317553875126 0.6128975147048026 -0.6891654333296067
P 7.377298512782003 9.021486856028911 13.228452997433221 -1.9621800578478077 1.9129208066013637 0.9296304275920312
P 6.597076867461508 8.650789659200036 5.950864018183506 0.7123017622367539 2.9703705425329296 1.459642775465828
Ni 9.1267438029683 5.641798352198156 11.00792321759083 -0.41258543851217977 1.7624565071688034 -0.334206901302276
