# total energy = -340891.41295057593 ev
CRYSTAL
PRIMVEC
9.11422786214601 0.00000000000000 0.00000000000000

0.00000000000000 9.11422786214601 0.00000000000000

0.00000000000000 0.00000000000000 13.33959375652435

PRIMCOORD
 96 1
Ni 6.524592965780139 1.8861347072025818 11.721260293786424 0.08799369170216459 0.2586606913348448 -1.0846792610714804
Ni 4.666101710752762 0.12377212162363625 6.301890461157574 -0.304702721195572 0.8641662844509503 -0.9800327913039831
Ni 2.709632509505982 1.4972032747355581 5.0326285490433635 0.3578829047629772 0.3056982523396219 -0.29906120663907854
Ni 3.510253600645597 4.449356265260335 5.106116565821692 0.301997406449267 -0.15003698208715452 0.09996783334490525
Ni 5.123681505166252 4.636033874047849 2.5485822857584415 0.5585806464297928 -0.6839458368018801 -0.5779392534620628
Ni 7.215059502686481 6.08013765904627 2.8050365978637686 0.4642409579049424 0.23621521784713512 -2.2622673917585554
Ni 4.94898910561395 4.512244435391858 11.435912968908061 0.2497921852006214 1.1432453915411471 0.5747261458414037
Ni 5.352156961522341 7.793375469524941 12.406555417977893 1.224988731458226 1.0511921850576282 0.9512631753704586
Ni 1.9192011247731855 6.669427155861302 0.17349479005153795 0.23868450532323407 0.16601741667581085 1.1159271633421686
Ni 2.778454041776001 1.538736809705029 0.7607745996906287 -0.032451692770802176 0.8665178154022625 -1.0806367155709906
Ni 0.6590598201735572 8.98976366379805 4.718374540050634 0.2166979737498139 0.5051178986249624 0.2315923743631431
Ni 8.623781856315253 2.351917306415837 1.3313352703022896 0.42837046926057837 0.545390372991764 0.9344440469305907
Ni 6.770595081725055 0.6661060294965543 4.873393879424837 0.2277848276915948 0.8214420061095465 -0.9716401963649136
Ni 0.5103985659419265 7.457753154028826 2.5163944797241684 2.008317732746135 -1.2234126452203575 -0.05655681334912195
Ni 7.657591707406184 3.8518366209628727 3.779907137096499 0.33526105359840325 -1.0695943417139 0.05872631019661499
Ni 7.808532429949393 3.9138589394766425 12.568230877735726 -0.3643183759756758 -0.16323676860688016 -0.09519226633313282
Ni 8.107260352301681 8.862255620299498 6.704346495893897 -0.5275415177358012 0.3598791092573996 0.6033335251654512
Ni 6.879628585969028 0.974721065900824 0.5670416673525622 -0.1020213734398243 -0.6899853581277408 -1.1076996332260536
Ni 1.695729379344953 6.728314180096051 9.311476756622032 -0.20712472823908198 -0.7650595135547598 1.1668350059356292
Ni 0.031006602143107236 4.998433790101415 1.281757518092517 -0.29534210591627846 -0.6975444014219212 0.8729198622738643
Ni 6.462415705397929 1.9798289664709954 7.0697440813903984 0.7298014616834141 0.2928028844341925 0.02062513244951932
Ni 3.3893624863521885 4.4044504660954065 0.5192995205724258 -0.6777466499697038 -0.08691279993315999 0.06210911062591885
Ni 6.021432919362627 5.677389057605422 4.749775788246885 -0.6294086249859483 0.05643957104496731 0.558482944509664
Ni 5.072641830856612 2.6263011269679373 9.842619304479804 0.3520678407430969 0.4611520345669735 -0.8046653008718399
P 0.28603909474980865 5.51258559495061 12.56723104697291 -0.33079967539294 0.2961445472129158 -1.7934290442909178
P 3.95466333624169 6.147956626285206 12.680163617765036 -0.4195443863285162 -0.6448583838821152 1.1256873280527258
P 2.218512357689012 8.569734486912365 1.4078337164421313 1.255107148110161 -0.4279323532818952 0.5018844792893292
P 6.4469488612365975 7.817646657504686 5.630642184474322 -1.3444416701109363 -1.0754680268858574 1.035955827723848
P 4.68645378088373 1.0019543778360398 12.775074626412081 0.07774321761874999 1.4739897882161195 -0.07914781127576047
P 4.321264911198246 6.170240912657897 8.267426495976357 -0.17612750852661926 0.038483757897495016 0.41239132022350267
P 4.649021648314142 1.0244118345322821 3.9349802504132794 -0.22330725153621542 0.20846967230275065 -1.1030446509525453
P 0.20264208977336537 5.453589199985198 3.4820341292888983 0.04630196839033317 0.9018679127667822 1.047966479031479
Ni 1.2682721070017051 1.10440740978509 2.6708532941037206 0.36900703970059673 0.4373559605886404 -0.0016017972694811124
Ni 1.8444644588197816 6.628732129826918 4.716893478072898 0.661013653485739 -0.5204144197727166 -0.41997196078423804
Ni 6.3727408204814004 5.768121192918365 9.03784121415222 -0.40970503164059113 -0.43284393165089974 0.8275200939828263
Ni 8.53878257013459 2.3176022396701588 10.123257307980346 0.07564751143198585 -0.788679466966545 0.41315750896556586
Ni 2.4628921411290867 5.514526925419888 7.124423066762868 -0.09749854586880628 -0.19537504390232158 0.5813922450076697
Ni 0.4907008973494269 0.04618452529093689 9.740384102569324 -1.3509943836277893 0.5553271724895016 -1.5702400635001215
Ni 1.621913250374634 1.268919217158131 11.458030464916492 -0.678992863671979 0.7436769341139257 0.171106401162944
Ni 4.2906137639297945 6.865273677569442 1.5268901367286587 -0.14226068057584534 0.5024274962769928 -0.18695776637290382
Ni 5.842976343829987 7.873744728107516 7.911739208517266 0.0962153082810085 0.24938235135671244 0.4049245795328123
Ni 5.3605238224181 2.7433733799156776 4.936570059147107 -0.07331526375438341 1.1253687683710423 0.31684938386043493
Ni 0.7582071217883024 7.434311360756612 6.75430339996997 0.6430249302178023 0.06562098043391924 0.18897145436882296
Ni 5.406277244745671 4.459810284266256 7.2429326333960775 -0.20072473825000917 0.1508695052907789 -0.24388893234230896
Ni 8.244055793679076 7.2843276321067085 9.088425177084098 -0.4590606992555836 1.2400980762958385 0.5348645337597756
Ni 4.754081349344006 0.38589730611386674 10.665805400200812 -0.3023280503158084 -0.8092215527839548 -0.7785464922976011
Ni 8.237356836425935 7.244853912564734 4.622035331945675 0.41532906269558795 -0.36450838049929485 0.07519345461370276
Ni 7.525553892812652 6.155111294916111 6.77632701943458 -0.40656828578382237 -0.2191366650982936 0.48761408541324414
Ni 2.4761077710842616 5.451219500820822 2.515420168798508 -2.5136642024421354 -0.8740004969325529 -0.6372525465103993
Ni 2.164920699663888 5.264824433087522 11.34419011705986 -0.05518075893720174 -0.5432779546344515 1.1128814345373093
Ni 1.1827259671677237 3.454921125157412 4.005466040634894 -0.2338719144259392 -0.18531046057746797 0.051521564918059655
Ni 3.432099099358958 2.992155335264959 3.0044367568957164 0.27308920805534903 -0.9180386089893737 -0.2248691967066966
Ni 1.2616551777965623 3.6929118350812264 8.210413356926978 0.019912422653210866 -0.11994144825335473 0.4574432182568186
Ni 3.926427459275392 2.6312501525304612 7.139950976248821 -0.2979499758527708 -0.17226391180615494 -0.28105885652438695
Ni 4.246409760286623 6.773520748770305 6.182167790836754 0.3549829575073628 0.49774603164092346 -1.4301679059351629
Ni 0.6454714183113707 7.4419399692203925 11.419265832278318 0.6137441789758139 -0.7326299322711447 0.4887708247255067
P 0.2284563164782221 5.86779438546305 8.075510029190061 0.06654734890293056 -2.9510715850940015 -0.45249178778881427
P 8.574947825073993 1.4890278126184602 7.918502876786049 0.14215218002243907 0.23261464498007034 1.4467605201865212
P 1.8442366031308994 3.2494044080131075 10.231187990690128 -0.24753758483848978 -0.6434617606449047 1.5585330594758384
P 3.9684258198501827 6.077603903785898 3.706499325520658 1.538167608445609 1.7748535952815756 1.3866964650150893
P 6.706130150226468 4.02121542585044 10.396119052530711 2.1591170469206102 -0.4653380476238631 -0.39044721185224374
P 6.494178788428126 7.93202109909606 10.448810224873373 -0.7124303173948182 0.0596213112070586 -1.126983164046014
P 2.5609703438515963 8.441296792203174 5.830082446107514 -0.1189834552154596 0.20195244000952312 0.6240638157342672
P 7.021965477700041 3.8985652656388607 1.4188254748738147 -0.8879379329492515 0.8549388523154116 0.19246198402058468
Ni 5.319956395569491 3.1732914936988545 0.09896501706363942 0.6370964805485093 -0.7350987055266115 0.993084739391935
Ni 1.5149031046479373 0.8839588536369484 7.129065854279535 -0.5815573098306243 0.20256899054759953 0.2057407034073618
Ni 6.973067646865893 0.5762871397846516 9.271271164607366 -0.21865792568966214 0.20572321990586506 -0.05756957088435246
Ni 2.883604885081418 1.5121597221537941 9.110782377277232 -0.11117244381147307 0.012504560224913948 0.5220717528704816
Ni 6.160032977795969 2.0301395025762132 2.517047969839883 0.2624476691811029 0.7439273595618349 1.041390111365542
Ni 3.992223067997053 6.697107064946728 10.680905852414423 0.09288007326018843 1.3806289186647709 -2.429165925487739
Ni 8.404402399059348 7.272506478967493 0.3389079945297975 -0.7659647989778486 -0.89051083588275 0.2737522955606447
Ni 8.05666727514225 3.783908282993273 8.163457767984863 -1.519966254946234 0.5011776830302918 -0.7105120173261827
Ni 3.0452274823194307 8.59149014808685 12.365495822841298 -0.303827003458838 -0.23688421888970174 0.42043527357390176
Ni 9.117235250386377 4.523728362111527 10.395651492657125 -0.29323405843434014 1.723999745854502 0.03356523754995509
Ni 8.881340812800282 2.3042043251638775 5.878318584021148 -0.22531862553928939 0.49054899967185195 -0.4047433167599417
Ni 3.456999169040019 2.804648331769913 11.800191327260773 -0.4163248509499539 -0.6518432998403806 0.024377143292783822
Ni 1.1303647298625648 3.249422636468218 12.927212958456057 0.2499019713056083 0.2701044143954122 -0.26657506108591505
Ni 2.9993282323509742 8.035604295261965 8.083392924602634 1.6682736559367914 1.22005401316077 -0.7435144403941325
Ni 5.440455598078021 8.080573894019782 3.55526877054119 0.59788844289048 -0.9216268405612644 -0.048741173959445085
Ni 3.0263792597350845 8.521766307288857 3.6071196111032524 0.059842426078929194 -0.2070797339337595 -0.7226350258419619
Ni 3.445460556955018 4.507632636248879 9.438362298378554 0.6095111147310728 0.009442633470138576 -1.0790850548131543
Ni 7.054093129832449 6.1752081666755325 11.38865114192009 1.2858362017629015 -1.0294051710895238 0.15389800770445755
Ni 0.5547793855996709 0.18185253671974175 0.2834132857911286 0.09035704972801857 -0.3754656508417469 0.21913023734039036
Ni 4.716366675720202 0.30494291412224206 1.4808149821683856 -0.9626503341614776 -0.6362382463132721 0.8094956323809477
Ni 6.185890041370335 5.789211515481313 0.16881919131567258 -0.1111441616766989 -0.7252878900837766 1.4589169530433972
Ni 7.912152083025521 8.737326903199095 11.908695294883783 -0.7282233185630168 0.7440590000436927 -0.7492264031772452
Ni 0.40338295167869664 4.996957285237458 5.833964195623313 -0.6654632046166603 -0.9131373150330145 0.026019049771580996
Ni 7.917410992324925 8.838339887194408 2.4751480429226893 -0.751781565498931 1.3282043823164673 0.5931203320778753
P 8.537269608360411 1.4887543857918013 3.731377521055586 -0.5338039537057452 0.8939111198135508 0.19153073045556693
P 1.5889926604449152 3.288194560488435 1.8038469037196179 1.070042484994912 -0.41297547486174685 -0.8420278006806983
P 4.966406394472115 1.0059646379603688 8.326093867327025 -0.45934866280964765 -0.29257328492188966 0.1941098040366528
P 8.648745725589201 1.60530712776889 12.448761582940945 -0.4634631991986534 1.496660747451074 -0.7060760930420161
P 6.414301698133537 8.048254843108714 1.1760734924751153 -0.20880725814782747 -2.071883630423238 0.16692218787826735
P 2.026557611146983 3.2787431065135957 6.306319064326691 -0.32760816503883583 -0.285299891188928 -1.7106842596925182
P 7.11195024635345 4.0772132399501615 5.960597273276556 0.2467929933629814 -0.5270445234947245 0.007600952275709491
P 2.472708164206137 8.769582154517277 10.189888691368827 1.0117648322999413 -1.2424064127140408 0.4803010966915987
