# total energy = -340857.84521873615 ev
CRYSTAL
PRIMVEC
9.33620474724416 0.00000000000000 0.00000000000000

0.00000000000000 9.33620474724416 0.00000000000000

0.00000000000000 0.00000000000000 13.66447936562989

PRIMCOORD
 96 1
Ni 1.4069753835821213 3.0441722387122185 0.20944468162207205 1.5789658734088936 1.1946273455575491 1.453226073306207
Ni 4.426798800452533 6.816400391867613 3.973863099550982 -2.2951044928932345 0.5821360651522297 -1.0571753992242567
Ni 3.9066975093622758 3.531764865058161 13.587534195276636 0.4937952745232915 0.4425609018283475 -0.021807068572762444
Ni 6.51167600686196 7.0091743463881775 12.726685706989612 0.1153502293382465 0.23855929259927947 0.4892765607173316
Ni 9.288440670730221 2.635377179983167 10.02605219067765 -1.6334974287978705 1.2188301680559976 1.5802871633234785
Ni 7.1930135530166375 4.597791389422126 12.594509322655563 -1.6593683830273616 0.6130540948873249 3.547526123751432
Ni 4.1017494978281634 4.678792301346787 2.4726013847647157 -2.170083573234443 -0.6593923158322321 -0.6050489651946612
Ni 6.324541119976538 3.033398258495407 8.762771267160497 0.4779251402602543 0.3055696971815576 -0.04504289917225146
Ni 8.896768211409865 0.4509722970544148 9.797213411044847 -0.6677016070288758 -0.5508935621981802 1.2473616998367871
Ni 0.019033720509544536 4.778558984706278 6.669782766112971 0.5516934323916564 0.37255259096001003 0.5027856509473599
Ni 5.19168604241332 0.17647014026352967 0.4375505691864002 1.3041367998443023 -0.6145959854531479 -1.2103501556094445
Ni 5.076057147278817 6.983397085228197 10.78686324566906 1.2974758428843591 -0.8163954448245747 -0.8675907367514671
Ni 1.0183745356060718 6.52048004788835 3.4561565449647214 1.8380327990432215 -0.045191508934973784 -1.7720865740593996
Ni 7.572520937620785 3.734621920648186 5.512251165923187 -0.31526712697497966 0.1615876630392314 -0.20381828957366835
Ni 2.8004972962002683 6.752876855130015 9.63523399408679 0.8552180741187271 -0.14188735639682662 -1.5574670801051693
Ni 6.194329073110095 1.1792933597108983 7.104969408270865 3.4326165814950307 -1.7314685434277215 -0.6789077601573404
Ni 1.6028676304704637 1.2468688092856681 4.6623885896995265 -0.3845316176987571 0.8125524169294007 1.0299762131016454
Ni 7.087047629740368 3.47512211118 2.1478788493046337 1.7617509964613465 4.168446765871027 0.04577334958037278
Ni 1.511540876154299 2.0853813614629004 8.613404129123488 1.1004236683899307 -0.9889689174513485 -2.5656609072244008
Ni 3.4822456353614797 1.9283744071248368 2.907609705412954 0.2718849033346027 0.04445128833483957 0.0976013899952577
Ni 3.4425480930028276 4.140457402489257 10.77807694343159 -0.12621365441531168 2.204683165586184 0.03577021562107388
Ni 3.0796404803445134 2.012129499434212 10.44234048729406 0.9013668047606477 -0.638929677102506 -0.2910869301843503
Ni 1.2750734836660742 9.251226558820159 2.45486446308716 0.10112097311274199 0.5319206206401033 1.6382876510976625
Ni 5.926706765558177 5.1662262122129325 3.558585913902925 3.5182142621611923 0.10183136891620526 -0.9903763393218362
P 9.007374228419025 -0.023015611811511835 13.42641651001183 -0.30086740660988187 -0.20194421247940703 0.371398936971541
P 5.576627098149342 7.577450453699188 1.3626928310982735 0.8367770938047201 -0.9296273422682377 -0.10403506143574341
P 4.850783864218632 5.18420774245347 12.098134128554026 0.48877828092467435 0.14539254133660767 0.3855996539519553
P 3.003783817206215 8.911426052779357 13.176438695710997 -0.05613155288624526 -2.0404948316993115 -1.7574405420114505
P 2.3661770538379736 6.008454573858355 1.5064134325363847 -3.23262177943251 -1.932282498957427 2.936276686173014
P 3.422269856407581 4.53486536978494 4.679387017585791 -0.07584265816192745 -0.24262703491074988 0.054369318779499916
P 3.5884823085738735 2.9865958643646633 8.15990732231983 -0.8425283944662006 -0.11855150988436358 0.8777874747788107
P 8.701548171259487 7.523440509544719 2.5512262325947686 0.5197485040539436 0.8151160638915187 -0.024726556212402575
Ni 9.00883067635128 1.6187858594736388 1.1350864304850714 0.3286301785454469 0.33274214383129147 1.1442710045921842
Ni 3.890555211446446 5.009686068109566 7.0878888217832925 -0.28188906573516614 -0.6407739294000965 -0.3041054539312053
Ni 4.283870842792937 8.318390330620007 6.053500827886167 0.9301724161384303 -0.19889642679201874 0.2715244346713905
Ni 5.593684344125179 5.398903105595416 0.6010797961236535 -0.0007528190056245099 -1.0936536966559487 0.7793196230181998
Ni 5.292675768587716 7.311032516552789 8.029234066941507 0.3956734932481895 0.29598411037565153 0.8939985373210345
Ni 4.130271603168163 0.9157733805015 7.477271110092225 -1.2498793240523183 1.705019090986941 1.3811128002797246
Ni 0.8316383046610808 7.7679930552979 0.9584687781873773 0.322975808473147 -1.589051796889986 -1.3393375161151515
Ni 3.3842621670985324 8.158087696024982 2.064443055195791 -1.2503313239880725 0.06181446220363548 -0.1502696669232509
Ni 0.395986719509429 7.665024053728386 9.44431420981844 0.7292203923689635 0.1540180782220896 -1.2212973986495677
Ni 7.044325157060879 8.106019682446853 3.724103752439988 -0.2896301431331657 -1.2863031140969912 0.32003395223600367
Ni 3.0941582786435973 6.94709792137814 11.97114960765028 -0.17898297569754337 1.0927124157886021 -1.1911915804031228
Ni 4.591181356498812 1.5269549501040014 12.317776746563293 -0.5400661325653731 -0.07308360735955155 -0.5447342274650038
Ni 7.0746491499068105 5.552119560827738 6.984844196955758 -1.578554754013404 0.5331514077234109 -0.605612293897299
Ni 3.7329787486220516 6.672566822352705 0.3874216853232043 2.9235330133541004 0.9408242394253216 -2.283023393358984
Ni 5.6680472145124465 1.2582403066028924 9.815208945592424 -1.4941174122039298 -1.1505013017726122 0.6695815976604081
Ni 5.5844881825016435 3.2202157144212347 4.548522370011241 -2.7761758920919544 -0.23609951820487726 0.0999161541713634
Ni 2.776568603569689 8.868862295579664 8.396522226842219 -0.6245839499037953 -1.5357656838723357 -0.45130573790051304
Ni 2.052135136547764 5.245808021024115 12.790731137569601 -0.7864374650099037 -1.7164597287237149 2.025577805378163
Ni 5.242708401065726 3.2345654610358276 6.8050064876591225 0.3596258555960129 0.0462348625978236 -0.7562324021814331
Ni 5.39015508179719 5.043231051574908 9.278372507588273 -0.3917988407841317 0.5682803902160599 0.22147662608537985
Ni 8.89659082352068 2.7047078360403987 12.669882370390713 -0.3571195442343914 -0.6375101710471601 -3.36563420193721
Ni 8.72193844231106 0.49851972031973496 7.536151752235525 -0.09080082213365652 -1.922475283059018 -0.6564504595950887
Ni 1.6989931939993157 6.206942285651613 5.78109931715142 1.1985091971104584 -1.2615878707384984 0.6492354299038883
Ni 5.796513391101121 3.151510584078498 11.18354271156678 -0.8608953270091625 2.1612405210215164 0.1496330617805165
P 8.877647664196667 4.22579031339191 0.42288992695549926 -0.39338649698622574 -0.01831576759005233 1.2784543074765338
P 8.317391356717755 4.474198711683689 3.6004531902324493 0.07434704745300744 0.48566750320983454 0.336538120538614
P 6.792966518085812 9.072018109719895 8.983739626236305 0.7995408351610811 -1.543601892087303 -1.3935487120502321
P 8.14835937073389 6.6075868376828515 11.33173442143282 0.09944847050632549 1.468656034708032 -0.9035021059360956
P 3.212373302478322 6.8923877618716265 7.36220238723936 -1.3029306953513433 1.9314530610775962 0.784972450428603
P 0.4018321172683076 1.9884435481256753 6.408777026827651 2.4516093420929197 -0.4025542795284228 -2.173055511378574
P 5.922720206153863 6.3711474538087085 5.233686826469967 1.7364477418098676 0.8502812989387419 2.641797699587979
P 7.297532364565346 1.766316566047349 11.466507204292256 0.5470878152988449 -1.1990511856568575 -0.35376913970491974
Ni 0.9175145826769207 4.648907110121471 8.943825483928753 -0.04345575719078967 -0.4671236787693761 -0.4027820792685127
Ni 1.042041814505221 3.8573369951453915 3.8988719025878114 1.0041145148435353 0.3889058355070528 0.5579234724617682
Ni 0.8255613690257925 8.237352073876568 11.991277531349954 0.13796770962744623 -0.7507816634795069 -0.7424682585178052
Ni 8.973343762309598 6.184208627221859 13.232695864335298 1.8035597049670165 0.604876701282855 -1.865655960077129
Ni 3.717359278169083 8.782063600540063 10.79156309111199 0.1295278063902092 1.9803613567425251 -0.010789120195704
Ni 2.089115843340478 3.451566866737178 6.253548619483785 0.3299113592507157 -0.3323526217023567 0.2825747789482811
Ni 8.003200060152443 4.546909073840128 10.739447462889924 1.598619385973763 -0.31631999371952624 -2.8563909682899644
Ni 7.344726879293234 9.348528484140449 1.4270500909150405 0.6894132876743546 -0.8390098397899808 -0.31837996157234844
Ni 1.9206627020476383 8.51295683644181 5.651710723538982 1.0403781251612598 -0.03445072547870196 1.123513974550491
Ni 6.094020889878355 9.12518779545191 11.701317420447307 0.7373229668714398 0.10263689553663614 -0.10042497548698187
Ni 1.419962044311398 1.1900019864948523 12.484168453859711 0.7483481143373499 -0.5431977362158193 -0.6956633823491246
Ni 3.788846597510615 1.4036330223016893 5.35750077225965 0.8932125510846294 0.1209153821308498 -0.9260457955645663
Ni 7.790063843194385 5.896989626017352 1.3644816479176332 -1.206736470116257 -0.2274662680099115 2.4838445479775415
Ni 8.714814918129582 6.3673102736794975 4.97139735903923 -2.0209611325417582 -0.7491664964735872 -0.41692494642779804
Ni 5.313411479212967 9.219455454246667 2.760320806540818 -0.7052713377525337 0.865890980451541 1.1958023397022566
Ni 3.2443217949409995 1.204024965945157 0.6274237649085564 -1.7056261284433207 2.5203411002416787 1.4821882648665121
Ni 6.904114034967221 2.5864087863634286 13.869172946935572 0.713943668715551 -1.6461819662440746 -4.1099878504031855
Ni 7.028668341789134 7.985937417673339 6.242877337518606 0.3383926572488495 0.9727601689019699 0.16538363974655387
Ni 8.562728143665227 2.0731789419279147 4.103989253334241 2.716328580917019 0.1931178724370287 0.7920851502139843
Ni 9.28881411891798 8.70986672964179 4.620944243442638 -1.5496046466379572 0.36604564307942766 -0.26328353481883693
Ni 8.341805531992419 2.825705048873919 7.545908086140696 -1.0740930009152019 -0.3800339869387197 1.2899471386074817
Ni 6.617847326641497 1.7820480709566453 3.263474085250157 -3.0488750637977367 -2.301309850372998 -2.0543700470195074
Ni 0.9931574467277279 5.966478997554381 10.800540785545689 -0.8615771835675355 -0.5244212269392646 1.7535224379039671
Ni 7.583238900609433 6.6258764626782884 9.15625308295054 -0.5682395096757955 0.8144907716026941 0.6844304897477825
P 7.895348223527996 4.533987766543709 8.660738686921786 0.8455849219043372 0.6346022533717457 -0.26941792985134894
P 3.547729775084806 8.842394155272332 4.089259523188605 -0.9090549174335246 1.6292247695644455 0.17851863446661512
P 5.355088296966734 2.480648259590426 1.3818749972624516 -4.88519756501807 -0.9094099867800983 1.7906465964497744
P 9.275752768551152 7.4732864179288505 6.730274837186444 0.3223528301771674 0.5582152926705741 0.5955574807644582
P 7.022189015731536 0.6466367405482247 4.834479116341127 0.3517374539868717 -1.6238136258512033 3.0178403059791186
P 1.3022231669160647 3.722223440814628 11.314926452122313 0.3845262183821184 -0.1069190678517578 0.24682770325565878
P 1.8784537206263157 0.3304008151549387 10.116032664276949 -2.8620643645256583 -0.5625725411980053 0.543830998924444
P 1.0637764990327236 1.9343962591524306 2.7961354213672576 0.5215107381606889 2.139131090716987 -1.6469101026593507
