# total energy = -381173.00816646544 ev
CRYSTAL
PRIMVEC
9.18242335098238 0.00000000000000 0.00000000000000
0.00000000000000 9.18242335098238 0.00000000000000
0.00000000000000 0.00000000000000 13.43940474773802
PRIMCOORD
 96 1
Ni 3.68239042667759 3.7209566039130952 5.447877479376142 -0.364242785542734 0.07591027817506926 -0.6542135998447701
Ni 3.1578904162747135 4.653376580389806 9.909141239078853 -0.8605389721110083 -0.9499783951207639 0.3022437181321182
Ni 8.150263694564615 7.562983457076224 10.617774544450336 -1.7417730106775229 -0.5758057520588278 -0.386746880182521
Ni 8.419914732826008 5.220409574829554 8.922648727391017 -0.24075989979502407 0.1869654796823877 2.0610052929478377
Ni 7.251534028630062 3.035084689049082 9.34502274574733 -0.5472310257449285 -0.4484842092913179 -0.5955523385581356
Ni 2.080020857081239 6.381949373777773 5.6995575972881065 -0.3709183977906967 -0.10118370802987736 -1.2973506301604045
Ni 4.612624986444288 4.250920156091002 1.5350082316006493 -0.18644894505728535 0.639009381300506 0.9817333189348577
Ni 8.305364004013406 6.7677029703643425 3.647010550275589 0.3639771905861731 0.46102630762238667 0.21923590968031922
Ni 3.8236069123216 7.806978805052857 4.545583196774253 -0.6537310037813967 0.8773611858746697 0.6099854832643301
Ni 3.5098710605107617 2.2704826780857292 0.8104911706620289 0.277640060650825 -0.6150451571754246 0.07967180210003054
Ni 6.81343143765787 8.72611181522962 8.026671033674916 -0.4681978856701614 0.3973863621742382 0.8747353182160484
Ni 5.439180806409535 0.46677838023142126 1.2182375889383028 0.8824234308889254 -0.6987939575583062 -1.0961504949358736
Ni 0.3277188457856544 0.7763454119315643 3.2779248881932794 -0.85689546182115 0.17096550470970556 -0.8945636657958852
Ni 0.5465047692426778 8.659401511035346 9.514627610805933 2.3223610146163423 1.4307093802609296 0.7629316685784796
Ni 5.877889437309714 8.249433864598771 5.932717685946192 0.4590262464732223 -0.7595465541563307 -0.23920129705865253
Ni 1.003188911703863 2.438089447866606 12.88554014352559 -0.6354913408449184 0.4535767933228769 -1.0808819988125773
Ni 1.7717577294685822 3.85142047204692 1.0115568539216526 0.40618416297152626 1.789996364460285 0.7800711564722437
Ni 3.4731872800212744 6.4352808874405865 11.48011426743624 -0.7841399272249786 -1.441871567525336 0.3407824976372647
Ni 2.809123620141624 8.976791967260407 10.812564959728352 0.04794130376596904 -0.6752863613546692 0.4584449200484556
Ni 6.093382543824678 7.9201062582770065 3.566361327737626 -0.7629887470686602 0.17393847129510043 -0.1915027054311089
Ni 0.853480521129521 7.808356168525553 2.219061108438388 0.5884005580047028 0.24971762320894414 -0.14728564459426247
Ni 8.171594463545109 2.6113342254623886 4.538742291526526 0.33409994341076654 0.07503636021054819 -0.5420736499137051
Ni 2.032419175464844 8.850625473161395 6.460752011020007 -0.0867860445473086 0.31223193969308155 1.0853336068260278
Ni 1.2522345924137162 6.71816379746302 10.575090968673782 -0.07675488556355167 -1.2303931903032486 -0.5769149259626065
P 2.993194474632802 4.283435116469794 3.2743896552800247 0.35547352399053617 -0.6666016890964778 -0.032193039792776816
Ni 5.888522683318933 1.6618533067705425 4.286578259914488 0.8284595750779603 0.4225811162723109 -0.6557776018977803
P 7.999543400958997 4.3052341890310055 0.9660790667801553 -0.31366250149202113 0.5386484262822401 -1.4796125337195356
Ni 1.3758300080303605 4.184136392511518 5.237443888017551 -0.746064974730128 -1.012583985767127 -0.7227224433494457
P 2.3649514474664155 1.8693944348364706 6.864767610769904 0.1368711341291578 0.46421910352807144 -0.26274951669223784
P 7.177716528916675 0.8893424747469656 2.497497889170957 0.17922594494628488 0.6460472619838937 0.814300767079075
P 8.313582272733829 7.608335445020549 5.683685778871065 -0.6705570741997999 -0.6516718072595229 0.5345014939934021
Ni 3.158588280434213 5.832078328207825 0.4269992048976275 -0.2605813053963254 0.4054614258728888 0.38414980887930616
Ni 8.23400739370457 3.429038189509772 7.286845036858429 -3.1319486924904645 2.892583873270754 0.6070271719669547
Ni 7.366534696177081 6.168017279198533 6.962471347826797 -2.4747402716834284 0.04861081902916789 0.2955218260272523
Ni 2.6526183999506823 5.1069056422562005 7.459245949766606 0.8940928968070537 -0.30648835234108507 0.93597822418693
Ni 3.111849746594041 9.142791812989804 1.0219945143177476 -0.9639662247594238 0.2358856024218583 1.5978262006485062
Ni 3.190644119655439 2.2768644621758902 11.05592580226523 -1.1156538550761237 0.124652737686095 -1.086660038946935
Ni 1.7946770576542543 1.61280080229624 4.8487353876608905 1.2993537766333623 -0.1124525960754773 -0.4923634271727714
Ni 3.741029380921861 2.9945993853749524 8.101192825244008 1.206578347271838 -0.15413172098181843 0.155210555868294
Ni 5.309469896974118 2.2182346903547705 12.654865736814566 -0.2397898225722709 -0.532945719470508 0.25343646682142806
Ni 5.629027405062887 4.948095633854279 8.121216935410072 -0.6660396459454206 0.3271890752235462 1.2905814297573708
Ni 2.3019416598021203 1.0027206081231463 8.81020169172238 -0.906692073628303 0.26063324168018337 0.06857980595192704
Ni 7.553066440072809 8.036300640833694 1.7622686133840175 0.27018617547594115 0.5546039211702319 -0.38534974272467826
Ni 7.895377992730527 1.4014122389299126 13.331808663406246 -1.1870490189896588 -0.34892595268000554 -0.8595742942048938
Ni 6.848967415253444 5.710328579644594 2.254406091632414 -0.0483447098519748 -0.5993750547383355 -0.8584139553482054
Ni 4.3487405099219165 9.189218144442831 8.693494011711534 -0.900549965286307 -2.1527713072082406 -2.907826144141805
Ni 0.5304722584204891 5.938015944104499 1.0158725928027688 -1.4089452491109606 -0.3623939052594533 0.4407981535009699
Ni 5.513181954585949 7.8893084110275105 10.88353866299178 0.20257387564360593 -0.27747602426913504 -1.1128937758324833
Ni 8.850607108315094 4.492472979509386 2.878666701878077 -0.02266298881515452 -0.5256530424638367 1.1460275822719745
Ni 5.82182156154781 3.5939636917304667 6.209689870186127 0.9858923354085537 0.3039265051511798 -0.16713096145496378
Ni 0.12865952198459216 2.0239621637424863 6.380276336279604 2.778633352493511 -2.5952314217926657 -1.5965457912741858
Ni 8.027990547881759 3.268556980094312 11.512583315699276 0.40608234728633935 -0.2268846844748286 0.427933895943792
Ni 6.900104329783093 7.6286469650312485 12.746334608551718 0.052616597754451315 -0.05456832216418344 0.7450856415359942
Ni 8.021333291097058 5.035411295600094 5.1511759407533 0.8493405322920277 -1.0260491101330973 0.22085544756161318
Ni 1.7231184340360886 7.538448022415921 12.818503863309447 -0.4245197280559204 0.43845819251388357 0.16316400638741577
Ni 1.1693907707425897 3.325928759943702 8.427245979470015 0.6191725490802369 0.7735199856172872 -1.2510964842888712
P 2.539536858842289 1.036420101088457 12.632395429120992 -0.12178184389620315 -1.4472909387686945 0.15733917217552257
Ni 8.882093637300938 7.6461945756734035 7.789613006389098 1.297629594853404 -0.3026329831507369 -0.6048031677324422
P 2.118348291314811 7.37634152410268 8.360586178603073 -1.536441626893438 0.23462781875535718 0.03900877716302959
Ni 4.120401193418269 1.332158403522726 2.9209875719401537 -1.1518750421916872 -0.4447072587473889 0.7918079852931976
P 2.363500624608508 9.07649471783734 3.3251638640951984 1.2675934535026299 0.6882120682774019 -0.6869051765405203
P 6.226812334636376 0.49781680696748226 12.192590416896547 0.7594876758939372 -1.9587358080529491 -0.7065041817183704
P 4.817512394219488 5.853188719032688 5.7112229476595315 0.5217169406342241 -0.9994885860357496 1.3350247476724104
Ni 6.720229842672065 1.3568407569534497 6.442339416116999 0.5220480987213977 0.5263482687586484 0.7230880542189805
Ni 4.867914714897033 5.82224395301277 3.6373074837315986 -0.6365886876741553 -0.8135325214544827 -0.8718317714160082
Ni 7.790239247648017 0.14701243113711715 4.581331288344621 -0.682563868852689 0.046876095726248304 0.6423078495461195
Ni 0.9264973135441147 7.996843768552512 4.570566733684339 0.14242805939164502 0.27496379937024257 0.20062060857197705
Ni 8.659667801306735 1.0452260448905641 8.268566361476843 -0.19324154249908654 0.5651259037474783 0.02233465894145831
Ni 1.2591581394698046 4.9998294058887645 12.59815141846281 2.193666502760706 -0.9972147023999083 -2.9194220765095205
Ni 6.3892034880673085 4.191968999459586 12.869156864139024 -0.09837272094364348 1.6131288924438476 1.0599933282890261
Ni 1.8767495557806708 2.393517965890143 2.595041852065018 0.7688012399853791 -0.4918006126907659 1.2138545692182772
Ni 0.5843850194687805 2.1777769339500948 10.22834063266472 -0.016798559614577522 -1.975540281204798 1.1958568470892759
Ni 0.38432113857496486 5.385720738822603 6.984982976424551 0.6320303788795115 0.2418716448019641 -0.14703290515350806
Ni 6.562503360201998 5.372507231907867 10.852319342519639 -1.4207101029563725 1.036901479466569 -1.5567320017113577
Ni 3.7455287682660034 7.269072456849067 6.90298852889492 1.8335007155008232 0.9724133270855124 0.9554656434875803
Ni 3.8985630325057503 6.784212967190399 9.373728837002957 1.0498271863893016 0.31145829475185066 -1.6357188619292216
Ni 4.28396769701257 0.8255861560804688 5.8314520869489055 -0.8915711588264645 0.6008526677251266 0.3476357731136723
Ni 6.492698579405733 4.047740679021946 3.8504296885888936 -1.2123916115195055 -0.6589336310282586 -0.5389335616228266
Ni 6.447034389074265 2.6662818455998325 1.4019585931074154 -0.7485324624340141 0.49165020315583075 0.8289385715969078
Ni 0.1099099321519305 0.32829550195955676 11.79678665817087 1.793939408268433 -1.195049006476 0.8754323442830729
Ni 5.07895434618361 1.0103695666081882 10.338342389048165 1.0617234236062554 1.5362331104270575 2.9993502175947313
Ni 8.811820552923956 2.4617433699043834 1.706548751459548 0.6399900000462204 -0.23770774323226154 0.5271319410022083
Ni 8.438591781515775 5.701862385499085 12.05587148211205 0.009976394486421528 0.2537948786021113 0.9585753927611554
Ni 3.8441388104879306 3.8797849771613193 12.629344109907812 -0.9545076504496851 2.4141792222709197 -0.7950902555888952
Ni 1.452200221379813 5.775468689479993 3.3338724742119012 0.9835528886420997 0.4240031934308182 0.6612370823504548
Ni 0.7856986281534897 0.4671328217650619 0.8432053896232041 -0.058194863173177194 0.7973901073666655 -0.8235058306171108
Ni 3.373365157943374 7.211553758229256 2.331965428779961 -2.3343495544367863 0.05639766206343835 1.1017467580767284
Ni 7.640023987315723 0.8093442860104302 10.39259765448 -1.372811993723513 0.3206499885534478 -0.03519968782958454
P 0.6297204790514325 4.2494509683867925 10.518698953374635 0.2565109919816937 1.6071299945479354 0.0793180183050376
Ni 5.268259181871035 7.071990108752482 1.3500824935140847 1.0297468706996589 0.3299946629931414 -1.155851253230616
P 6.375209475184711 6.91443809232229 9.030554136569016 0.0993926775677256 -1.352409261697445 0.5235701917928789
Ni 5.1905666995877935 3.412316996951235 10.489616382769805 0.21638455627445313 0.5586886327625669 -0.2716118521788742
P 8.917473513702939 7.8452327799012185 0.1392716484205621 0.2731084913290587 -0.09871750587757191 -0.8642493310830598
P 5.070947273195667 6.204581688187052 12.833569464973802 1.4126784909011476 -1.5396053693334002 -0.41087231247581496
P 5.703726417398801 1.7095835423110566 8.379307302923966 0.729305495883602 0.7314539096851725 -0.635072508139945
Ni 4.0845071013197956 8.161548892617574 12.760687654179533 1.307753056440651 1.250760698216007 0.3558928709161419
