# total energy = -381157.2622914364 ev
CRYSTAL
PRIMVEC
9.35558274764880 0.00000000000000 0.00000000000000
0.00000000000000 9.35558274764880 0.00000000000000
0.00000000000000 0.00000000000000 13.69284102798865
PRIMCOORD
 96 1
Ni 7.696211009068138 0.2836322631608723 9.383881400488878 -4.021084245292243 2.0324069124848547 -1.4822252887520344
Ni 9.161837873366796 4.921438755609405 8.956391149837671 0.7192666235903612 0.8986344934311491 1.3525079920588385
Ni 9.044051088003009 2.1862312611104353 1.9566246809869148 1.2463502278531373 -1.7305773990720195 1.3278138317462682
Ni 7.752213526716083 5.736880693583431 2.5340381433501715 -1.001934733583397 0.15361518635671606 -0.0012464708125914017
Ni 3.367280012843908 1.9609114089498765 4.399633005306932 -0.8686531165777105 -0.1770451352448822 -2.5201701218814536
Ni 2.4398143284087226 3.157696250673968 9.006288214258577 -1.4736334333179653 0.34292988299757066 1.4994033431932177
Ni 0.47864844761119757 4.522151844367065 2.425591036130044 0.9169389481672918 -0.5901373381901515 -0.5153542316409899
Ni 8.26363645141119 0.5690682826536062 0.31953992486895405 0.14806340330055145 0.4099834821129584 -0.41083605992124084
Ni -0.0672975125621387 5.191787026988065 12.154724309241276 -0.013826621470447156 1.845323419167364 1.009175217195894
Ni 3.298900059371 8.458681638167683 12.199184844593486 -0.33348210732110956 -1.0970220989075494 0.31765311070865293
Ni 5.886083525432651 7.198484657349408 4.074661229160598 0.22312341766018345 1.9416791096809785 1.530269436644455
Ni 2.4304026122787805 6.106931409094091 2.6632574506928735 0.6025745355122396 0.6350691657058354 -0.9898382074301791
Ni 9.258237796828944 3.4857029778268163 0.24173796412520618 1.183242243649059 0.34239663620192 -0.4226453938513431
Ni 3.4657568756508357 6.838958972302152 4.837461174768863 0.06854920982430775 1.4305589707259943 0.7237030620951601
Ni 0.823957389287619 8.125847430375618 12.686472237209047 -0.6578838496075057 -0.3326387854842078 -0.41066199623722177
Ni 6.159687539567991 7.350138651848772 9.83767674283249 -0.7468501896355847 1.0446474419605751 -0.15045555768181185
Ni 7.8261132739431325 4.224803361506284 7.025961164668076 -2.445333536386537 4.659143861084969 0.6041220825050176
Ni 5.525902949601004 4.905665243288248 0.9273365773948344 0.9331685226522767 -0.23603215530205154 1.1824611425086602
Ni 6.900743240017994 2.9824848991018476 5.4699069808609035 -0.6263233011924052 -0.3504855838576415 -0.4571336574361998
Ni 9.42097815674976 8.827965195902342 2.4079819584960713 -2.5125969375198856 0.48161235930385443 -1.1945327289612138
Ni 4.3522451081485 1.777149054850155 9.696407445057021 -1.0297730959519038 -0.09148422135392631 -1.6955905985841895
Ni 4.30052744734699 8.831950674104485 3.2698229085441017 0.5489762905708094 -0.33489492850823616 1.0881844460112615
Ni 8.477523781592835 1.4166971671221191 4.404275245409991 -0.3002086899799604 -0.42334241991836774 -0.5535816505533047
Ni 7.016948931916612 2.983354968286822 0.6221686985684418 -0.2497986129585246 1.2467063256409756 1.5044761297304348
P 9.06436205790172 3.0431277857363246 5.897560954208211 1.0570126483941473 -3.8458468526800607 -4.446762255322322
Ni 6.597117161209708 8.31976059163338 6.14353980394147 -0.5487379493077582 0.3963432656217045 -1.5336730630093651
P 3.3206517889953684 2.752711789607439 11.267427754404022 -0.8575847745786909 1.0832530701479148 0.2636794847056749
Ni 8.937621979957065 8.580425834985709 5.359048939995959 0.5089562985344461 -0.8289216023160433 0.21204196303504128
P 7.061416016176666 9.318581304819128 3.251091160994032 1.0157592981713153 -0.2002601399087648 0.7139130725879318
P 4.663683098456292 0.3212491898162109 8.114569275510167 -0.07844384323020039 -1.0010189066373472 -0.6774941676392655
P 3.176819061578144 6.182374827455774 12.187244314477537 -0.5830338943761507 1.9096724748673948 -1.1896391483143383
Ni 8.83363467897863 4.600448715432159 4.572245376023289 0.08741545060119138 1.243913850497503 0.34649831707511936
Ni 4.363396962648392 8.93159698474068 0.8387429520826093 -0.0834981178246562 -0.7872486480572893 -0.7362467030881256
Ni 4.603236679057131 3.820632836128926 5.373098218437644 -0.042021595847424396 0.6681808606581396 -0.5792682566861314
Ni 4.627954128376522 7.314166436620514 7.791294602053665 -0.968991445888157 1.3397416935321056 -0.3629117254361363
Ni 0.5238667851567727 7.234447516995032 7.848093279783775 0.23676569103396644 -1.1873498380595295 -0.1721394704131487
Ni 0.17470989234293063 0.20138172287459222 7.669332420160263 -0.6467283472113184 0.5571804236481566 0.058691600303937635
Ni 2.2007791921065185 0.8657618747299973 10.355922693942675 0.4581991225862367 -0.2818497278567985 0.7051055015986307
Ni 6.194864530272347 5.778746925871195 8.23907804699658 0.9293686892902123 -1.4187059280421501 -0.19003074887127272
Ni 5.916124301270865 3.962500891192981 11.473422715075506 0.3530937109044499 1.3641715444396958 1.495489095740476
Ni 0.20683509199203076 1.860862808260414 9.880165121365426 -0.1666259967940872 -0.39565215309195084 0.20016475198148106
Ni 3.4004361976992903 1.3748590015822577 12.90081986205629 0.6890687598507423 -0.051933198534181525 -0.26367074295492654
Ni 2.209536017452071 4.673656149544282 4.351064433620072 1.2282128948224784 -3.766044952760069 -0.8951012834669101
Ni 1.9690414102589415 5.539113032280406 0.2693369328959107 0.21524041536768093 0.11821109582580931 -0.6589637129352458
Ni 7.472780984599676 3.3776927763157025 3.092719858163359 -1.4004408111843751 -0.08772115476706828 -0.08512871144954372
Ni 0.2668736079883424 6.622115278008122 3.619414835950431 0.11968870881260033 1.2738026676371352 -0.46994854981268097
Ni 2.778224463450731 0.47681101118185304 2.041150498969817 -1.7948518927803734 3.086089210954188 1.1025887943620494
Ni 3.996489722902801 4.490258663167292 12.973829893374832 0.24417946699953433 -1.6657930556067828 -0.6962241399486009
Ni 6.2920877450063 1.2996494727864294 1.6798509954551284 -0.707045398933821 -2.294189951498765 1.6022860361920728
Ni 5.353526339567027 6.770709996986122 13.045909044221277 -0.9757740160276291 0.5138167119505409 -0.029056551046324153
Ni 4.283986777249836 1.6585857561277348 6.357024844069846 2.2284049346831556 -0.05185349433618167 1.81531581706168
Ni 4.105014481458792 4.528756885706766 10.180901260698027 -0.6608856125483069 0.5033880604180492 -0.32044224341801586
Ni 6.454173214142726 5.251849867499225 4.823070417561032 1.3499821403131913 -1.1935014594832218 0.8636924301383253
Ni 7.241230314404782 6.447596239550927 11.621716184292689 0.8372051824810741 -3.460346700420447 0.06077522230584371
Ni 2.246378301865303 3.1596422118618683 0.2519168380311474 -0.4969680158243183 -0.09468550190004338 1.21415256007467
Ni 1.3957313064390175 0.7020036274185877 0.23619010362316287 -1.0082305938944378 0.5173018422856639 -0.547430029129612
P 4.5307589803904715 6.74594576975356 1.567816957853073 -2.985120190038278 -0.9084959596062612 0.1547536708365335
Ni 5.562333588378335 3.507651174686502 7.635826336514364 -0.1906583551529426 -0.5608535016243696 0.4723864698302122
P 5.9561007058665325 9.096657529154761 13.2199313012406 2.054722031042287 0.22569092127704357 1.1109806179701707
Ni 4.185884137748274 2.285456570528094 1.2624872274471097 0.23199629466978108 0.8977119816168797 1.091448461474514
P 7.971611295069234 6.36196459170067 5.93554555526107 0.15588778444097667 1.268554017643686 0.19098334259252914
P 5.223886031005789 3.4259114492120455 2.9702234725015475 0.5632137743264299 -0.7761677076527793 -0.2401963139820702
P 3.628450457658481 5.543538222866354 6.598209893261374 0.05860649678929906 -0.4798884346342123 -0.3139496937151367
Ni 9.262513298092745 6.338472723706352 0.7618409983882654 -0.13047525790514303 -0.3651269879199002 0.7287596506824611
Ni 2.490727409103697 5.957185953452092 8.404049713375638 0.13625355514981696 -1.097671045345458 -0.41000045139382285
Ni 7.090203143941906 1.2247861005480638 7.242239781771005 -0.7888627866219448 -0.47404971646524807 -0.35670353974289537
Ni 4.557497235558835 5.435649643929484 3.5125834378512186 -0.052675733127160895 -1.1202484164253417 -1.94432554616489
Ni 7.704107120811351 7.716288089400997 13.654829302221518 -0.41124152288977556 -0.4229647248639748 0.1941987642060333
Ni 1.9651120655526042 7.827815989982546 1.3183989959435034 -0.24015131967674772 0.1863892954639435 -1.1571020949185813
Ni 5.902268683389709 1.2563050584424718 4.5728750067345665 -0.9404766262779158 -1.1839153584566835 -1.114256717618281
Ni 2.404908649600757 1.0941073223144362 7.708247901685219 0.2779308524183665 2.6598129052184776 2.1432209445156443
Ni 2.1828819625274143 8.722003866988105 6.6058786643465774 -0.8726789499076519 -3.179358549232995 -3.4286856218717396
Ni 7.712742323582659 7.734166607814833 7.893210577036901 -0.35580031120233563 -0.506014956517935 0.9710141327451406
Ni 2.360413498592801 8.339360537251897 8.74847923028445 0.14358351315232692 0.39759436441998625 1.4627574098354097
Ni 8.215520689923823 3.363397446050741 11.137359895716402 -0.4409519054700148 0.5882897434584514 -0.5517116872241014
Ni 1.281836443451032 1.1619446519945646 5.3797799755549445 -0.1616696812300764 0.6472582515728594 0.6115037196810694
Ni 5.217514879231943 0.31736662302304397 11.436862969257826 -0.93052774259532 0.19434505997591045 -1.6651140272618872
Ni 6.2523920078896555 7.695369006631067 2.0000037109866184 2.4051124840829607 0.8891558645167525 -1.6935350016067412
Ni 0.8426582634149957 4.228629794803647 7.0654782101564075 3.5479174456525797 3.4603860382988145 -0.6610617331148552
Ni 2.8933355521811546 3.2674185238071285 6.841751613718443 -0.3899391618675736 1.6705660515153942 -0.7275386337911663
Ni 6.899779615006678 1.9008392128560818 12.474479412510815 -0.005580322301254905 -2.0964176110088606 -0.9758539773359451
Ni 1.5316398553651278 5.277315763429346 10.621071132493283 2.6748608006905354 -0.06476840262563684 -0.5195538715446342
Ni 9.056344323584264 2.618019466423767 7.815093333158383 -0.06791080490936047 -4.417283529136915 4.114374666616972
Ni 1.0001959838329677 3.1374601254363292 11.857329048467324 2.6757714854302623 -0.7138127995646416 -0.31639712681436477
Ni 1.683976807396783 8.75670372297812 3.7998587648898243 1.7973492052809303 -0.7828230081857679 1.9643513544675135
Ni 1.3896969556399992 6.113751628834378 5.560347398185107 -1.7366256621486285 2.750845640857282 3.1479792635907655
Ni 4.330465311776229 8.894118520708327 5.7937008891536 0.4567158531724908 -0.9721114795743774 -0.6951651025564672
Ni 3.708562311754597 7.147262842427508 10.119201193225893 0.6964133731412716 -0.8274221349523814 1.4986376686717868
P 7.6228445300512355 4.6389469379716335 13.3277347443755 -1.5951311703148465 2.566653095934341 -1.2532742086664803
Ni 6.356257686293847 2.155965951289002 10.262482876825965 2.1723011497110525 -0.31136933458247024 -1.9468267153201892
P 7.306027079728816 3.9932246245634877 9.155170149623446 -2.129841180774629 -1.0165470841799331 0.6045514567329523
Ni -0.016984124714012568 8.799019023232322 10.126581812365963 4.091393889451083 -1.4555207828776546 1.682830984925676
P 9.360447537106893 6.711330114007254 10.287759789986879 -0.7452365652915617 -0.22805222242036854 0.3637776729808574
P 2.0694923010016724 2.9738216295826363 2.840498028138338 -0.30725839773789015 -0.5401232110555536 -0.9299441021777081
P -0.0011563500135793505 1.2119408855913933 12.06283096993399 -0.3813624759421561 -1.0334705994081492 0.27365587919209644
Ni 7.31659888810539 8.517509541771137 11.497782781138273 0.872583304870052 3.068035438776271 -0.01673145382206796
