# total energy = -340888.2598985466 ev
CRYSTAL
PRIMVEC
9.04224026314954 0.00000000000000 0.00000000000000
0.00000000000000 9.04224026314954 0.00000000000000
0.00000000000000 0.00000000000000 13.23423262877175
PRIMCOORD
 96 1
Ni 6.155261014925243 2.117973012204604 10.961849267906732 1.3736409173827118 -1.0879574176021198 2.0633570810094657
Ni 4.865032773836478 0.7188156136340137 5.8103311913320255 -1.6684688026667331 -2.4033569348444352 -0.5484679834758232
Ni 2.9081201477182086 1.9956767107326927 4.749382519061931 -0.3625980508504594 -1.3621182614550928 -0.2377943894087969
Ni 3.329398128167477 4.3279689050065935 4.28851308900122 -1.053316944710115 0.6226347965972244 1.1759588226137683
Ni 3.920661185982398 2.9203271722643884 2.28189978849919 -0.09204497895340276 -0.8587664535916177 0.10732144549649902
Ni 4.9646240096524945 5.040045336867076 2.6356901034648534 0.9257881710278055 -0.5054809383913359 -0.8223899718451128
Ni 5.116759704459511 4.2363890941890325 11.345442807245885 1.155799574057074 2.783288077656703 -0.39759385019935395
Ni 5.6155116006952 7.871405905790826 12.396228001301235 0.21218131682638294 -0.501860053809297 -0.8277234682428841
Ni 2.124031313275671 6.272131972154408 0.10422086290316084 -2.183988356240994 0.6251706756452008 0.28777817752609147
Ni 3.0499476884640075 1.6639349947695514 0.1712537036944156 -1.3506339149645772 -0.6974793525119407 1.8151810912560287
Ni 8.102634077416683 8.99763503266177 6.885202201153049 0.3263215850169284 0.38640440924143776 0.519601436953118
Ni 8.682476785600622 2.517784713933405 1.6248589528611697 0.22741124640225993 -0.3188617863047734 -2.1919158386181863
Ni 7.016516328980446 0.7114687933052944 4.63814849450098 1.4882714949461142 1.5911421037601112 0.5469659450089999
Ni 0.7936338234136098 7.447541844585849 2.186546650760799 1.188620991462469 -0.8865937602165312 0.1931006460458481
Ni 7.862128567135729 3.8256543660515017 3.5006662994465394 -3.0256672582227053 0.794957843776089 0.5638701769635063
Ni 7.469858093904346 3.839516120591719 12.49818468720709 1.0286089004404735 -0.882876202155628 0.1854061056150678
Ni 8.320769084936712 7.412132431161522 8.95504969725237 -0.10390059274040815 -1.2129397707134917 -0.8515485956869399
Ni 6.933825040480584 0.7565253730172639 0.3219408315886195 -0.13131369464603837 0.018308825611516855 -0.6027552840644781
Ni 1.7453965385743908 6.755213665768964 9.07747982388227 0.9082524761368874 -0.5088987058236333 -0.7939900805461809
Ni 0.16009829170728826 4.939359989962105 1.2538142347554917 -0.2041723304789774 -0.12415497211407006 0.5282385438028258
Ni 6.244019646736577 2.2431537883655754 6.519129811045849 1.4063831448107391 1.3756360934358696 1.1640427879024726
Ni 3.5541430134232517 4.397693620766291 0.19314948883410013 0.029088689835840224 -0.6280225432716992 0.12699681243823935
Ni 6.135693606689737 6.052360319121151 4.665358404326434 -0.20173749578523967 -0.6126054373856804 -0.4442192633673769
Ni 5.253288492328228 3.0177301859024976 9.168570449493943 0.23132060875899516 0.7403890073912732 -1.4173548133308946
P 0.2158364700091852 5.702163390492267 12.458270429613204 -0.4001071035395109 -0.4264215730643237 -1.8059446602594253
P 3.9415578035573766 6.071728798067756 12.15392218095573 1.5882447276076581 0.4382825861679677 -0.23431080173557067
P 2.5600300611035913 8.553814746883889 1.383996274084235 -0.1318518265376955 -0.3411095419593803 -0.90602615790953
P 6.567107938632537 7.960725156507243 5.724428099040459 -0.7666080889888023 -0.13168419061157968 -0.0010181568518692144
P 4.871443722283322 0.8587777401843483 12.41312794861739 0.15633412794977594 0.39172196479960925 -0.43429609071639397
P 4.010314999593785 6.140160473449599 7.9259288069823475 0.8808756267858313 0.20758624125653283 0.9164542952213894
P 4.441222966073927 1.0549220190404445 3.4092709503332315 2.436531878934507 3.3398185264256868 0.5556483032743463
P 0.041934294100268846 5.698736381378932 3.4644711153310563 1.176443989780303 -0.3434968112446342 -0.9611233559939899
Ni 0.8483701214786795 0.3500929428642313 4.988948540564849 -0.19941064742427592 -0.04365964567147965 -0.28072049934836174
Ni 1.7538962445546935 6.839442135137603 4.446278482684127 0.7256658422484858 -0.5292592717578563 0.015990976111617622
Ni 6.082895964967409 5.272801647121307 8.541889840238332 -0.5362012502933282 0.3001217866931089 -0.34933732918581123
Ni 8.589793821453704 2.3430976715573717 10.432744379080958 0.7032748761477953 0.42153364884440314 0.04166884049369597
Ni 2.3669149327830286 5.910957763674367 6.566535564814927 0.48163035702598345 -3.1442241674237077 0.39576348185883453
Ni 0.6720021266114348 0.11882136848443221 9.25696196634485 1.4065320116837776 1.0505692067616488 -0.23167542099525262
Ni 1.7271854663995714 1.2326834231540345 11.403819511297836 -1.050563550334694 -0.7691953901000044 -0.43830006966946444
Ni 4.204904013100293 6.8571377996093625 1.1413179134340614 0.12424110406997312 0.8657233445254251 0.66102753744281
Ni 5.8560261532165585 7.980102677694252 7.942233774879882 0.4244649635585851 -0.2295514326737143 0.25124768670022535
Ni 5.341043435454654 3.0755462710493666 4.435016372260225 -0.2313064676916081 -0.5245094157776966 -0.6325677394402203
Ni 1.1612497239578718 7.683137418327116 6.82264436513802 -1.8404468078013527 1.4779086636545513 0.4879555279130629
Ni 4.85555650589248 4.690192013373566 6.331666987202188 -0.013814537285589111 0.34323070206744116 0.26057307786620926
Ni 0.8225111223696685 7.507374349342938 11.166317833279283 0.7063226618351836 -0.791560902279398 0.9846697758553623
Ni 4.742248191382719 0.22037477046824266 10.128317462931966 1.2092695209507562 -1.1521846030123062 0.8474343164082503
Ni 8.533623424060467 7.385729089180156 4.577178475900993 -1.6389206566959709 0.9805421268402339 0.6012437325159581
Ni 7.408397985874432 6.192994284133545 6.683115361903065 0.6431295741164665 -0.4562432844114465 0.2959121194871355
Ni 2.463006821562474 5.422061909479668 2.2397747031263853 -0.4159805802366578 -0.22265650532609393 1.2544857124760782
Ni 2.2021291436500072 5.387837029548343 11.028258194110073 0.1233702714292456 0.2763617081590337 1.6184379633615869
Ni 0.9644996149946689 3.344869401499709 3.552478336964769 3.1058746211112314 0.4081700830533035 -0.09711185195334888
Ni 1.5383111488287555 1.1669463354127556 2.570127530963383 0.7057760453030942 0.13750722505125995 -0.4183902181194149
Ni 1.3736790777826122 3.8714442714602826 8.267623316958808 0.018948773188360912 -0.5904214450894735 -0.7862279201022588
Ni 3.8849352941439124 2.6645854869017214 7.018206323712061 -0.10505424672887713 0.241267692669378 0.0722852798279723
Ni 4.36679628530385 7.1334957930944665 5.91637677834883 -0.3009900482306752 1.3575825783682685 0.06355741303667117
Ni 0.6845780745661212 0.19012666786684984 13.671359317810518 0.6800197622745966 0.04478218931169707 -0.39101259743741046
P 0.1411077784095945 5.706973862387502 7.826420759778053 0.852270561454629 0.39878761339713903 -0.11496122142994396
P 8.830986542005403 1.877883444982261 8.146530537684745 -0.07193483846708901 -0.15435849228064383 -0.7597545564020786
P 1.9427886466063184 3.1986382896768806 10.31380817414339 -0.41743248219183593 -0.03358529215461313 -0.13141422477964462
P 3.8871596852834385 6.414836610219451 3.859154962526421 0.09051054458674734 0.1700270520558362 -0.3215298200552398
P 7.135195734290527 4.059070759855267 10.108426342489977 -1.267955721938055 -0.1752098818083563 0.14373572245947505
P 6.717751663772799 7.813788749932858 10.192133074587273 -1.7489461313871943 0.2946304245612345 0.07161370768224441
P 2.726136017335681 8.887690431582511 5.9396026770520285 0.3815414247221816 0.16653112308743576 -0.26998254410556727
P 6.776770366893477 3.904891518716815 1.3879802852064922 -0.17099764349922164 -0.24108617278619124 1.0488293412524066
Ni 5.220627919986894 2.854825182773628 13.218073614777126 1.9499387785866098 -0.8737336164244113 1.8311198739734722
Ni 1.7388499565214766 1.4641466930304108 7.229358913191676 -0.5972194418479134 -0.24599286605918927 -0.7749536327400203
Ni 7.164347917354885 0.832025367723365 9.176114390663482 -0.4638151832214335 -0.6356162964585569 -0.6378374724795918
Ni 3.179324064172703 1.632269068872721 9.109281383385168 -1.1246727707452824 0.6648111728549583 0.974524202780928
Ni 6.4703288395823435 1.9424359992305402 2.4870826908637023 -0.8426366379092908 -0.19430880742133633 -0.06862120071282375
Ni 4.994562867632051 6.454378327508668 10.11963510369549 -1.4200637276216252 1.4769576125951918 0.944064086518858
Ni 8.321166943514513 7.4124669940564925 0.1318078341534865 -0.5336805407540035 -0.5901440230583708 -0.41658453236924387
Ni 7.801437049540205 3.934188377627646 7.799555359312012 0.9137610646599424 -1.0464482426147397 0.014207658958949727
Ni 3.077743535467679 8.14324277907364 12.371029989965798 0.7888051939111319 1.6565617668165018 -0.11690471830955994
Ni 0.13139822066315912 4.846649899093971 10.15212568191722 -0.7666651674789828 0.30677965832925874 -0.4814290396484547
Ni 8.458310603730741 2.3520675740387125 5.888876612606389 1.5796047925444732 0.2811326471851159 -0.4852607546897191
Ni 3.7428545706667853 2.520253245563855 11.40044494717885 -0.7157547537823609 -0.06533610220364877 -1.6784559957864318
Ni 0.9895918321173716 3.550734088790726 12.293980155254353 0.19196036179381779 -0.41778138089082245 1.1297820669473897
Ni 3.485602831156554 8.552431284101988 8.05211779294843 -0.30413013652155363 -0.7915871275316432 -0.5747778250149457
Ni 5.719614914473102 8.337705201214485 3.5593730452732593 -0.952701707589198 -1.9259601562838249 -1.0667591862579497
Ni 3.1448007903080257 8.569493991745427 3.504623183847583 -0.9013953440057378 -1.782426779643143 0.7182759775423179
Ni 3.517594277707949 4.531175173618665 9.4394226227967 0.43167048016808884 0.1345072618826716 -1.5312806515177886
Ni 7.151046781719751 5.968339821281817 11.357142562105366 0.8391468795884773 0.3864380906928506 -0.4007275107323292
Ni 8.019789070829942 8.737073833163462 2.3737183144634324 -0.46869822234534764 1.5382827938672348 0.7350637385236178
Ni 4.731370376176012 0.2583123943096882 1.3958407047901913 0.050035981511468666 -0.13088740574189717 -0.38087396634151177
Ni 5.949649510365554 5.524763675994859 0.2104445820559356 0.1490455647081627 0.41545401830922646 0.3074368322972834
Ni 8.161924047749498 8.934059040377184 11.241818732209426 -0.5316876786936908 1.5288946677841155 1.2805376723681237
Ni 0.3893841900942421 4.787251421876301 5.3810788590699605 -0.15170948469357098 0.306154366040434 1.7657891710864622
Ni 7.147710195010461 6.2750074046030635 2.580583073543196 0.6179420191072454 -0.7705012533956215 -0.7640385284894131
P 8.709892858507303 1.5865153324255585 3.5926973180602895 -0.8578879076414063 -0.1920020136650306 0.3910971867314168
P 1.983749995639055 3.4235911464619613 1.3761087277793222 -1.0855277251147046 -0.587807147395078 0.26354578734128803
P 5.3072977942647706 1.2219141148321826 8.08046521661678 -1.3953507982559774 -1.8743951397223395 0.5181312801654948
P 8.662827997201475 1.7140651755725296 12.653104487834677 0.292094031292626 0.7385342135707216 -1.2705605065507537
P 6.494860437799963 7.72984059001676 1.2082060783788429 -1.6211214237310212 0.2683491222672023 0.09858637961634634
P 2.0619020794558187 3.449587587625121 6.133709739144973 -0.2821690588694302 0.811471525160396 -0.9325799971386585
P 6.873296283212342 4.070328349158966 5.597418981869681 1.1804037457589993 1.295888186682265 0.2192747333380546
P 2.7277455361276957 8.388305578518501 10.227693493426354 -1.4041185171462784 0.9564830290085012 -0.7746867522318787
