# total energy = -340864.00636911363 ev
CRYSTAL
PRIMVEC
9.38446266421377 0.00000000000000 0.00000000000000

0.00000000000000 9.38446266421377 0.00000000000000

0.00000000000000 0.00000000000000 13.73510970510154

PRIMCOORD
 96 1
Ni 6.475917254843954 3.8039543285328072 10.73299941579098 0.1410646033852151 0.9830777487778941 -0.15796060780960539
Ni 7.3234843682131965 8.601929691902155 9.018417767454604 -0.06109172510499801 0.6899923001062762 -0.14856811085111188
Ni 3.2886534937404663 1.202543791148429 9.516782462808777 -1.8340391045027964 0.3681179522274241 1.080879941930048
Ni 0.2529450479085568 7.159021663246236 4.91792474745358 -0.007295762330464853 0.9756094654253068 -0.26075254086686706
Ni 4.431117956090122 2.962158659588939 0.6550420502474921 0.8468015679202578 0.2964137417139024 -0.8244453117122447
Ni 8.15745339544851 4.643722953580935 12.510610867929929 0.18609593259324078 -0.46222392747491364 0.017641881451479293
Ni 3.2001955504013178 0.3375253313508518 7.283412713422388 -1.3478946616565433 0.32052966092549956 -1.470049315511133
Ni 8.723411558709419 1.154739339273867 3.114010523874895 -0.6523752610844507 0.887617316385039 0.9341658535685395
Ni 1.317043617870362 2.6215402094045857 4.420658972655848 -0.3335016477051353 0.8459554178698786 -1.394156006616928
Ni 0.36134778935705025 -0.018035998440855967 0.41137448194694304 1.4493876733967233 1.8629329047190109 1.8232646395951118
Ni 2.464350462859845 2.63130943484656 1.774301552222153 -0.06617196784138282 0.3096037580416152 0.23267120924961865
Ni 5.2703235133894335 6.902403536722897 9.477417458042735 -1.038110669283322 -1.6028233967527816 -1.8560989125163132
Ni 4.1113799349244 2.687710054353061 4.001998394039212 -0.8608696159775496 1.960915846423403 -0.5305401953528089
Ni 8.268011747928723 5.11704708769897 5.203093224180685 0.09166085614110664 -0.25546789542916 0.22708085964603472
Ni 7.380363595306192 5.801653010098097 8.797200648745637 0.7110378079226658 0.5119110102873958 -0.337769936063186
Ni 6.639741816362254 2.6923741322057624 4.55597729094404 0.4619542187532947 -1.1348661663385167 0.7243664067107719
Ni 4.580143220277018 6.433180412708745 11.658745670744716 0.0938151834799481 -0.6924770142013429 -0.15797629153888923
Ni 3.251697480493111 0.07981579184105525 4.052763643826303 -1.3371538782002714 0.6626298489329233 0.044960623871090316
Ni 3.283942493575364 5.0861909750638 6.3542739752820285 -0.02863000503186682 -0.36843985434321713 0.6165459100906672
Ni 6.348598252373954 0.634716242961447 6.710068039743248 1.3571511472578046 -0.1405886921900611 2.220695996074672
Ni 1.0513788695160295 2.470684975034036 10.76618287512126 -0.458237689133656 0.10001205631927935 -0.00274876638973075
Ni 3.0950708016971875 7.486145256383942 13.190663449133623 -0.4147243392320535 0.15257157558355017 1.0573402069368951
Ni 4.985636459587567 0.968467143502729 5.208408583729518 -1.333266113110091 0.3972668058772384 -0.9212049225324973
Ni 7.247836216159635 4.832181729109978 1.1086954125606063 0.06965889794871874 -0.7687176791326374 -0.0946973289745853
P 8.365760309123353 8.213450483068359 11.23385005525618 0.537464690386784 1.236415999458561 -1.698316996376417
P 2.6081767348326625 2.243646674248548 6.041415703560601 0.08024027300899084 -0.5092653451344326 0.8286845466045728
P 1.8624873461493727 0.9549159796812002 12.069535500679137 0.0005908395064634985 -1.0773320766777899 0.8009953082194204
P 4.9867156727727995 1.012170585273407 2.859498270732131 0.4381005520641487 -0.4529674418736521 0.3718097992567145
P 1.2960411908394887 1.0191150875088166 2.478088377484731 1.0299196488320974 -0.7583718171219391 0.42272998314534943
P 1.1961623566618362 4.782378386727117 12.670858072350747 -0.15949067130088662 0.3067086958820073 -2.0838621429413533
P 5.469696418783046 4.323984932415211 12.819485435328476 0.44212612828377407 1.4941145839904526 -0.049157692671573404
P 3.407507711053251 8.247168856760014 11.246005749506892 1.8612521745824782 1.2806235472137106 0.5283573287688772
Ni 2.0221076684765067 3.379241710062638 8.931159158420437 1.5282508635525294 -0.05929580954683982 -2.344997263958619
Ni 8.871507761110765 5.786468949804999 2.7612241796386066 0.0427949836783392 0.722393085034485 0.5994966679178644
Ni 5.616225415950185 8.679069973490082 10.78240391851843 -0.48557468638571205 0.9782487028203668 2.279853737381751
Ni 9.402574492869983 2.67408381483169 1.4285882773572542 -1.3221805447198907 0.07188907283081812 0.45041407932417915
Ni 6.236144238472723 6.914547031172383 1.8625492836017425 0.6213759844894589 -0.09202775256222216 0.7659172335693648
Ni 3.9006987522420453 0.9320488599554946 12.94039578837069 0.8196530325299238 -1.2012672194715697 -0.030739852286018027
Ni 7.894960595412512 8.356310155405707 6.231948445297788 0.07186850400552784 -0.7968026102943115 0.2678423578341129
Ni 0.9710197172973659 1.5680122979805715 7.753181074706644 0.5994766133132062 0.4989403090593407 -1.3851180647843757
Ni 9.30538899942417 7.465414978764997 9.146909827734639 0.6361078913829948 0.2132724930080327 0.24255890067697577
Ni 1.1718565988379033 2.6812723130915876 13.1588801516054 -0.35570723726789705 0.38129305615680137 1.3269275724865726
Ni 6.459663365828103 6.555910413025886 13.271109876853354 -1.7409368879294727 -0.7238915239568824 0.9005466228521974
Ni 3.0956620228334453 2.7873448925062263 11.788322574887472 1.5169454658420392 0.6130193849946475 0.24013974971252192
Ni 3.2716206943387522 0.18989553673477524 1.6025574428167413 0.2610379333177698 -0.42499306814791316 -0.6250215516618461
Ni 0.7942933967611719 8.579303752862192 6.955596546953637 0.11649591290691548 -1.161161866810252 1.317662345134563
Ni 4.1620935701678485 3.4240900562559107 9.846631303850758 0.646491548610164 0.3506941003240218 0.13321451121317704
Ni 6.507242590603139 2.474419991101189 12.708382784024405 0.14812973776211263 -1.124016368108206 0.21421094566190205
Ni 0.5889463425526106 4.071749349870164 6.592138191984771 1.2188700201549976 -0.053066283697360224 -0.09139551829486195
Ni 8.70296281496488 1.694758848239274 5.552431716901718 -0.8799446303311297 0.22047852383816866 1.030061059505968
Ni 2.2838309425891206 4.931347344139129 10.617046874277099 0.18461780538581754 -0.6877209875735962 0.9406668879118509
Ni 9.208991800826704 0.9005461578554326 9.648571284758136 -1.582987850084093 -1.3786838791232578 0.6414282751546437
Ni 6.955388211886575 6.691037288279483 11.093119717455608 1.062199077691093 -1.108962301988561 -0.7627740599546927
Ni 5.325710610948064 7.884891067171169 5.552335995384418 -0.6088567689765255 0.27536540568403545 -0.672102821420365
Ni 5.731034929933967 5.696425032306685 6.284746369658108 0.49696673027273763 -0.7347778318520829 -0.04508789347757396
Ni 5.7341505714774215 4.249049999510151 8.38275744756764 -0.8192547686502406 0.5370641125142557 -0.4548255781283135
P 0.03379251094525119 5.773415162494927 7.874557835534128 -0.8591544330586558 -1.2178724321284187 -0.10827558187965224
P 1.5884047349502262 8.98804401619092 9.017991712857999 0.9634844000269986 0.3373894127953157 -0.9952290394284472
P 4.881487694981386 8.102901515050624 0.45619279786027883 -1.0973373161551232 -0.7955818505133331 1.5937761989488486
P 0.723740069388156 7.425071174562261 1.331034912982216 -0.37650797606333225 -0.9665190730882643 0.1533400783184585
P 6.006750437604684 7.643485154328367 7.567399686323225 0.5385689791945564 -0.5460496038423176 -0.5828780855245768
P 2.959850081818789 8.086685163884695 5.740492591221597 -0.3467006628939126 0.5599770125566872 -1.929873118184986
P 8.177920908118006 1.0818220658020679 7.685837233501885 0.7552978061823056 0.3946913318405783 -0.40353386983287276
P 5.31004794306847 3.5048715092861866 6.128852617381894 0.7683651808892251 1.2035012510084113 -0.6976891545299017
Ni 8.894011702138483 0.9164640831144886 12.242034120867963 -0.36714298990866445 -1.0707035156176785 -0.43915290458806305
Ni 6.403975965470104 4.813093732425083 3.728038719298558 -0.9247347900626267 1.5593601833628241 -1.238969362008034
Ni 6.475485569569861 2.5757158791133636 2.0692767922411535 0.5547599871321219 -0.5449589418813002 -0.28349394832844077
Ni 9.440393876665523 4.199021430027763 9.522290203838457 -1.916368655940648 1.115094125917912 -0.05975140902701967
Ni 6.644246358352791 1.8761698924456252 9.133188805142218 0.12790184075101196 -0.0046719515543726 0.15318324102562003
Ni 1.1196508340600886 0.33067561218649316 5.094942924772911 0.33509290345165516 -0.06010673548390938 -1.0849813656929312
Ni 4.967749674100148 9.301222298082925 8.623863057611072 0.9147686799888504 -0.2281560949880845 -0.1889567990808036
Ni 7.757797291800695 3.470590067845713 7.506017794132189 0.44700608208389464 -0.1825105292348276 -0.6195157913522686
Ni 8.118048037493802 8.619825861852055 1.8558881921332375 -0.9407815591128442 -1.102435813723953 0.17169724066940753
Ni 3.3547482629890992 4.933074085235502 13.002052645312398 -0.48477584463350065 -0.6629250115758389 0.09087101324995964
Ni 6.424218251040075 9.2101836275617 13.456314120794236 0.6389924120196415 -0.48240554462911106 -1.748263760608189
Ni 0.6289307218423525 4.982145439544901 0.8757111163476115 0.05083302349146729 0.6151310320210116 0.49384232571114306
Ni 4.13428740783877 5.6800303763536295 4.14169831785945 -0.11344735588857882 0.30871492767875863 0.4319360751246497
Ni 7.06798299272501 -0.1126191804408846 4.169882674026484 -1.251374420540606 -0.030743966051076082 -0.3300769382943025
Ni 0.1976358413885127 6.177801035232803 11.244604649258587 -0.4271535661343418 -0.4997093260148813 0.12149362323182301
Ni 2.1000080915253365 7.605590694832984 3.069659554193077 -0.5780701226129722 -0.8424255503397491 -0.0358000404177448
Ni 2.251914385693678 4.64224020850905 2.991108787894364 -0.7012480755257536 0.5517553959778433 -0.05884535227298253
Ni 2.141984792199642 7.142749005305426 10.149243619436213 -0.29569434704937464 -0.1395923897150628 -1.6544794303661763
Ni 4.59083212304206 2.2848350800745107 7.648011280582608 -0.8489918907033571 -0.7058061272100812 0.0566552866001992
Ni 2.973373092252877 7.30702402102278 7.635758926368351 -0.15194988283915123 0.024707530049009063 1.32438680834259
Ni 8.513021294363952 7.487149393869332 13.189633035153287 -0.030621067319966618 -0.9749417499343208 1.76270179041039
Ni 3.739520609143184 6.158525349298301 1.2589641180261384 0.3003992087242117 0.8626367351803015 1.1558224568752093
Ni 4.541385390233448 7.834355736714844 3.196379827956835 0.8864886020972347 0.24413267292199892 -0.8173912330789407
Ni 1.1095062301189027 8.202010823304892 12.329018703597706 0.7897531596466979 0.8842998219760319 -1.966717797817161
P 5.141972220046601 1.397477845788868 10.732546146253181 -0.3491745783557018 1.2177757586495543 0.3655198524829447
P 1.488957586046667 5.457599846645961 4.8827489667387365 0.7828518045411744 -1.2793194836903066 0.15649250790451114
P 4.3947531639790265 4.461673765925925 2.3015375463969185 0.6861875816482053 -1.0051853793102106 0.7716014284383357
P 7.536361515115937 7.124458687931353 4.040773116115246 -0.4863015372494076 0.07081126638560707 -0.007820010265051048
P 7.6772316814074655 1.3290088075327229 0.371418256044642 1.7135620954609458 0.6159679261000102 2.699973793708079
P 3.5683855513527427 5.581596749397941 8.748633240071428 0.17784989053436467 -1.8875638158938137 0.7527876381659422
P 8.226532423765873 2.4376704360284003 11.03650419375831 -0.9252161005744195 2.4513159792222172 -1.4775487092119715
P 8.268987732026673 3.672318473321877 3.238628678043069 -0.0007240226502181079 -0.5225479211759517 -0.40960141618319135
