# total energy = -340861.37088753755 ev
CRYSTAL
PRIMVEC
9.32590877924728 0.00000000000000 0.00000000000000

0.00000000000000 9.32590877924728 0.00000000000000

0.00000000000000 0.00000000000000 13.64941017573438

PRIMCOORD
 96 1
Ni 1.5770950593429922 5.709199942605115 10.281035400174996 1.102519888797327 -0.7722632303920506 -0.24764942782600577
Ni 5.808380979428185 1.2189055659437902 5.656642852701955 -0.4424220622576381 0.11315245035597932 0.3429514802641255
Ni 0.19217246817933697 7.880681779749557 4.936513918098515 -0.8984987391842332 0.7933383058947949 -0.11750661355961699
Ni 5.616155353570439 0.976888914641908 12.24399831673357 1.2541722950007175 -1.9748941629803665 1.6898346699370188
Ni 8.079034527487206 1.9850382745523572 3.5805128343533563 -0.826967563913466 0.6279322975507379 -0.7569947342687543
Ni 3.888288331621091 6.1632224716784 4.5554088023503105 0.6664877892264328 -1.15183236187921 0.3060327528609052
Ni 2.069876064113192 7.54848359332035 6.597032959274802 -0.6103629212084069 -0.7013802302282437 0.6677270609501726
Ni 1.5432699892388755 6.440183302103558 0.8693005713123961 -0.6077859045098502 -2.3508874041908094 0.5336553439430228
Ni 4.902546161594456 1.724994642133503 1.1798318745398122 -0.7496604053908702 -0.8241630045851355 -0.7171765738305519
Ni 6.859233674328088 2.915829223513359 7.609122515523545 -0.2104172829474247 -0.9774385482142456 1.0759133419533922
Ni 8.51208308835973 7.630523610333285 0.7165272687434425 1.146260267108071 -0.49644196811751923 0.1394553499165663
Ni 4.142745744852637 6.667325129359104 7.739788752009839 -1.090598968990025 -2.1884008834863926 -0.4082567292298388
Ni 7.339023688567537 6.772400140349751 4.422436268693698 -0.4362640130760422 -0.9832749523903647 0.1236888311109289
Ni 3.7825418552189465 0.7163267617108431 4.32174443469476 -0.2907652851788734 -1.7330045204562734 -1.6162234722087712
Ni 0.7800945262134394 7.751051651696836 9.787691110531819 0.460463236030065 -0.017723642532008185 -0.6867755929411914
Ni 5.840014461036447 5.896585421954994 2.294083960556838 -1.1611047883200711 0.18019756483093483 0.6022516049551822
Ni 8.507364178662272 4.511268344862085 11.01617904745217 0.32291795865201806 0.6529362757942432 0.7153336070845423
Ni 2.2207972412554353 4.114889256184042 4.017444703522367 0.3117305745766309 0.22421485095214935 1.4153218420612659
Ni 1.0978459477961375 1.3323365909441673 4.450772109058833 0.1792989642760654 -0.2915823817635301 0.2753623203602419
Ni 4.788704796620387 2.846285923881046 3.926348296771879 1.8932891484133654 1.4439189369726682 -1.5982622597446603
Ni 3.0121472064290784 8.454980550657083 9.196931178543297 -0.2772492529703096 -0.5177373871611858 0.21151360133539704
Ni 2.846201990704609 4.851188383523496 6.4175157489204695 1.4602554693491625 -1.3693253207264935 -1.823545404060324
Ni 3.456480116578135 7.074522271889029 2.336519641972543 -0.25709591795088627 0.5067225241079208 -1.0128423816348362
Ni 6.4143878392119165 8.53087479397313 0.7706501786825768 -1.201241508439957 2.573944230279116 0.15800097412923755
P 9.317496523540822 5.180523516045352 13.35219415777524 1.2034135763906113 0.34949545203023036 -1.1454609111352274
P 6.648458816477762 4.059222908389316 4.202666572101871 0.6188974410419793 -0.6996619619855563 -1.1024566396595594
P 8.115097815629644 2.924735466124175 9.362103276453697 -0.4586927743932036 -0.47500051041429164 2.1142386983506816
P 1.86719609483479 7.277360781611811 11.918336659567109 0.4387554120393282 0.1483991893734154 -0.46879283894168294
P 8.028040459847475 9.386433639121089 12.791954193920915 -1.888961981792921 -1.6238012845560292 -0.3064945229886722
P 7.406310118344543 5.960467895132053 9.815290204126008 -0.09327859425018774 0.8375700220196608 2.232913621186787
P 2.727026206072543 8.219809116189065 4.6133506718173285 -1.1628698506402941 -0.6816004764981551 -0.9442690034408124
P 4.565013555507252 1.7868627190760749 7.583953753682632 0.09499223450718479 0.5081728834012023 -0.5044031319461247
Ni 3.4777804915761505 2.327010013082229 5.64568211245013 -3.365484306622907 0.9478397515112063 2.723834916596393
Ni 2.4626740039299224 0.5750812146300888 7.448797092256959 0.5413683963165644 1.3252170175533693 -0.8729365744444127
Ni 5.114533387548873 3.7119260761099393 6.219831668821768 0.727755892008295 1.7058400442263393 0.006824736231317278
Ni 2.364313647054235 1.354028654098889 0.0878211476877459 3.689284410769562 1.315510846009199 1.6670441544050645
Ni 9.490231000648194 9.10801796697102 6.990654376811466 -0.8401462673872693 -0.8676290461885704 -1.7978292302411423
Ni 1.558769649154244 8.49526847534685 0.328330732177159 0.6691193133120088 1.303716167367116 -2.048974844145865
Ni 2.7699347110488426 5.528053496037053 12.59683567124864 0.01372532000589249 -0.6931267319701999 0.03551901884221625
Ni 2.9475466382980566 3.8817974993099615 0.6625927421558669 -0.40722520264153095 0.18905090145650666 1.070239945717699
Ni 2.779008820012533 2.206286127640325 2.9272665176891755 -0.3016356522344741 -0.4510401429439522 -2.718762901390124
Ni 6.754373159232779 5.6824345852302 7.886287583344701 0.09272015064355645 1.862531298405218 -0.03580081174869318
Ni 4.051529033882589 6.884199131363853 10.684266233822848 0.053629612399997965 -0.42733560023816086 0.13574730493735976
Ni 3.6083059068441994 8.651841153035852 12.432183026441301 0.25450964528094877 0.1247398980832626 0.11862864297920214
Ni 1.0226884512510384 4.270995638448394 1.9054034093397678 -0.8032177697920361 0.5915388465233683 -0.23297897029802458
Ni 5.022262848919116 5.181241610999313 13.489684161505863 1.0455139037259285 0.07841556109542624 0.6212111767768205
Ni 5.348324587559928 2.4687731480843453 10.706774313970707 -0.371002987084703 1.567052152690443 -1.9296905698605347
Ni 9.674137916130183 1.194135952986378 13.191458394534964 -2.463466498541822 1.796316393141042 1.653303150669888
Ni 9.066293852373333 4.7322084429697835 8.61988872535713 0.014706452972239189 1.005875720509016 -0.996272393091297
Ni 1.1966912519134605 9.292195333799308 11.757410647793572 1.3846904903286539 -2.8443666901355793 -2.2312254348510865
Ni 1.669626723410553 6.359262394109785 3.9248878595018755 1.0304662653641865 0.4178821681347449 0.16533376034522493
Ni 5.072613428872832 4.432725543534025 8.639871349485086 -1.3223697779125612 -0.9606453879163069 0.7172611631245583
Ni 7.7399911242241375 5.292201270249045 1.0378085466907416 -0.36115231954286836 0.05684991910950855 0.6753400974107401
Ni 4.274921845923948 2.981390360219159 12.78773608550953 0.33177283793948664 -0.636178082499298 -1.3949965002403524
Ni 8.678382688606934 0.02016261416186926 10.559797996121002 -0.880113037588194 1.577011577896 -0.18773141131413473
Ni 6.565598119517443 7.043149915718571 12.7596595054005 -0.42096363527354597 -2.3755095736148637 1.025780429852743
P 1.206268959935773 3.1179682900991663 5.953203945006854 0.9649599561312607 0.2476453140609477 -0.1697372887295593
P 7.771354154486101 0.4094987767459976 5.464158899178952 0.8531920448276338 -1.696347274244556 -1.1457360191734849
P 3.893464210834707 4.464004640619553 2.495589797955971 0.18987982511570525 0.3771990885930859 0.501100292825137
P 0.8046673625016492 0.38998338063354265 8.80752693682717 0.8940790128499828 -0.5226677345832675 2.546666111289453
P 4.710786831161359 7.2507726164982635 0.5358331287372918 -0.34407042435991714 -0.7346557044519219 -0.6557056110092643
P 9.25149706913585 6.280355882350499 2.9635051329112807 -1.6781829446307035 0.8237935370608588 -1.7769091922590237
P 5.4743549149343504 6.033014137299112 6.041474601483963 -0.3089964634749195 -0.008328831580669526 0.1408062075175059
P 3.865840869878436 4.4419208893081255 11.05720931445798 -2.423038729544079 -0.3333124145124647 -0.845538384937118
Ni 0.5183787584017902 5.424731755843089 6.0644331230120345 -0.5272049603319888 0.22317175439961565 0.6849529379101558
Ni 1.224668977392465 3.4028841204688556 10.038021809255214 -0.22420636631171711 -1.6308131970974884 -0.2629354074507988
Ni 7.443175434617378 4.633987974721491 6.107496438069319 0.8445454248962294 0.16865973939466436 -1.8882397589149156
Ni 7.173339598280871 0.2220013864942023 7.537777450370386 -0.288816903203251 1.5560804841702878 -2.968937666741145
Ni 8.52086809416014 2.2975214904273584 5.720494550380988 -0.12103082466279155 2.1630197244091263 1.2148282459854562
Ni 5.2251852918183355 8.435731875527528 8.278776835590312 1.5750768227671326 1.6319226281115828 1.2919317731376783
Ni 6.724865984760923 8.07316853104511 10.905728582806155 -1.0741099701960661 0.632159191147892 -1.5202593607066206
Ni 1.205644124066742 3.36452665883714 12.387603318663054 0.5870550997204018 0.8225840901337899 0.3930957052186843
Ni 8.909758478318302 4.446900924443388 3.9732343017204443 -0.5498064997815887 -0.9672690638804115 0.22818643400538766
Ni 8.705353215968696 3.104380441424863 0.20848348213359663 -1.406862655550319 0.44157488376599435 1.2222191391328885
Ni 6.494096379101601 3.195802322381757 1.8163409832316033 0.7696075379367584 0.821408838878766 0.768273135396051
Ni 7.876093432771001 7.985906005276093 8.845923567274555 0.3739006203474722 -2.280355102498202 -0.1555550836919063
Ni 5.789197585658082 4.8511604057980175 10.99757479259948 3.1210107054217215 1.2331067325796696 0.5226618210459966
Ni 2.874869833412096 3.288343312357811 8.415693295948616 0.03202437542539646 1.6180461272398068 -2.0761182373298763
Ni 3.3752980831465567 1.52731335980735 9.579701901548352 -0.21892429197717134 -0.8619528217393994 1.1952958323794833
Ni 4.139351114161184 8.571321259107277 6.197186497819062 1.0509461304850933 0.3906361879345982 0.11502755589150511
Ni 7.993338754345015 2.1780099730895444 11.479385731209362 -0.8091068815829613 0.019606461377017846 0.4572043627731352
Ni 1.2149607066512504 8.622380608106461 2.4410472221346518 0.30823156028443693 -0.0781561367864525 2.387052798367773
Ni 5.9681244660048085 0.7448976149700025 3.1108367678745683 0.9637389392399661 -0.05504526180060198 -0.473025646076108
Ni -0.026922965228446054 2.072925636190403 7.876542008969515 1.2638733243385654 1.0277712350305268 -0.16306861846013207
Ni 4.954519449625953 8.106005054848966 3.8703042496831865 1.7097087831531264 -0.39116892050961666 0.04452482188525235
Ni 8.896646250977142 7.233351819433336 11.864408661115476 -0.00934004645400327 -0.8725563082868586 0.7309761987178056
Ni 6.677527673250447 0.8306745235160825 9.543789693123502 -0.04082269044331679 1.302602365477647 1.3092273269933323
Ni 8.3540835466713 0.6873800743394156 1.7069956387420102 0.4129086261795534 -0.51243937198704 -0.5393994455156517
P 7.310467756761967 7.982520700493134 2.6103133938734784 -0.5659941652850445 0.5538960964699299 0.6203552565344284
P 3.4063999879707167 0.2707208650524915 1.7632038218201795 -0.8865343677335055 -0.8020813421947478 0.7215050260025767
P 0.6285335917485761 2.270010060373004 2.417228851843526 -1.2075232276836108 -1.0667383603223435 0.0203533668453714
P 4.791717065063626 9.370672853767914 10.252699559809862 0.20206479721767134 -1.4392611264856827 1.5166564738467105
P 6.5400731079720975 2.9346209291267566 13.252676455655573 -0.8092704037440192 0.03725374214513584 0.03257639127412454
P 1.8396566870549564 5.691816449174159 7.909273150007401 -0.8472689944749795 0.7088179174532115 2.7849122435236877
P 2.406979678409717 1.5916248247750886 11.63620368029173 0.9377985652251204 2.2651578259324734 -0.9808948821939623
P 8.417667590776585 7.053231222799505 6.878892689431336 0.48480746920238443 -0.5521032662355653 -1.1442823174460939
