# total energy = -381162.31775852386 ev
CRYSTAL
PRIMVEC
9.31799695555581 0.00000000000000 0.00000000000000

0.00000000000000 9.31799695555581 0.00000000000000

0.00000000000000 0.00000000000000 13.63783042202737

PRIMCOORD
 96 1
Ni 9.229009895457873 2.2931869577483655 12.626066385115239 0.09338812324485851 1.8237058408975881 -0.06635065951109217
Ni 1.502154258414623 7.412587560164953 7.625920300690511 -0.009020201220739304 1.4369977843728026 0.17007590301590061
Ni 4.505093029719479 0.8123317763381722 13.121283436563543 -1.5507379889114519 -0.07774835982507255 1.9542178655779374
Ni 8.591919820671414 3.045009526696842 3.710266973902885 0.06608352189263458 0.798646862591902 0.5493771255536538
Ni 2.1642817905074505 8.093798349631598 1.057505975407583 0.7912533983413083 -0.38377031405270035 -0.4101516322597065
Ni 5.328216909910364 7.311086621408608 2.4127909006188974 0.06634474597382123 0.6637516212421924 0.6933468184008059
Ni 0.7901912842259026 3.7088142982072902 5.6960168782010525 -1.2429818256015368 0.5399519755850121 -0.3199269943444942
Ni 8.221054231445185 0.29810787508951997 12.308182925492295 -0.8272555274675302 0.14343978848561104 -0.98740080163328
Ni 3.327065288760055 9.019327014264992 8.088392047908801 0.7902115873403551 0.4904443557731876 -0.29587535271192916
Ni 3.425873326451443 6.052402300455157 2.5321358031793744 -2.4386437830711873 -0.6646270818686102 -2.852960345341861
Ni 6.706646807285167 5.767355461430521 3.5164731407929306 1.1206821615286504 -0.5274476724704141 -0.12592646219219603
Ni 1.5858112333668375 1.5013063207090482 5.1947310154599915 -0.4618829991957271 -0.47631614390192156 -0.856515452773912
Ni 6.823606302673917 1.7620425061749496 13.484390861683599 -0.38543947422500713 1.5411354328246814 0.174533424566622
Ni 5.6635622954700935 0.06767754230067148 5.9086442463715345 0.14189044172062015 -0.1065583420782294 2.5516782197920636
Ni 5.025978366855115 4.401122821820525 10.149791040739721 0.13848141603907116 -1.9318901486150148 0.6325631114545299
Ni 1.801019686641102 7.641577330654001 10.22677726180819 -0.6956312435596084 -0.8646223981517625 -1.2138208877668644
Ni 1.260296334393719 5.51612363266447 8.650953057373606 -0.31208461548194 -2.433457353774241 1.9486920506637018
Ni 4.845321045583837 0.7891728271795363 3.861892212654825 -1.0599768732287937 -0.48513811306892574 -1.20962124786322
Ni 1.8428574921139735 6.205795163193334 12.313528660236122 -0.6470119398900084 1.3604573288129023 0.7824244871957686
Ni 6.368431478721955 8.936359571073353 0.9110112256742093 0.02848293793104127 1.3881223988283384 0.903052934213819
Ni 2.499142640235422 -0.02487159696396199 3.049295805208539 -0.5690013275424846 1.5667433632007726 0.2759762997951569
Ni 8.306900935637072 4.840801817153025 9.435482726765361 1.3140216630581822 0.4185095173060986 1.808321388021718
Ni 3.415875115923071 7.471039353869034 4.136994885532324 0.4615243303047278 0.45512871119102905 0.7177465874014091
Ni 1.7954009345920723 4.203870148311567 2.508951695429474 0.005840003720544781 -1.4497327154409676 1.9728781609916022
P 6.673689052728921 1.2889212204544456 10.111182852945447 0.3133495982372926 0.4889050363105257 0.43030650994102665
Ni 0.9567719077849606 7.244928844380236 3.412403230328596 0.7077848482030068 0.7569327706825674 -0.4225258375543433
P 8.73204385601686 9.124899917607449 6.113034505402146 0.6735313263367755 0.26767986411431965 -1.1818170811667583
Ni 3.9749362858031065 8.140900823276446 10.42539874904186 1.6888843902086075 -5.609865819239976 -0.564471557992931
P 0.01910562056605262 7.960150322037522 12.982736938070337 1.587316045145802 -1.6515265183854395 -0.01953447048850184
P 4.2010095233048474 9.02420964456962 1.5206048238081273 -0.43732485024038875 0.5079797935537896 0.21382168064328336
P 8.66010892099446 7.073272707983523 8.779912268995755 0.8083838873740078 0.4066600741666803 -0.06652318053321446
Ni 7.151804784715229 1.4653947611784361 4.984927000309171 0.9978978445098621 -1.597875565829203 -0.20720597509897865
Ni 3.6273563704915115 0.7373144479860574 10.656832630082253 0.09297366141525924 2.9837608477969066 0.25027658103620765
Ni 9.044867643396648 8.019161195547477 1.5140039549001134 -0.6331853184195612 -0.38415237998246743 -0.36362469234276085
Ni 5.851748558127135 9.137199673336669 11.722451785272737 0.8104153159817399 -0.010478016713188407 -1.6918290746592282
Ni 5.787817782325493 6.478626108459634 10.03039209379801 0.5913881798781169 1.4383805236529421 0.06615808388431187
Ni 3.2914053151420863 2.7232404624230764 3.9667671980396175 0.16994297698246216 0.16127321712260612 -0.32959357089998076
Ni 0.1529400080954195 2.1287709048377144 9.902360022853935 1.3306261043840826 1.6470612835252345 -0.6691684213823895
Ni 3.1065176233396983 2.6130831046724547 9.750666762725613 -1.088411217310087 1.5144309269503016 -1.2913964694594986
Ni 8.668196942186098 5.339901677853121 12.681886776533009 -0.016717569864997017 0.12129487695745561 1.7409366308191567
Ni 1.054918367706065 0.5846493207951923 13.537332923900797 -1.069028699018417 -1.9028168853981424 0.35642020417452164
Ni 9.103021261204264 1.7322528705186535 6.97797289607399 1.414148647688771 1.6548445270150791 -0.5176165453126054
Ni 6.455452250506175 5.241913623877015 5.7547826883961 0.6202089607645512 -1.0170592479296612 0.4081420580288455
Ni 0.9962802140666925 0.28005239275883315 11.201404314993397 0.8515272555307012 1.2504421385343238 0.4300797386422013
Ni 4.880207625470347 2.9968913914046573 5.8547340442905 1.118490038973338 -0.01712174728195116 -0.5354093505196521
Ni 1.4112571999763461 6.2838986120738705 5.479775990885275 0.7655282256610622 -2.193978891794802 0.06060064440119242
Ni 2.005903799500234 8.402196088548221 5.5390319277101385 -0.8204115079625032 2.718780127781305 0.5863503603438934
Ni 1.525318798371318 3.9844592784964865 13.46404315214883 1.5741293712521987 0.8418959030885242 -0.8715633482459699
Ni 0.5968847823467353 4.343919639682895 11.153889985891556 -0.26878955223873063 -0.8682936763557628 -0.8753881213086989
Ni 5.6384409761928405 9.109907260813273 9.01830203462089 -0.7904643267811097 -0.5928783912703983 0.49138897907464407
Ni 8.11638517378889 7.21745007192155 4.813799194329009 1.5724913214281435 -0.8398906997330374 -1.4085575267542387
Ni 7.060889090283423 5.81305091756392 7.927452539591007 -2.697431229791883 0.6053690675382413 1.5477141144834636
Ni 9.009421983704264 5.809034860958395 6.968685648698755 0.6747022067164251 -0.370805012141284 -1.4970721239568798
Ni 7.728914914328216 3.0330265828576186 10.944877068666047 -1.9107060583382318 0.7911076167920633 0.742078222168238
Ni 8.851258306622633 9.314372063818 9.681618543100875 -5.208254877461431 -3.0657553844928427 0.8670598039486616
Ni 3.5169194728379534 5.8576282140855715 9.121485803592915 -0.23413699516186776 0.7719017332875737 -0.19077739722931014
P 4.356769157221223 6.043755199457647 11.854247395110018 -1.3876670564584745 0.5714510746345578 -0.9643950847667262
Ni 6.830361850328223 8.785613019416312 3.574734847363015 -0.8654783183941546 -1.3021210549658542 -0.2813977279210444
P 3.7009219549477077 0.7937936217750813 5.617858453139606 -1.8807763606583352 0.28322886759251226 0.8366811916568043
Ni 7.349057458224188 7.6353715448088035 6.773937652720109 -0.8553294028856109 2.242809797254576 1.7196918625077675
P 3.8718885595838444 6.0282127808543615 6.4392920487174 -0.5155614625557895 -0.5110903141583133 -0.713677559538358
P 7.430878787813783 3.157645471586836 5.980283800896497 0.9804436535891565 2.0062816761527125 -0.25369923356451146
P 5.506861543880497 3.3757704578484073 3.449130114576107 -0.7631437845892857 -0.4536143314290316 0.4751270086898269
Ni 6.269110951208515 5.254045655664472 12.270719919500383 1.7180738672883702 0.36002206259316705 -0.8642544732893827
Ni 4.8591023627986205 7.367162325937725 13.636834220551467 -1.0401241001689248 -0.610343123714065 -0.7533905618572637
Ni 7.192226254679888 3.5330116532503473 7.973984751833863 0.0012752671679978037 -1.8250127326344696 0.7648021461283151
Ni 1.2095691600074576 0.3488164134822523 8.620936062596254 2.601088137683759 1.0258333945778657 -2.04801685110797
Ni 2.277802945090078 1.9672154769337835 0.953018618688196 0.9541870338854728 1.215061959262817 2.441304360622486
Ni 8.81407949953204 6.978955944732651 10.93939435936978 -0.08917948448014963 0.021288477065131078 0.27716183546282586
Ni 8.421689337779679 0.8660453686874751 1.4514336066260969 0.6652181784853898 1.7270686145878127 -0.8283521029658185
Ni 5.4580631948245 7.314431782247084 5.14903090032821 0.33431437341441783 -0.899506097402825 -0.5799619403190464
Ni 5.321964534081345 2.3952097043235265 11.604730077748645 0.07373126824587947 -0.2072892788414043 -1.0570707553255922
Ni 1.0497375615049698 6.047342628212002 1.3479479345589 -0.31593098581122364 -0.38071635771772494 -1.0832175889242894
Ni 2.441305834317802 1.9918615783760432 12.211067967813026 0.1783913648601315 0.8953725348504258 -0.5353928954594199
Ni 5.34185845717368 4.85828237908334 1.842825810924974 1.1225181862961249 0.2553928192168505 -0.7739886977235897
Ni 4.362415863260545 5.228001854707528 4.372724363081177 0.5779212557399337 -1.2371209959453857 1.105257085222832
Ni 4.723665279825749 2.460044325811331 1.3276999275895123 0.2906261884978479 -1.2828318677189392 1.2454377433411972
Ni 7.198674308440963 7.617210769114678 12.903133291710708 0.14973230636254212 -0.7395683112621908 -2.4376827047094984
Ni 7.407490615934739 0.8277400157880478 8.033581727340309 -1.1648876524012712 0.033780438884554724 -0.43698135085804096
Ni 5.125252304384731 2.1953759457107855 8.49250890858936 0.4349090417100445 -0.28259637621483585 0.2675451383086682
Ni 6.592184535029319 1.5745178212881914 2.751200043514813 0.9578320868372278 1.785615204673454 -1.7174938264151842
Ni 4.944129083275224 7.377468030359329 7.619278432596734 0.7182332972298404 -0.5888561574848826 0.07471908608044552
Ni 7.2433354669334955 6.464388209403387 1.0598587695906343 -0.02512790541587931 -0.6809227337048401 2.1127256041402647
Ni 4.645906596825501 4.029940420704301 13.244678872317573 -0.34523230587850223 -0.2229393266738354 -1.7620579861788042
Ni 5.16894439121375 4.624493840260543 7.7883600064874 -1.9577341062613125 -0.10935518809707619 -0.2720080591760283
Ni 2.6220749715502545 4.217260109662239 6.928467311063563 0.7414207910898972 4.371852907607941 -0.2921534237756517
Ni 8.967286002334927 0.043138597821204265 3.536180703949974 1.7712404240090207 0.7042274698690516 1.604305637725263
Ni 2.996844801420834 2.2217179225641948 7.174480129841784 0.08477647031644756 -3.867125302442863 0.9414919549163075
P 0.8228350222911835 1.8920844690211407 2.699063056218074 0.5834570979564984 -0.5187102925974163 -0.18803865814190843
Ni 2.7992846340186452 4.401420997716992 11.249736764211166 2.0299245123826326 0.025625670987904255 0.03857194673592713
P 1.211609801298896 3.2292915487095333 8.293696402422015 -0.12964144914993803 -0.3477003078030205 0.2021175048324777
Ni 9.22980192518286 3.7770686245076877 1.3871450197486956 -2.908170414855101 -0.7808972519179648 -0.46495058237745734
P 0.2350790813746872 5.266708813267508 3.7904306318680656 -0.7428742357069722 -0.44294193931685 0.5701693797086568
P 3.3931019318304876 4.196201436974334 1.1931489861089508 -1.4885550876248044 0.004905664831733487 0.26853732701860844
P 7.148618029821749 4.442494727455169 0.49695578964457077 0.2612829594490403 -1.373841720539608 -0.21336299583930995
Ni 2.6287839292207376 8.63572372346161 12.305304596291721 1.2374215579049397 -0.8966460022462106 1.2923045830960647
