# total energy = -340854.5324617343 ev
CRYSTAL
PRIMVEC
9.38028801327368 0.00000000000000 0.00000000000000
0.00000000000000 9.38028801327368 0.00000000000000
0.00000000000000 0.00000000000000 13.72899968146760
PRIMCOORD
 96 1
Ni 6.302953064045135 8.31958361729248 3.9180505356617292 1.1873603795824907 0.11563073669314279 0.4129608195737275
Ni 3.467507808335706 5.919543180455358 1.0814730792146843 -0.3339832153272442 0.5475048482316054 0.7414454736802457
Ni 3.4892888366102928 5.1734069478776386 12.47237022700872 1.5084410279154539 1.4725481706735866 -0.7156634796201352
Ni 6.060744652728121 6.627904994057297 6.246914286691471 1.208643457330983 0.7703277039322346 0.7424078375935149
Ni 6.489161157188471 2.9665722988836114 9.457344989516344 0.1292498701384742 -0.06027822806476716 2.43505863682309
Ni 6.81650506058996 8.332031259204786 0.17290027883965012 2.0520815080956467 0.4437261257810423 1.1993628033600054
Ni 1.9140008244134705 4.450796477105546 6.231002504494149 -0.304470807690424 1.045049305384684 0.7313274114096373
Ni 1.5843493702128646 9.03940814258759 1.831777911691295 0.6460452051013648 -0.8750163397915769 -0.14554089398901385
Ni 4.650690410150958 3.504466142272774 8.278929449961705 -1.0018560578266618 -1.732881364614848 0.2932885658213594
Ni 9.21354380533067 3.3477309134010804 6.486924896576643 -0.3881890119456863 -2.2080700797805455 0.4464440389328376
Ni 3.7686619481960038 0.5690401510045535 11.608253424610322 0.6308394438952039 0.1375725310715566 -0.5482887775854814
Ni 6.278151583098534 0.7672531364759748 10.227129865669884 -0.03667447260289813 -1.4678368812408462 0.44799672813193814
Ni 3.503021577951376 4.392863819644801 3.1042918083245374 0.21546101601891923 0.5152413602122095 -0.4927467786541191
Ni 7.569676509018644 1.435765611440489 8.034484778032864 0.13884239892291572 0.3827130764327796 -1.0356233840850937
Ni 5.223985459702175 3.045216631809596 1.9204263215573516 1.3155640678446374 0.09875555820435895 -0.3146747448066194
Ni 8.368623761917604 7.013594287582787 2.7796559940112795 -0.5395349426522515 0.6615690117685767 1.3536233366102044
Ni 1.6294310333858468 4.519319479493943 1.6437040793042843 -1.2463504849634537 -0.1377864468545756 0.09474926525844327
Ni 7.662297470768545 5.874142587497132 7.667906882873714 -0.033172372986910614 -0.18639983698690477 1.6771498753804988
Ni 8.634479878781661 9.174277920594486 9.258013873739008 -0.006291489435666584 -1.072231779336747 1.743318757898088
Ni 4.520191846259462 4.667471745027459 6.12329803995978 -0.21755980752947693 0.24389664565179284 0.6745875355154318
Ni 5.684172998945481 2.404608636996348 6.575943827810851 -0.14225296726636147 0.4419728905353614 0.707899005183368
Ni 3.0558351176006524 5.973001440634889 4.783663493964433 0.4563988361527043 -0.5796865751704726 -0.20796419342124184
Ni 0.6574653100209394 4.0002331131463595 8.610141784052445 -0.08308468443632143 0.6317215893898411 0.6994177071852341
Ni 7.490863330912236 1.6911345665427084 0.21615090983382118 -0.07258841289068789 0.02673638755357976 -0.3449535982958188
P 4.7009499921902504 4.431857676034749 0.2995022711784913 1.2320708351159877 -0.9314379131144153 0.18196854068842855
P 1.9970069911670532 1.0518679528850445 12.630157924171717 -1.6870085133421333 0.5456526255142151 -0.917061332677769
P 1.1450517319030231 6.80432944702389 1.9353081481540926 0.11631644990625775 -0.4467001208077016 0.033733130586387064
P 7.107012573795798 4.494105265884085 2.9004300135391814 0.9883973612185943 -0.23158286128144634 -0.5122611945379629
P 0.0325073873753578 3.5214163223296984 0.3907396404777029 -1.2558555962404114 0.7000134317877041 0.2467336008799557
P 8.362217025349326 7.156850042884032 12.462512482558347 0.13111546259230322 -0.0650792489978363 -0.23150392841439485
P 9.035881154374307 1.498819906040736 5.423215268371255 -0.9166576694814471 -0.7528994811534582 -0.9840763652457374
P 5.314139405760337 6.071672688016619 10.531968582578529 -2.4843178880695342 -0.9205976279658016 0.8469010696125995
Ni 3.1056350655376814 2.6831375226799437 13.67253208777308 1.7863024605484652 0.8357874761979412 -1.3627211851464143
Ni 8.478954707036335 1.6276581589914039 10.807125254797562 0.3575509753448552 1.6153549535608889 -1.6772540050585307
Ni 6.978962265020438 4.437082496340065 5.66134513055227 -2.5496439629708543 2.6636531049001744 3.079614916083754
Ni 3.252943105169082 7.650112476914674 2.761972275448294 -0.1244316228142244 -0.431618800994547 0.6758121519511522
Ni 5.037120746412749 5.69874996618868 8.364722500221049 3.104783702039898 2.8117591885132027 0.9477261087514774
Ni 6.927305020098754 7.434609744967922 10.486127116093643 3.9243266913545187 1.5087328481242597 -1.1312244558208713
Ni 9.394827247378329 4.341919476596015 3.8904143317415794 -1.0956285609941325 0.8901722215964089 -0.8741943581109138
Ni 4.533192925152044 7.654033437215611 5.103398107901518 -2.035674527492533 1.4251046324796424 0.0464210104667007
Ni 3.051876636148509 2.1620625353184875 2.072570837579095 -1.06422022188618 0.5986096373272206 2.3057097792129064
Ni 0.579741183328261 8.526522146476658 11.369698635391908 2.3449098464511358 -1.05972541933962 -0.057704553800319976
Ni 1.1802184308700454 1.7337867351751572 0.8491102179739 -1.823695042264311 -0.3185655952205933 -0.2850695203456768
Ni 8.69200918386695 2.6448378075872916 2.5147547904453926 0.24792170765078592 -1.0988619803297657 -2.289800821292134
Ni 5.209455393897982 8.111791481918385 11.452882089584936 0.30214550199135704 0.518675582704739 3.9482405218576386
Ni 3.9928133054955417 8.136940033513634 9.83549628376472 -1.653640993625281 -0.02841171837347365 -3.7268533701622717
Ni 2.0553711418666567 6.797237949446117 9.463920571265046 0.38035897437830624 -0.19544600634957307 0.011814733246740943
Ni 8.373379567832858 5.626259102060339 0.975076226799814 1.6758365558857136 -0.42374942554879924 -0.0012834946981139185
Ni 3.204615862416855 2.655662659709976 5.665491217760439 -0.4587619370682422 -1.7692352206535338 0.11982986237615491
Ni 3.3661068972038 0.12086782240591483 0.2526533617837468 0.5410583212753134 -0.33540297849290623 0.4178433444770094
Ni 7.088852336612507 5.258448637084101 9.993654502295868 1.2649830124629764 -2.1806209824306575 -0.5578327125201747
Ni 5.010865320856949 3.21530001022252 4.377999815594883 0.994944675418809 0.3870829233657011 -0.6936867182387279
Ni 4.919820247457664 7.425792274434712 13.632319731997745 -2.826905300126022 -1.3862748040966382 0.2729621955591815
Ni 5.65411855683016 9.279984383827182 6.6900456486256985 -0.3695672830794409 -0.7249870710139062 0.5927673196138307
Ni 1.6204447176722143 4.071007384607064 12.666224192738882 -2.674088955521517 -0.06094980021049503 -1.0948063222031532
Ni 3.153999829441114 4.7833933416757555 10.120208655166923 -0.26296446091652126 -0.1726323508891672 0.1439792059288488
P 7.425689091268898 3.6499825469341287 7.758779358977455 0.2933075919847529 0.8568070158724017 -0.9119795472794875
P 6.594229760850678 2.731596089461389 11.85691265984828 -1.4520533931543445 -0.615925502897849 -0.5588256725610634
P 3.219521139733099 5.078225167557986 7.9995994876998795 -4.156361295461403 -0.6383282960730814 -1.5952129313953753
P 8.346899015369825 7.885979813678019 4.922202840559191 -0.30218972496573115 -1.315112839239832 -1.1169527763932054
P 4.924350926465685 1.1311032439425102 4.428961043161712 -1.3824050367285872 -1.0869225485797023 0.2932736534230239
P 5.345713454499467 8.020708887367896 2.0052991655833905 0.33024843087516026 -0.5217976732734885 -1.0680943601296056
P 0.876281159619106 4.999627736071009 10.628181256527542 0.29508113894540794 -0.9921871672783299 0.5463437380439687
P 2.902195383703383 7.243167451231469 11.61676509776121 -0.8157971491189434 0.1725727012958254 -0.04199074260948897
Ni 3.1051848117232197 8.457792777756632 7.071505370381588 2.7217659498825064 1.1815242325166877 2.7993667283861203
Ni 2.9388535484308105 0.06535058905400165 4.987539359181491 0.4466049899907341 0.7288771500969318 -1.4955271480672632
Ni 8.169011237506231 8.768045796784177 6.849425180628574 0.4094756892386045 -0.134788026347884 -0.5263572676197129
Ni 8.946336927023227 5.338162322819432 5.8331910650430565 0.06434828436908273 1.6777255453783106 -2.1161096901211494
Ni 0.39748031529170724 6.735618838879467 7.08259849873539 1.45652325600024 1.3203110956113195 1.0213519617677442
Ni 8.019677055709753 9.298529212810324 11.96351869268112 -2.511324498565365 -0.7352807396304305 1.484216093929818
Ni 1.3718577106503254 2.447833003184676 10.711667694016551 0.4479712742106414 1.3293976312936202 1.7151338108234397
Ni 4.387873506534517 0.44972101411463106 2.3945707910201914 -0.5313261815892141 -0.05501646544519557 1.1736947091699401
Ni 1.1161323046116571 8.520593804586245 8.155382617359743 -0.45546912524958333 0.698887545713377 0.330443834715418
Ni 6.668896851748919 0.828771877963151 2.4396571443370747 1.355518239640072 0.2942069638705707 0.12036079517896046
Ni 4.158065835690803 2.8640645137911545 11.04703924771838 0.7134263627595003 0.2823120122051977 0.33531041877909995
Ni 9.122564393945993 6.607559149816306 9.678312677136125 -0.12555365223380957 0.14643563788914135 -0.08383570366973304
Ni 9.04203462317195 8.023504213132677 0.6639358325462668 0.5372834276139133 0.194024186301382 -0.8055232779967612
Ni 1.669212833951102 6.995828022487151 13.639856793246079 0.7962284829583964 -0.025631584525175208 -1.9381284162152428
Ni 2.2919420002150983 0.5037542859363807 9.664624961176488 2.1832692186867817 -2.491877702694663 1.76665666129308
Ni 1.2666296420954954 0.9036575295671602 6.554237841838675 0.5756640842746409 0.26011310751065525 0.696354237768562
Ni 1.0162979015425668 6.5536693963979165 4.021979434356082 -0.8137680345040565 0.7490790789661035 0.6568728918444882
Ni 5.897827814195379 5.920237321752653 1.810950858686099 0.06555464597235808 -0.34915812329546964 -0.07620029861166232
Ni 2.4154522496946353 2.3435148225465703 8.35756909274379 2.2889359021886775 2.1412836182836155 -1.9966120142734323
Ni 7.41243474460568 2.9759901078361026 4.3932390311568525 1.9102951960530585 -1.0794524654549023 -3.287428957080377
Ni 6.88878017809887 1.1331012452441842 5.1357985599959415 1.0333137621153106 -3.9044973153334177 0.46733193812544027
Ni 8.436583947037924 3.515056487200426 12.146348006158432 2.958030790020654 1.2031376970214054 -0.4985086208385608
Ni 6.949207992114758 4.422120937297013 13.599987756004271 -2.6390070242167196 -1.1599002264890086 0.13043951957120117
Ni 0.8911958172231513 0.8528257499719896 3.6708049097954243 -0.25549129246792773 1.2473475587694 0.7372604890646206
P 6.754398175057643 8.370227791131624 8.493966919633513 -0.6700932471895039 0.3162446603969005 -0.6937353120884762
P 0.6871726814876133 1.483426853758825 8.934901418164678 -3.930071564258096 -0.006357052566279375 -1.143835202606346
P 5.411366088820671 5.793537774420678 4.3492370391097985 -0.6555976246764903 -0.6942184223724818 -0.42567466759597006
P 1.800536863169111 3.444432300344541 4.078460023265187 2.1160400132254784 -0.9388100372087702 -0.2415389440528937
P 4.470654546380869 1.4980882435922354 9.356491887192032 -1.6376605590366249 0.019736302086662785 -0.565215378137491
P 5.520252469618002 0.288430717486633 12.962742594367784 -0.07414007364852393 0.8935493655987579 0.1639538492785628
P 8.833004289808086 0.32243801288141655 1.9237075462302415 -0.6411485391306958 1.6949354814986937 0.2509468676303549
P 1.9731716798639847 7.576158287889333 5.763818208579862 -1.1423064246666454 -0.843842999512566 -1.5723298561496146
