# total energy = -340894.26903837855 ev
CRYSTAL
PRIMVEC
9.04520020871005 0.00000000000000 0.00000000000000

0.00000000000000 9.04520020871005 0.00000000000000

0.00000000000000 0.00000000000000 13.23856480830091

PRIMCOORD
 96 1
Ni 6.373899239725823 2.0010153453083217 11.444686351256104 0.882302589040345 -0.19710591055049922 0.28420254435969117
Ni 4.553932619473063 0.44348435150525234 5.822810474357738 0.23960907402003254 -0.5397899960858511 0.4711770229031434
Ni 2.4868330422874467 1.6209993538135539 4.761540765560829 0.24979707029662784 -0.34551024213023723 -0.34329369409489263
Ni 3.4369951312256175 4.140340845234178 4.944140742432289 0.32962956634423873 -0.23450414869329936 -0.5941716561605251
Ni 5.2553697962620625 4.349203560574803 2.886046566458969 -0.6425089098133322 0.07000059755885363 -0.47295339807727577
Ni 7.341491429242634 6.244507652399694 2.6178337707100674 -0.2077533629620164 -1.7010994442175607 -0.2448199287970106
Ni 5.034522190798604 4.474352949057454 11.710039959255703 -0.6355080530154668 -0.11867440861547304 -1.1719905819946397
Ni 5.846292718318406 7.91174606908715 12.487593399344815 -1.964813895926229 -0.2770291665397035 -0.31298553002965457
Ni 1.748979889925221 6.581142864249855 0.49978529496227836 1.642657498030584 0.9217209429369673 -0.6008218144871911
Ni 2.625893948512676 1.4506330100674762 0.39162098321370686 0.012668082385971731 -0.25981563087489445 0.24262909179327893
Ni 0.4039577316201457 8.995523853794742 4.713922309672791 0.6519343168922902 0.8938105896799445 0.737445351381917
Ni 8.587051662808328 2.2367965761248336 1.282073897299921 -0.0998945569048086 1.1283579329063533 0.6778986021665356
Ni 6.919442392917072 0.6513367179955225 4.744251770103636 0.2093585026656072 -0.2122995875718021 0.8931068787447007
Ni 0.9245279918754482 7.457405668430634 2.8933017214533265 0.14430882135412565 -0.2685275568265956 -0.5544491407599225
Ni 7.555862671439717 3.8236955255888936 3.791234111496198 0.5630268551266044 0.08139984053473077 -0.42086464780183647
Ni 7.609093673985279 3.999615622191891 12.829201662205945 0.7540757608497465 -0.7781924513922921 -1.6975106984250379
Ni 8.048183867285495 8.99327159897166 6.917388227976018 0.0780880025526784 -0.14828708927558332 -0.24522924842028734
Ni 6.794546270037016 0.6617133715418723 0.5834000291392422 0.4458619411771224 0.06521988834075865 -0.5918831172366645
Ni 1.9480285631652623 6.603810135682171 9.099222550257545 0.1107160730003448 -0.27374766757495433 -0.755706354474634
Ni 0.2289629589866317 5.06447989350564 1.2034105056537032 -1.1813941346967267 -1.7157974125493676 0.5774782546652443
Ni 6.556503739197328 2.0486021429960366 6.9604533301373905 0.4292328172608737 -0.18753292215008346 1.179321311328098
Ni 3.401890709665834 4.107271593695253 0.3601880083715516 -0.19143919918302513 -0.17388499234934568 -0.3423992073050813
Ni 6.017590717674032 5.6224059256237995 4.720898872504292 -0.05144726003669849 0.41577180665996133 1.448285698581796
Ni 5.029918183951418 2.999551164342273 9.104094295027476 1.093771967401368 -0.04345215764636387 0.9149969939495727
P 0.27442323013255204 5.870054458961939 12.30409432958414 -0.5116731832449769 -0.8027621703118561 -0.27942826289949946
P 3.9584328261698105 6.046390634769201 12.851164312551038 -0.5257471448395398 1.2563939852423844 -1.2757960439180802
P 2.288688889056675 8.434567679645527 1.5191648730898564 1.470299483848726 0.21536228565752588 -0.9344903267874938
P 6.29918588696009 7.739154606118267 5.7654078255294205 0.17468409121187337 0.7741643040695054 0.38103260340656314
P 4.774364145732256 1.0039177130891102 12.660952799801569 -0.5301802409102289 -0.7916794301351333 -0.589072901481379
P 4.077169167786734 6.127517034400662 8.166221919455262 -0.09581884417353821 0.3941035776579083 0.2790863061790484
P 4.548794945820407 1.168377541174652 3.62225620596435 -0.057972205639409836 0.3345177476744755 0.924601349808556
P 0.24022332858203874 5.478614379750087 3.4072228551204824 0.514608868834533 -0.22788870025931074 0.5182608637648236
Ni 1.2605119493189336 0.9781750736252749 2.5463450317773826 0.714361215868944 1.146987889302715 0.8367632098476493
Ni 2.0406695025147354 6.102199519341184 4.704231282293467 -1.1540890191238704 0.49367109024060135 -0.06290512416465295
Ni 5.993928474231519 5.782306972862619 9.2992969491881 -0.5327832257507147 -0.35628959213392836 -0.36860183384237805
Ni 8.550689958435658 2.5497966801327583 10.266903611025059 0.21136910533773273 -0.6586006731688722 0.8728599555702066
Ni 2.4742783045587737 5.061368344673749 7.041989477333051 -0.2117948800212417 1.1668458045689065 0.07624143626224289
Ni 0.6019870108097394 -0.0032689353135031797 8.8828251832397 0.5928894470139918 -0.15554762749273857 0.817681767736166
Ni 1.4137738196897078 0.978781102031486 11.474274105279349 -0.735361729380011 0.6145121674900901 -0.516348220123143
Ni 4.162347817059727 6.905150976770599 1.6343799183106904 -0.3396987776547827 0.060927945833624104 0.38973475916625133
Ni 5.5737970203256095 7.888454678848437 7.94721591673068 -0.6171056392488791 0.8120083715004726 0.156806182490188
Ni 5.438580324139779 2.6718707005838898 4.996075567804567 -0.6022657460225692 0.7625118074322417 -0.5330089686082756
Ni 0.9758866380018208 7.3301306579261984 6.702433570372958 -0.9646511666415902 -0.16143056863607683 0.23347750720099789
Ni 5.017272994221818 4.327558396752963 7.165770327041677 0.7356679477665201 0.9910697658444352 -0.556693456709409
Ni 8.342098599097815 7.115062935321978 9.312720930645682 -0.19198041639847582 0.20401960695119703 -0.04095098849106495
Ni 4.839932801204266 0.5603863265433757 10.33050222191688 -0.6141085042937682 -1.415380463213343 0.18310805360951046
Ni 8.243315968885396 7.021291345960917 4.698763458837427 -0.31816733134091013 0.07254187592346863 0.7036577134085107
Ni 7.402437987467273 6.465183399061391 7.038415718776425 0.5932463161327783 -1.7195116281761613 0.26345682717190755
Ni 2.511345534538674 5.024491063895796 2.3508113232933656 -0.2554128738215085 1.3102665668911242 1.2446504715532112
Ni 2.320726987785033 5.17828660107204 11.498103684923576 -0.33027285635519255 0.5354993391302971 0.8618967716904835
Ni 1.21199349602167 3.3824706650667986 3.6130689962301914 -1.0984588313540757 0.2632100012684241 0.3776960828341624
Ni 3.5069145279422185 2.7738101056286624 2.536098629112367 0.4658214150181848 -0.878169540708578 0.35665108923840516
Ni 1.239789395906549 3.4846723809142595 8.373101022415558 -1.2511677038464388 0.08600057253153577 -0.3085452348701138
Ni 3.4815698772824617 2.5315344211455892 6.830662849487173 0.8852189913561916 0.06555644574457097 0.4504194786408178
Ni 3.971693089505714 6.942010167148369 5.922417122298602 0.9594045735306703 0.1372855959587571 0.614042169832207
Ni 1.0630914120955788 7.529088879165314 11.06790311427447 -0.3099344019081566 -0.2203088310295238 0.7958654431920229
P 9.331932935642586 5.636932516972682 8.019525055311773 0.004937032290301175 -0.2823834888730814 -0.20531210051037543
P 8.710482463273365 1.854998680211803 8.13624974442808 -1.7925828942405386 -0.6295636625065738 -0.28713154508102806
P 1.6603097934164448 3.1375899629570263 10.437853370177118 0.6013146949632096 0.09155826912497135 1.2272844694709382
P 4.008507053883019 6.088079961996474 3.836442926079541 0.3191525780723149 -0.6390788010858607 -0.9431215200999306
P 6.6318050299690885 3.870314486866689 10.438052364579157 0.9141858109021868 1.1438349454960302 -0.3912421969497133
P 6.466106009470846 7.787483110213585 10.210428095206245 -1.6619811380598601 -0.4863691572625495 -0.18906272853104858
P 2.4080493494799957 8.528773438611038 5.627912643440239 -0.5947501543718144 0.666963957531903 0.6126488890291061
P 6.934231295068642 3.959445888580193 1.577401489366721 0.47251271099543135 -0.7622456982550485 1.3123656155119978
Ni 5.41362461708401 2.837741579883893 0.3364968202887416 -0.11717545547244335 0.15014599686119304 1.0403518999090147
Ni 1.4070351456206436 1.3163389242911019 7.0129570985955 0.09154361383695202 -0.5702989633079855 -0.4824425685146337
Ni 7.132022685495799 0.5816941044017582 9.217072462265385 -0.35690022913473374 0.39921827317665437 -0.22858366944380631
Ni 2.9071001741947464 1.6779117527968466 9.125898654370948 -0.6790651116708111 0.3882792576666474 0.24027473262848942
Ni 6.376784658555396 1.8915141529860484 2.762093857948583 0.4756916229440453 0.4906680417482195 -1.271210738540243
Ni 3.9460499472428987 6.994264288083918 10.456242261965583 0.790712952456806 -0.055388246962317506 0.06404643685794777
Ni 7.9433228626107795 7.03595361531119 0.3392329933167846 0.6439749528358973 0.673362404859079 0.23013327331911335
Ni 7.629363967393028 4.004717115044176 8.482093874492621 -0.16747446083731157 0.013294146005744845 -1.605865268902899
Ni 3.0492635840517734 8.334373998218645 12.35658543476212 0.97224080606339 -0.10948142926229532 0.6647448383933972
Ni 0.06380665049395166 4.949877208331082 10.264441507559827 0.7327312337356994 -0.015523549556895845 0.1969030505110738
Ni 8.75124013489109 2.3555871889423132 5.603659748431672 -0.9412353588208111 -0.06514789745224263 0.6591112942567037
Ni 3.4385147248411916 2.539792688830228 11.612405164935048 0.5356078396837034 0.3114878624382055 -0.886091623769132
Ni 0.9045380996705726 3.2530428969402987 12.57198963880979 0.276540142718427 0.2504614433535041 -0.38517285082718183
Ni 2.9099584574240414 8.518905125309898 7.88650453370845 1.0986611771728692 -0.17945888689269737 -0.6547013381144661
Ni 5.671069102122547 7.885912977622388 3.6869664719475628 -1.002436870030796 0.040722160309710514 -0.3647539208511976
Ni 3.261653927428553 8.442898308930907 3.626466746607504 -0.5560167423573585 -0.6526382849378501 -0.2821412909552883
Ni 3.2100691512998627 4.445290721159596 9.491335592356295 0.8922812975196117 0.19501123280499963 -0.5375137984571646
Ni 7.212642553922068 6.0302359074036325 11.443772786046743 -0.17451516973417686 -0.26073531447568643 -0.05949635559342011
Ni 0.4430456593007562 9.093772817201693 0.546932495925488 -0.6770141426790535 -0.9739721869321999 -1.2508558290329748
Ni 4.526055312787349 0.3822763869979345 1.5496670968424724 -0.12600128129418944 -0.5026087590498634 0.2862874519131779
Ni 5.959122544274794 5.42731000482427 0.42124220447729355 -0.9391460803919504 1.9381217313470234 0.8618137250583738
Ni 7.9510745990902265 8.565062781382967 11.51363248444273 1.0109451646121235 1.1813131449471461 0.4340477221510138
Ni 8.98812488011891 4.850714679714769 5.577142839839901 0.058601097472660374 0.5839924016346781 0.9071669563821925
Ni 7.889304927657152 8.650105752654566 2.658078579482535 0.17966920313129056 0.977291224003104 -0.26162285928696233
P 8.551413574443076 1.7192392720204104 3.585744351270142 -0.9178059241532774 -0.7444688338876017 -0.7431010070057976
P 1.6819097312378215 3.1638934048266094 1.42760664419148 -0.32294495523521155 -0.22168231433828275 -0.19880026753378666
P 4.823407220634896 1.1023747160981918 8.163018109582426 0.5878696252018972 -0.588468949348793 -1.2986202409014473
P 8.452667125031027 1.5576286819640703 12.395334167439254 -0.627612452317474 -0.2831093112955124 -0.0124150858349012
P 6.210461519250757 7.742971680557389 1.5486477027920247 0.19730517104549888 0.3914088044345646 -0.98262574884214
P 1.510476053880805 3.3975942396217995 6.104526849325037 1.805922548772238 -0.8766299641355998 -1.3063340646059374
P 6.9424624271530035 4.0749802293643 6.053968703406868 -0.12504508802850722 -0.09935436813062243 0.2706572015750887
P 2.5686287867257676 8.817270095567828 10.05194985794201 0.18609516126229242 -1.299445307905904 0.870769648700081
