# total energy = -381166.7305724538 ev
CRYSTAL
PRIMVEC
9.28920820833171 0.00000000000000 0.00000000000000

0.00000000000000 9.28920820833171 0.00000000000000

0.00000000000000 0.00000000000000 13.59569518044534

PRIMCOORD
 96 1
Ni 8.064128615759987 3.2414691095789365 2.3573027908087596 0.8777651061813075 -0.8750047698273512 1.1219317176650356
Ni 9.261795484271584 7.165899365094147 4.05688692932896 -1.8249803367346378 -1.3881283123656092 1.8301760220029641
Ni 3.467401225020057 2.3973680735613745 2.3087527455265864 0.3486454453251092 0.5732894133948773 0.7321758754528617
Ni 7.777036355262361 6.738976657522465 2.3266855614487594 3.4112381158192537 -0.5578211425559491 -2.1281308829517416
Ni 0.37357757315248435 2.8712105704223045 11.174709069824923 -0.5436145120382637 -0.03830969421347596 1.4326004266360552
Ni 1.7010118897801008 4.444077836712961 9.991530578932498 1.379669897185611 -0.09335238491091664 -0.3524612195267736
Ni 6.079303555883984 0.2923676016849878 10.596742912278561 0.05646476785594792 -1.7989471458956694 -0.5399478618199539
Ni 3.1895052803799553 0.046471120545896395 0.7890067437438479 0.005074586309429969 2.3455032570607606 -0.09944898472695776
Ni 3.1113644632148088 2.678060069790481 6.158442033981553 0.4342055878851167 -0.7598283470628076 -0.11581637034138763
Ni 5.853612959849223 2.36111229498368 6.6343458060836795 1.0553709990256661 -0.7032748761477953 0.5405790676460496
Ni 8.374629680258584 5.628461137874801 8.792607809507832 -0.36968786781770524 0.5264729672619708 0.05352522561164975
Ni 7.152801581903128 5.805931455509149 4.3450613825512345 -0.21250424738344045 0.04251061966870098 1.1337978729750022
Ni 7.824467050988138 1.487750253964903 11.505220946061174 -0.062350537212763596 -0.09021126817877367 -0.7617121943490817
Ni 4.562236561670245 5.098298173292487 13.179122282477453 -0.9597650421938825 0.6844590289928729 -0.726642090118826
Ni 0.9723199731705015 5.375032966940477 3.2118736930919947 2.2123800200098094 0.37841470616774187 -1.7255539777154993
Ni 1.25282618524087 1.0694943773983427 2.0331679558211837 1.9959630678355238 1.3550850087573951 -1.3178731755937885
Ni 3.803466189760985 7.314322329509829 0.2600309399358684 0.20392910411991977 -1.5652433816164786 0.37714123877195693
Ni 1.4220569754351933 8.632340176051816 4.0217421400205176 2.717441097254907 2.5754709513362872 1.3922780728679247
Ni 8.648800652515991 2.31126640519431 6.679130006468236 -0.5960344204008767 0.011937631977850409 -0.017402768857479708
Ni 6.60614098402489 9.144194111790513 12.740688388430371 -0.6936154986811603 -0.7811751881696998 1.6886239374583694
Ni 3.176714041050853 4.15266609452468 4.257437213003312 -0.9676768408417915 0.3554799517484394 -1.8841797299129293
Ni 0.3404058116098381 4.803161458721511 6.962450848543483 0.8754693681685954 -0.3039696996842894 1.630617021926282
Ni 2.48349760955225 7.504035823205002 2.320540750398504 0.8892587086432039 0.5651660129567945 -1.9861170282793792
Ni 1.3599586203770613 3.6115975998244525 1.44417550845373 -0.060097479512528765 -0.6262921908441537 -0.5250850857755086
P 5.540018589107639 6.735678988704868 5.406423058400827 0.3561520381147995 0.6818912682656967 -0.21903073564804856
Ni 1.2204161387490493 8.042735569881321 13.069677763485767 1.3052976529216231 -1.4240525370660442 -0.6109121088436575
P 1.4247415565289556 6.880887887174385 5.964037490278249 -0.4082868111368259 0.12821602955732114 -0.2021167335015293
Ni 8.271342977208267 6.638718236259575 6.408929241683057 -0.4119318640885809 0.6268490917888883 -0.5717531792560089
P 8.101155398596443 4.577006402289905 0.784829386934627 1.871508562203164 2.9335204635841157 -0.6854360481941615
P 0.9258525683077798 1.9881320179015376 13.504508373774128 0.9713419483982045 0.1344491549512265 -0.45828679720403653
P 4.912922739703843 8.33167638275839 9.184041098156612 2.737461249130576 -3.3430228922955973 -2.5729641257540337
Ni 1.5725700116366763 1.1233810726402613 7.178160190650052 -0.6800516439537965 -0.4574429611465025 0.8564730295717509
Ni 2.2403990378437504 0.6276179028898502 11.780900485687534 0.25009531826333703 1.6930056114658325 2.7693892081874245
Ni 6.947705159864459 6.681467171185159 10.669452329563006 -0.2688250334623564 -0.0486522137900646 1.170811474084874
Ni 0.4801173568223016 8.148892638184138 1.8423388282527902 -1.4889615790346034 -0.2380216749282546 -0.8668952533463393
Ni 6.409525608832605 8.601490716493394 7.1055863958014855 0.3229267004027664 -0.582970388128067 0.6480198123292323
Ni 7.415082368001312 8.984336132404517 1.6508167257723039 -1.5955654296387876 -0.2265674103447259 -1.0867312585045026
Ni 3.676928599244624 0.2862906018526722 3.4084407644030077 -0.6354388903404282 0.1586774313709719 -1.260809597811577
Ni 4.309142802221649 0.7341809095795098 7.541273471061627 0.3061739064244598 -2.2746140862493665 -1.081425787131189
Ni 5.641558921065821 1.6291227095564833 0.8739611949307061 -0.4755460985051164 -1.2139985509953093 -0.4074290911222209
Ni 7.710767145840563 8.142510952331493 9.264106639206284 -0.030570159477373158 1.011088632168523 -1.6290177957599623
Ni 3.20459095406947 6.753031229130984 9.348209270025327 0.4415597142573427 0.09162280381431963 1.3410107900525163
Ni 1.829128645645734 1.982530625515591 9.676314312485133 0.23108715259195042 -1.212312421542138 -0.2999338390520189
Ni 7.05400156628633 8.22528708425715 3.9421940078529314 -0.35967470655607736 0.5115783095383254 1.1522162275811898
Ni 4.815701889436317 4.790407376224157 10.49888110666339 0.19769520739506596 0.15549543409856448 0.44009058591098404
Ni 3.301672466217943 5.406820636500526 2.0590541915789244 0.38364073045337155 -1.2371420789913081 -0.2818399576647856
Ni 4.9285100306219505 4.458299614064345 6.209235422980486 0.21568598754553175 1.2481304596820115 -1.1683977224370587
Ni 4.22736061554524 7.237769966901891 6.976834258112969 0.05234637481220017 -0.4381249775441809 0.28010960523724016
Ni 5.140768431979963 8.231761662189164 2.251501499169925 -0.25858330112969014 0.9827864427897203 -0.4963527508378226
Ni 9.070121967701727 5.4478603571657205 12.176059675639802 0.561926165863258 -0.3873220359597007 -0.7384043728610766
Ni 0.8208167074029455 5.864890058284611 0.942916843287853 -0.26296857468157936 0.42393043121135376 -1.0039031701636776
Ni 2.472387716859725 4.869086967449643 6.165946785073769 -0.22025200964965938 2.0935320619309494 1.4622041084351012
Ni 3.9278858408677344 4.9061416179099115 8.208536784505345 -1.29140366854835 0.7070862794740854 -0.14114430758321497
Ni 3.5266013472018787 2.939792792620388 11.342888321680789 -0.8609657752357818 -0.0009240544761661503 -0.41409210496469334
Ni 3.547632113971005 3.0165030717632537 0.10970833249709161 -0.2408241773740562 -0.04540233939419922 0.278493666900372
Ni 5.234840240756883 -0.1598895626929832 5.172590471609379 -0.44794556317902856 0.24923682691778368 0.09090649447358537
P 6.415554304783649 3.797103082324213 8.730570763222083 -0.22889682980885093 -0.6603374533543208 -0.5469705729946903
Ni 4.634311526052601 2.391237196323025 4.537073955210788 0.9083805170743195 -1.5625241829131025 -0.6190241964278307
P 2.543004275595988 6.304975573502871 12.125647144166283 0.12573362945509958 0.24326801092885847 -0.005306756924894086
Ni 3.6891253292657646 0.3050798827466264 9.93782781000773 -1.684730001720602 2.7787426243778657 1.3771733560160024
P 4.272162465424876 1.29761874591257 12.593338327531402 0.7328415340613186 -1.0032295411354204 0.2706191492483017
P 4.973646291987315 4.046843437707591 3.0749247583199635 0.6032252817223611 -0.21315602203482642 -1.016802908944481
P 7.381613351804685 1.3411944203445367 5.195962118778603 -0.3381851692237337 -0.6869555701624814 0.07563876968123748
Ni 4.3701450307432275 7.724580198042724 11.638254479687806 -0.056819837202521505 -0.09014261972436734 -1.0495006562878184
Ni 1.6648304248659012 4.283067995542789 12.533558558774319 1.6620598138165954 -0.0038952212893481296 0.46870979230957344
Ni 8.639799410025143 8.42592468648611 11.410771066521225 0.22326354278247354 0.09231468767502166 -0.03594865018046712
Ni 8.871825245872865 0.27726985202515503 13.599093875749958 0.19811378298972335 1.1315412157303417 -0.38609253442797375
Ni 5.963095564593448 5.93025821453653 8.716458598524355 0.13173509845417314 0.9268819183126167 -1.0109040269615428
Ni 7.459782036593642 1.7295947826019218 9.012273425274724 0.20151175292767878 -0.6110437493255154 -0.27522708033395826
Ni 9.198981860202313 3.31438939188355 8.857445551986554 0.025202724517872723 0.36993803615529836 -0.17149900861567238
Ni 5.243822904831858 2.227709979801954 10.000707387453353 1.8525142804888486 1.3590959296890013 0.8796103869201626
Ni 9.07776698583379 9.203236317437408 5.71962728240906 -1.3281650444380997 -0.7252634646037445 0.5562440278768163
Ni 8.182398811212513 7.1384683340565 13.406333521851483 -0.3701738063151883 1.307648926762619 1.1209791239437792
Ni 3.1863469496814116 6.768311976187174 4.2306127672439455 0.7894605681069436 -0.5950422316909366 2.240086227675826
Ni 6.762942813999651 3.522179684223917 4.435704544678646 0.09671333096334957 -0.24994028074271146 0.09813952188691485
Ni 7.351720680663761 4.418421044391262 6.706973478338281 -0.7549995582155965 0.008461757614108008 0.6268650326284881
Ni 5.997335585048837 3.3076082700896174 12.272561541213014 -1.2207039880399428 -2.039091266483566 -0.9704814001701223
Ni 9.144398474365127 4.507931852071167 4.826730037098997 -1.6417869225001727 -1.3168501336459126 0.6603950460651337
Ni 0.44988098498771373 7.630006772037213 7.966723839175311 0.08420645674559045 -2.5570752224379185 -1.2226042903864494
Ni 8.805119443678034 0.581447752681109 3.1755603214250914 -1.1691824231218833 0.6548255223971561 2.5128702457859307
Ni 5.804445182239246 6.093339549076629 2.437626571839077 -3.311473142513775 -2.637986039151373 0.36804441867701126
Ni 8.120337612986129 2.722620400263758 13.374261602528565 0.208182480079635 -0.13286304141102925 0.42073969218819796
Ni 1.0088451387783661 1.8091289809576028 5.074824344835957 0.5309672555878985 -0.03810811972563115 -1.827668682200078
Ni 6.121838839027019 3.880650218508632 0.9024010339502988 -1.1199666235188648 0.7220189895245178 1.8303847955796606
Ni 1.5696624895524287 8.643821637061817 10.160742790710946 -1.2759320552753122 -0.44206493602853547 -0.8367328708303461
Ni 6.5468851265954475 1.3776359830809692 3.201269133311237 -0.8024284411215213 -0.4615922074281857 0.0011341136044432081
Ni 0.7691427014915952 6.495794482942534 10.198864771163164 -0.20487372742137616 0.4015602910462697 0.7821339525385433
Ni 2.551048729669338 8.526591832898223 7.988218137420489 0.38989828132730914 -0.17069476754682214 -0.3336345737385738
P 1.0037453636210116 3.1969923819770916 3.50872240868574 0.27882765320102304 -0.28375748640247256 -0.5473348983126445
Ni 6.844864338795113 5.424024249599653 12.51153291783515 -1.5446136211812689 -0.08547503904536892 1.6914539507079966
P 3.085800562972478 0.5636301229373539 5.394119502488412 -0.3018495680174931 0.2794791707420929 1.1085429550629553
Ni 3.9808343261080266 2.705593282115433 8.34608394426851 -0.5255275726295658 0.9149689689251146 0.2407619566775531
P 0.11177703910463777 0.152791678908403 8.73073332436098 -0.424188827079063 2.9762771378253516 0.6952327225696091
P 6.069113294777212 7.058488253719849 0.5278518096476155 -0.3811696432050597 0.5414200754901062 -1.1056939156499346
P 1.9268139563101045 3.1742709793634507 7.858814826255595 -1.2076718374463329 2.123432191924491 0.27946065879933163
Ni 7.489145222882162 4.214615822255822 10.598048045993695 0.4108481441060988 -0.7975438593357103 -0.38971573300285783
