# total energy = -381175.61308407906 ev
CRYSTAL
PRIMVEC
9.16709280860056 0.00000000000000 0.00000000000000

0.00000000000000 9.16709280860056 0.00000000000000

0.00000000000000 0.00000000000000 13.41696694933822

PRIMCOORD
 96 1
Ni 4.33022299893691 -0.32864119672920605 6.733962176652798 -0.3400926706590917 1.5253102928669666 -0.5047155209802212
Ni 0.906355057341959 6.357855606370255 1.5264483883740168 -0.2792212890950159 -1.0819942580401496 -0.40032744708043316
Ni 3.71122421879563 1.1510385171509303 8.63840647315349 0.8349297561833362 -0.1961144931715074 -0.7346014541752188
Ni 7.974829953718461 6.022367507963312 7.452158985639923 -0.18583933649774445 -0.5116767827894028 -0.20605154977956125
Ni 1.137287877819553 5.379167602598808 5.120988348640735 -0.2934371755840818 -0.30158423017124836 0.5320851712424255
Ni -0.03213249398956246 1.4212844154769322 2.1044785136913915 1.0642806428104703 0.5195114483424731 3.6979842525364055
Ni 3.929016011618871 5.493536253464317 4.72501302123364 -0.4160895950106963 1.0300862563169484 0.8303074269199765
Ni 2.7571040239629103 3.512664986850542 5.146520535751235 -0.5940508143119446 -1.2648261751701377 0.07423906112023343
Ni 6.266065505286869 6.134655228743339 4.704123049961411 -0.8227740946574088 -1.5954795547932008 -0.9503254940475374
Ni 2.6974537505433958 5.11976637515882 0.39394114949533926 -0.6542380253248022 -0.26748600293595864 -0.3263627226675089
Ni 8.00284458958292 5.900234329422019 3.004059089389425 -0.06049291517873453 0.6622686089387627 -0.6292769845040904
Ni 0.25765581295419265 4.059207064808351 6.957274392812943 -0.5872659301796272 0.7741915577630151 0.19189865531794695
Ni 1.3519811932467904 8.473143955994686 0.41413992196384375 1.9366040091509165 -0.5423862960581175 0.745355093147297
Ni 4.90435802648635 0.6854831213084893 2.8166644598721264 -0.2529988650633772 0.587153315861163 -0.0394926587779836
Ni 7.794531570805442 3.5271764948915894 11.835267860154598 -0.5486944976643324 2.0656265937699327 0.311940633704908
Ni 0.8019152847829935 9.34750127561253 4.618415315008937 -1.7906147147705744 -0.9295532944971926 0.23466947062657004
Ni 6.707543531660067 4.121442458422165 8.255875604175326 0.7818328763583566 -0.5695302034627611 -0.3500464394376939
Ni 6.475680251254383 8.075182119558853 5.7369344868504495 -1.3914452925539842 -0.40122321942182515 2.063151135646247
Ni 0.3902834794331929 3.0294858549317194 10.136787056524298 -1.461076165478245 1.019116387569006 -0.8174537108857599
Ni 2.7123594435786083 9.18918558144394 10.462483783018012 -0.7710938926742978 0.8250135255108888 0.5847375073308188
Ni 3.265941848874083 6.914563990340397 2.303612522360531 -0.06847927581832078 0.4218540082982993 0.3583127932115442
Ni 4.9568763016393245 5.254586810256529 2.68105840491395 1.0300260925029745 -1.0408887462490912 -0.290950404606486
Ni 6.675367035624644 1.6033887156888054 12.652897375565491 1.5045347508825122 -0.46621505091217774 0.3053583525016999
Ni 0.9094526180286739 5.7786145080824305 8.888861534644484 -0.5822409661612102 -0.20564505836976196 -0.3382669303042626
P 5.588819016937874 2.990369869580395 11.575367942861526 -3.0030312659907445 1.5099446090441737 0.7255848524989053
Ni 7.914968837162533 2.954544870575713 0.974901077699586 -1.318236729580794 0.5900933723260934 -0.8779108877305527
P 8.228813429261887 4.88731640080833 9.583323823436363 -0.6791916099463465 0.0679506570083604 0.5510802242876895
Ni 2.069544556115383 7.011854347156334 10.578486926545377 1.3040267566289994 -1.4545393928009918 2.5044743084127514
P 5.221585275861225 8.136179955632842 8.495113810809073 0.6586497812392528 -0.3979993131678887 1.4085770671382645
P 7.763702637424495 0.5716443284118831 5.695260882583488 1.8623891164003992 1.0735692672012478 0.6110193238454832
P 6.002419913839928 2.956240782759916 1.984571105303204 -0.7089469868319082 -0.03267383608393728 1.1511286509439658
Ni 9.047159811336588 0.8443561747246451 0.08131486404074399 -2.703694694203092 0.08709200582350163 -2.3943362194030633
Ni 7.124884602460257 7.047092652216211 9.892597703021968 -0.3378324138700053 0.15425770503672143 -1.0828666333427737
Ni 7.829980719001734 8.29435814340812 7.62231306356354 0.7306463261822127 0.9422499161282546 -0.48183398839635727
Ni 5.5438727605100455 3.382226422153097 4.369557161098959 -0.9165751370699698 0.48072738559573985 -0.2704049763549666
Ni 4.8466511767590035 4.288934412571228 6.866172740405413 -0.3035336405881353 -1.7847585131001134 -1.1256071096340938
Ni 4.705193766410682 6.634903487618845 6.646846376232791 -0.10310020832629986 0.2293002358948567 -1.8278093215430007
Ni 3.6553049521813623 3.1051510396258446 2.1052292985988847 0.152167398166596 0.9160128368085967 1.0922138788856286
Ni 8.919636382177396 4.99670732023588 13.132124573740477 0.954877117973962 1.1362172810497722 0.5796845182879435
Ni 4.72171286779411 5.8319486545024 8.640996176894232 -0.6101338359167363 -0.5950918539819492 2.091754658315552
Ni 7.023652395702657 0.41682496347061737 9.309081072611374 -0.7882567776068296 -3.1071146641659197 1.0503568336405265
Ni 8.39770794862275 7.09640244485853 5.095992436464156 0.9927566666285548 0.4221183177032795 -0.5057372773765162
Ni 5.6741371504426255 0.9860400122672904 5.24871712068061 -1.0869006942028312 1.8740727233859145 0.0700929001623438
Ni 9.061717154842073 6.416680841429887 11.218301424506496 -2.0876941150929333 -0.004878411138223856 -1.4666621442064545
Ni 8.864377146251034 8.24489251018671 2.272552578238816 -0.4180839997329058 0.06520574727337157 0.2866803164762224
Ni 7.1078888122466735 8.954792183401283 3.6977696765645223 0.23780056005638403 -2.3577481358663843 -0.6119729460080041
Ni 0.6434758348604205 2.966287916564709 12.581586559992967 1.1727200039614967 -1.3614065801000488 0.34695185967277026
Ni 4.604566587783663 1.6794664195628721 0.6230414681047051 0.8883097144663733 -1.893398677408036 -0.31444231708083914
Ni 0.8225348268150381 3.7914362815619977 1.4543052007673016 0.9358015893997497 0.6834740393717842 0.8630524825614813
Ni 2.4473571223843056 4.856120783711879 3.0849366830994316 -1.1707924479214804 -0.40436022238891 -0.5935106255377585
Ni 5.148120193460119 3.9670686141952363 0.09219528658901847 0.4012237336424574 0.09094197569721113 -0.18448770756585645
Ni 1.9177925004543033 4.559125308339905 11.435495522873468 -1.1310570770050714 1.2835867436070927 -0.7412390140963944
Ni 4.977832275980343 0.846391269345689 11.003844620075759 -0.37324653170324107 0.14905224957638202 -0.06763826797426416
Ni 0.38903400467261506 1.8222163900083437 6.187341261696156 0.2870860365550733 0.18253752581802113 -1.557218454429473
Ni 6.925857848777901 0.7271356412618086 1.5196060702427236 0.28646305825909374 0.25080622828743254 -0.01801443429954962
Ni 9.065888182105924 0.801787862191856 10.88546719949051 -0.6983941510167263 0.10233633357708183 1.043895394285899
P 2.638005153167408 7.404196755652079 5.595062723903608 0.8647370693527558 0.014221800026336799 -0.43162060076675984
Ni -0.08131944758718779 3.917960497596444 3.656673599149479 0.3909148955172816 -1.320491844163558 0.2194482828014414
P 8.012836720830387 4.95617043548698 5.272532311293266 0.3337307329968059 -0.20848895557646027 0.27397572442536045
Ni 0.8525240544874833 7.302992050173142 6.7618163883917255 -0.11965451314055522 -0.5410182120659973 0.8129357684107484
P 3.787696107663863 8.677579294480717 1.2700484671454233 0.5029244905180693 0.8016172580741355 -0.23432160036884808
P 1.0961642991258473 1.051942243036138 9.016188788015883 0.4449224600819886 -1.801169350357969 0.8125552451428779
P 7.410127864750346 8.383434784996782 11.568390868464785 -0.07740820287683442 0.30073653745897244 0.5774258041607538
Ni 4.75389853092242 3.249807765391934 9.525161369192503 -1.081291061325538 -0.7098358171947646 -0.9939684275484689
Ni 4.007568830572586 5.393037414137725 11.57312658865051 0.26138991734054984 -1.3446540432320584 1.009802823477564
Ni 6.9372800465158315 2.364092417686372 10.215758811622976 1.1229107937488534 0.10982055776926893 -2.8051643089045046
Ni 3.220243890829473 2.8674391539578816 12.674619718871911 0.09936105299884178 0.5704943671482433 -1.4652346677313088
Ni 6.106851436015294 1.8650725492578026 7.770449617789757 -1.8350408062944332 -0.21147786300145516 -0.7337810151564523
Ni 3.0913820661086926 0.7452305659126124 4.685043579534481 0.2697246624584903 1.1490062052843244 0.9466477880856343
Ni 5.99086937680157 4.9113341841738025 10.301802062175136 1.8474908591323278 0.22180624151065673 1.499513643518837
Ni 5.82716343201508 7.625352871565063 2.0089363214891156 0.6154580763431271 0.048953032859935054 0.8732775027235994
Ni 7.360689732807601 1.9356683315850938 3.7800965876600556 0.5546196048995158 2.1604558203366917 -0.5747873380966423
Ni 1.8168261393904437 2.645925521422281 8.020917513210795 1.3068961077569945 1.6259067609348063 -1.4078293903389627
Ni 7.946311127745185 7.456953375220129 0.13740005503627695 0.42315884315265184 0.20005213766301674 -0.1300397130296212
Ni 5.783216388711998 8.785695987996894 13.227278081204318 -0.4246508543171461 -1.9070445503262448 -0.8166641251049291
Ni 4.597159576730494 7.337451152337574 10.809969772596226 1.518124830862121 1.5553173807520182 -2.902155319009273
Ni 8.469999643134246 1.8626249354568176 8.101594347586563 -0.46116129053835414 0.5722751131977499 0.9068941623367801
Ni 2.500498759853635 5.298863868903564 7.092048075736927 0.5922798384544509 -0.15746104246536755 -0.07232178949286254
Ni 7.285501236943631 3.0714894745426333 6.0954090706730115 0.19931603082794058 -0.15501283803519111 -0.4179508165891512
Ni 1.308776684467603 7.086052796988446 3.6736189703521793 0.3424660559872747 0.9891386102599933 0.537008576685972
Ni 0.4894714244768611 8.153514928283267 9.377949774638644 -0.7811931858918288 0.29643071099476687 -0.9612323707680285
Ni 2.837792775559432 7.444275285756601 8.511830921398873 0.8426093842157812 0.7120855324608898 -0.8120878185881563
Ni 4.704836249788066 6.226170317040099 0.5860119130945948 0.19449521240052955 0.7367917769583182 -1.595082576465098
Ni 3.5338501385137504 7.993338314258495 12.598519097265626 -1.385428139825627 0.3570876625551915 0.8936671221235449
Ni 4.566706494157938 8.092938778482104 4.29548246702083 -0.48491674108673904 -1.5799331224181694 0.1420573063157876
Ni 7.025357474979748 5.236206789016922 0.8447980286018266 -0.926622751113959 0.6451851710939147 1.318559917248168
Ni 6.261454457564413 6.177703896943438 12.198102313354497 0.8022875446682828 0.7450725289098717 0.2287993849990382
Ni 2.009637604095016 0.1106660620482132 6.993057223190342 -0.4675594807552141 1.3328228549250851 0.07433907703320745
P 3.959139078847475 2.0799125381712416 6.256801241214675 0.7016789924155851 -0.2124795647930921 1.0452377672464064
Ni 2.0678303097454047 1.8879169447336641 0.9532777389963508 -0.1741205053989195 -1.2230580900944164 0.2282129163679489
P 2.6522966509791526 4.527893022871903 9.17305974834539 1.0737631283796087 -0.39913548365486096 0.5776734013951857
Ni 2.6647547302133803 2.5953598370543634 10.33498235488175 0.21389598552464456 -0.8179031397183526 0.2890035652927604
P 1.2206900889108 6.674917848073153 12.728636813712006 1.8490391774560542 -0.7075909870246458 0.8373548206850612
P 1.6636440172389007 2.3622131636444177 3.2907122505656266 0.5403075591522178 0.3119146655629789 0.28914034798094074
P 1.7259069121313768 1.0413267494723146 12.36067612216937 0.8762592110597426 -0.4581579849356561 -1.380657715020177
Ni 2.0277151112693335 9.32678364568659 2.706363248120839 0.9560063464823987 -0.6553860228863165 -1.2556540217525665
