# total energy = -381174.4080922995 ev
CRYSTAL
PRIMVEC
9.18909214711171 0.00000000000000 0.00000000000000
0.00000000000000 9.18909214711171 0.00000000000000
0.00000000000000 0.00000000000000 13.44916520496229
PRIMCOORD
 96 1
Ni 5.907437418241102 4.44608695343799 10.251921502085859 -1.197968751225956 -2.0196511554810828 1.7395824307841075
Ni 6.86075056234844 2.6757716536148184 11.623575403596053 0.0822966413173873 -0.8399390364724695 0.16749374411102122
Ni 3.351225038588928 0.34009931600078563 10.687364997225957 -0.29228583558845794 -0.3360879203750728 0.9465737403145891
Ni 1.4241805883002379 2.053109601275817 7.354595330693487 0.4225690320874529 0.45443914132317215 0.08305460252933439
Ni 0.7813981004629195 2.296023244132055 0.6999092340037134 0.6879981524943829 -0.35551209053795546 0.4744536367718861
Ni 4.25131496274456 9.1290503163917 1.1474869249218211 -0.6578370555299703 0.4598438572785113 0.6418082842018819
Ni 8.28845057282435 3.7699076302083236 13.230010601681878 1.5607956302577701 -0.47960407062457405 0.9475746707752777
Ni 3.6935370879053853 1.1156843969641457 8.371633907819312 -0.37016943543981407 -0.14294125158263768 -0.82135278882985
Ni 0.590938550571171 2.63519262403838 5.1759517079390385 0.7878654557056819 -0.20778807285469378 0.02468593278245426
Ni 1.119755164650369 8.866646609737542 11.704499140906945 -1.4103434150100678 0.22793549433684615 -0.10464775531907784
Ni 4.988344452155198 1.5563105399034092 12.532711988670616 -0.21784468575974741 -0.650788376213305 1.521464179647999
Ni 2.7122431591376635 7.202088567929594 5.819682510054501 0.015002901166735453 1.199616057021392 0.9088176046117379
Ni 0.4580449854358886 2.3640041455827996 11.738565861094608 -0.07868244160356772 -0.14456464611867362 -0.7438024039481964
Ni 3.467558941314858 7.044431319187983 1.9867781418107995 -0.050372281804964864 -1.2413203787387137 1.9929656757700966
Ni 8.163083792817254 7.770544167489743 2.881241585031275 1.5256080266130436 0.05932871966730427 -0.2694642097082521
Ni 7.848476855405904 2.5035037488436482 1.97842617623516 -0.08297592677259903 0.05739396453843664 -0.1359553071831078
Ni 0.2740361780175684 6.099829434147326 12.638422382317444 -1.0919817082701644 0.2411453081589008 0.8769094430492318
Ni 8.201402305800439 4.943363847586207 6.246881551993518 -0.6304910594168497 0.5316686525302974 -1.218377139678979
Ni 9.184341082007967 8.75499914385128 0.5898735348266263 -1.1296946494399058 0.31746156352313715 0.2618519445786329
Ni 2.6567961789600756 4.666073812147213 2.097478212328099 1.989849241628302 0.777048567595836 -0.37324421771039584
Ni 6.012275767072076 4.019860117415909 5.493230833258183 0.8475603004631531 1.5587852846959607 0.1466814353513603
Ni 2.9390299458103297 1.9489696234248723 3.5407077880178197 -1.292434938026342 -0.3725669891377132 -1.1536329054230585
Ni 2.351782653432287 6.0074882502221385 8.678867517936247 -2.5622189714223875 2.682114139818839 -0.44840527642426653
Ni 1.1631368672387667 9.085466453782768 9.15986317915794 0.24620755317315665 -0.3931414708549552 -0.0037101018617355457
P 4.889883333062912 4.970205184858122 2.4132778938606023 0.21273590377827234 0.5337530458631518 0.03794639733678626
Ni 2.066341893529004 7.6154322971885025 0.37156919883376294 -2.8204482316467687 0.9171101836378334 0.784508623418307
P 5.824303704342089 1.7030879039035105 1.233627309671696 -0.23370736382361687 -0.1419218091791878 0.005709648790267586
Ni 6.151334293924486 1.0902214234686043 6.739066770351812 1.304567459623818 0.1004278037004593 0.5315516673364588
P 2.8489952239376075 3.186556512771497 5.885461705099786 -1.9208485460888725 -0.8164563799694972 1.4614749435785606
P 7.584180195832192 6.898885293494776 0.7657858334225282 0.4399854277916874 0.7117775143021676 0.23565754557145221
P 5.754916871839444 6.049041323533881 6.604790246894234 1.165203383869477 0.4985818972786575 -0.5229929791331702
Ni 4.562779230745777 8.722929213320988 6.799763478699014 -0.6244988463891568 -1.7576984236585278 -0.013938207347646964
Ni 0.1677266555826112 6.6523787157281244 10.318589282312312 0.1472877014767915 0.9132267894230273 -1.0737034787862672
Ni 6.8247109441421925 5.476560901746721 12.761629725741557 0.9211714981914005 1.3285977611001443 -2.3357371788129324
Ni 0.6604788409075866 6.4917625794132325 2.0991993292301974 1.7350524041242374 -0.4103341805841579 -0.5727661939015555
Ni 5.7780825723743625 8.644766798108765 11.185791446763671 -1.698066828038824 1.2958586189959103 0.33622496017356934
Ni 8.176996077866784 4.9298191262103765 1.8876848131997501 -0.07769822331342748 0.00355814966490355 -0.5947930917946079
Ni 0.888188212401239 8.670091935226669 6.655440521130043 0.5017032165164585 0.0803549442099842 -1.1518673288822034
Ni 2.9429996334862856 3.9558948491003325 8.403320653219774 0.14693751722622436 -0.617997040714897 -1.9792748085465657
Ni 3.7077618020775605 3.9532024451904824 4.1446158228154815 0.25191488797057904 2.3697780704477247 -0.2836806104179502
Ni 6.918954270078775 6.304709425867496 10.106657581512215 0.9120859909503647 3.4641269933984855 0.8367752940325073
Ni 6.769309909423816 7.9861110730227285 7.537503284909077 -0.6394868351575568 -0.6663402079049751 -0.2604128981392612
Ni 7.450993498667135 2.0630797659249196 4.37381658391517 -0.5577740913680975 0.8055636443163933 1.320189482431791
Ni 7.259226341006199 2.924217129760235 9.065731960141836 0.30785360811972784 -0.03847347348484987 -0.2487827700995006
Ni 4.884204474304254 6.521866044289232 11.387690497090135 -0.14614973121760635 -0.5904731242630153 -0.04602428924891429
Ni 5.132346710418868 3.1730577368548785 8.159353021529203 0.11336508058741766 -0.08616486602354193 -0.887855143427458
Ni 1.3416717326465153 4.673103467406719 10.512310959808143 1.1015372131690835 -0.8671078835777776 0.1738338273964361
Ni 2.5690862973235036 7.293014631711038 10.744174719723786 0.06761769914897386 -0.4787864598192851 -0.7034425120739112
Ni 6.974511519358472 5.6276571389127925 3.782348741653872 0.19917410593343762 -0.7220169326419889 0.3466919211431642
Ni 6.2295058982285525 3.9569424055703766 0.8226920413847035 -1.28085803182202 -1.2393352299878848 2.2852461120419156
Ni 5.364564250370446 2.592215241491052 3.2810984841929614 0.9064236504582647 0.17060220783301586 -2.3537968645281206
Ni 0.14237395118917984 0.7836163472336968 3.059765423528813 -0.20682673738268892 0.7097160037874487 -0.09124253765676545
Ni 2.5314018316774494 5.743899150720298 12.506593832926704 1.1083609209591363 -1.9649969584713127 0.42277909121573
Ni 3.7452073513357096 2.65271622218201 1.1454818650817897 0.27091842565627533 -0.32198799063858097 -0.1472897583593205
Ni 5.869817276237946 0.8432223103791958 9.268277003624828 1.4648384607341547 0.08835210348284783 -0.7414467592318262
Ni 8.927018943142704 6.9149110696680784 7.749476336622465 0.1491700061011689 0.3297830612029675 0.22790155577511717
P 3.7162157665726516 7.693668225135467 12.767628364896334 2.152936886251828 1.270249403068238 -1.618825942828625
Ni 2.7452044315766773 0.722487751569897 5.551788321024454 -0.24965514540212486 0.09189379808751917 0.8995192100289475
P 8.409617937859432 3.904840254823455 4.019228826806329 -1.6385882130572167 1.668230975624314 1.037561481648071
Ni 4.749382118791233 2.215949497816592 5.422541906441456 -1.4595666708122539 -0.6527113042676308 0.8869717123812402
P 0.22215640329323538 2.9455450119266557 9.35923339140935 0.19412625909688502 -0.966708049170619 0.8136554201855922
P 5.158250760322849 0.16262854742839744 4.848813605982086 1.712397385728883 0.35183078503162635 0.2531947831242672
P 7.907213530463105 8.393959725359828 9.30288128568528 0.6633165905873029 -0.9774107803001038 0.20217381199170986
Ni 3.822202751883937 5.179155944264514 6.431847862781826 -0.46965492983166207 -0.742735653246579 -0.3502115042606485
Ni 9.012799115492353 6.906484672448515 5.05371197588594 1.2869222357382286 0.07023019707115646 0.49872382217316047
Ni 4.5316373984915765 5.878023135253289 8.588125235991653 2.130441533362789 -1.0849512837859445 0.282946560465403
Ni 1.6100759162738214 8.0978044843682 3.6998113998154376 -1.616400621216584 0.27940383741946717 -0.07290722968268734
Ni 2.7604767022188965 2.7477773772925747 12.229366283312238 0.1334058012883767 1.714824250002821 -0.9385344149498804
Ni 2.2192483817880464 2.3383298229748815 9.6104365140167 -0.7510724552470485 -1.287608463171976 2.8385436556958985
Ni 3.6557974877082766 4.624980193427596 10.58274442987165 -0.7353774131092948 -0.22407678271238826 -0.504677211543118
Ni 6.260206654074313 8.771291403688016 0.21504128947959497 2.0684910598019215 0.16995069029194604 -0.5914390877207104
Ni 0.09001266805230027 4.6873925052217915 8.308301767931685 0.37681959376648 0.26528205330610444 0.003872852691844943
Ni 4.700367502903387 8.016710748858221 9.183735520855546 -0.714821186224498 0.12052945954634083 0.09129395971999116
Ni 8.39275595432846 4.450341502961063 11.072374161788545 -1.2677189233369004 0.46936053851969484 -1.7362425677775968
Ni 7.7757727607481195 2.6830953598132834 6.658789026197446 -0.07397757992873066 1.7226607153281044 0.1446122115271574
Ni 8.552958581510442 0.8938156122455803 7.629213178224686 -0.9347273824989645 -1.215999383475422 0.7022559479649776
Ni 1.3589656034940825 5.051602160398903 6.189884372022102 0.36986887348025976 -0.1779239383054097 0.4705221629279639
Ni 4.620064029291863 4.205222478062628 12.688775848886738 -0.05252043849621923 -0.27426008843499866 -1.0274498471353661
Ni 7.770700382051064 7.946257981701846 11.583335451508601 2.1993545542844184 0.6482566109303868 1.321157245661699
Ni 6.86370026082988 0.5046125461660779 2.908314487417621 -1.896269571197928 -0.9205251228566533 -0.8393857350721609
Ni 2.076762323678388 5.888140325371872 4.108316153310091 -0.27142801830284224 -0.9269150855433973 -0.5759340501065758
Ni 2.547574633320233 0.8114547009705219 13.19666981974977 -0.3256086181103038 -1.2437066195827031 0.635132414843603
Ni 8.317993503097957 1.1767918577167078 10.052860962229538 0.016045740608953012 -1.3400121735846728 1.751676900054796
Ni 6.842344811387931 5.112149086549074 8.333788633066016 0.4244904174798818 -0.15271812846374347 -3.241725284395675
Ni 0.8671047600778288 3.563189820119657 2.8797887896109775 0.7054464298778174 -0.8262839075828802 -0.535131414267917
Ni 3.6733394640355908 8.85391971753569 3.577840908153324 0.7446282422836015 -0.8883837622374183 -0.9295234697005217
Ni 4.495910209407973 2.261481447896133 10.427568235927511 0.5402995887324179 1.9194683779118944 -0.21953570030892514
Ni 5.043506570485669 6.322012485806905 0.43441615467210853 -0.3309050906225527 -0.30722703027932247 0.2535421391613569
P 8.086125148636395 0.9539196241689423 12.512107288032201 0.47863476473276917 -0.45083316913946875 -0.3486696136948253
Ni 6.8742401491732155 7.729707843341715 4.825143424305014 -1.5945552432067185 1.2876130911576664 1.3228022374642896
P 1.1541958808760235 4.611968439378629 0.7095485913464861 -1.5981352472484929 -0.26299531415445676 -1.2666632283788768
Ni 6.015363301931153 7.417480880717571 2.3506588274999505 -1.3858449156480712 -0.3582089206438282 0.09955697105973177
P 2.776621936586152 8.194675890571736 7.968724392347552 -0.4281989766797206 -0.4841718925009145 -0.2554470694935536
P 8.412429799963233 0.2838161284655311 5.01760068276332 0.9958229642587042 -1.5786254593503393 1.1680688783427304
P 2.029346609771137 0.4710006860246161 2.0521677193619623 0.5218521806605078 -0.002749794830995264 -1.1821317841936996
Ni 4.682531475637114 6.293746839299405 4.295972111280696 -0.2422665662475376 0.31400394399183984 0.09788112601920562
