# total energy = -340871.3866392851 ev
CRYSTAL
PRIMVEC
9.21838716365005 0.00000000000000 0.00000000000000

0.00000000000000 9.21838716365005 0.00000000000000

0.00000000000000 0.00000000000000 13.49204142285675

PRIMCOORD
 96 1
Ni 3.0952854892922623 8.841686922587055 2.7869700801044415 -0.5667804086317658 -0.28796818204971053 0.5090899958988329
Ni 2.26098458385047 0.4828157894986465 7.327325320861862 0.9466791555442019 -2.4973850056661373 1.1541394127458315
Ni 7.455204630289838 3.858097802829817 3.5490274077391004 0.17736035249245585 0.9548017846513364 -0.8951709603625808
Ni 1.059773435343242 5.614560061094354 6.8696748062877 -1.3604573288129023 -2.992587444949601 0.8773976955395598
Ni 4.143849365930726 7.076070805939422 11.822172150058528 -2.0938295385667103 1.1829619934044788 -0.8678954124760795
Ni 8.325908946360881 6.564358138421149 3.085953716038277 0.8119926877711886 -0.4581505287364884 -0.5383607198384921
Ni 9.034203718631941 5.718405191694127 11.056417327360968 0.954679400140859 0.11162650062975615 -0.12036233784085722
Ni 3.538450230388885 6.442730739119471 3.179507439287708 1.5826271243105647 -1.1279645541226768 0.3417975691653404
Ni 3.7630009215810603 1.2704596723479284 1.1927090300915895 -0.5474773374277797 1.0557116701945366 -0.18268382158789828
Ni 4.812588039186818 6.451193218470611 5.437670274849089 -1.5471708403854838 0.05909706327247242 -0.22895827917440567
Ni 8.993098930585392 6.791222644773603 13.157114440120209 -0.09219847381213153 1.2393521992687493 -2.344596428975775
Ni 3.179357179578097 6.688806364173206 7.67378733767817 0.18216985806595723 -0.7754997350514773 -0.2154823561751579
Ni 0.9887457627936418 5.741027113619722 1.1347982005362562 -0.8765456319519098 0.03201949032939002 1.8850608469663017
Ni 9.103922380214373 7.4264893544959385 7.899400908902139 -1.0113945934447162 0.6591526890176003 -0.10765388913525331
Ni 4.1857284984930665 4.472106911916282 10.996404705548489 -0.40523851122880533 3.0057378662886296 1.9857017951188318
Ni 1.0254533801969523 8.746903466499452 0.6776159800264058 -0.10186916413267616 -0.5478594033575468 0.3100920105319434
Ni 7.269076176500225 0.8552238786261955 11.043478399237593 0.28560970911986294 0.16529545090812178 -0.22629050253425545
Ni 8.452219286305672 3.4507557139756018 8.718084944770112 1.4729058111233213 -1.2802155131420143 -0.3767697143651511
Ni 2.042324442010559 6.297578015957109 4.896963014408004 -0.5021505884665223 -1.0808151501303838 -1.142305396225381
Ni 5.042605233924991 2.9532393625801547 5.418794705437985 -1.016758171749475 -1.465153420871412 -0.6879030216774153
Ni 0.6993234379524016 4.544019549626786 3.499336613954368 0.5997908021195154 0.31691828942515743 0.2547158477544839
Ni 2.9078480245354785 2.576852617583377 10.649106581022869 -0.21537616961459682 -1.415202285764266 0.3566901700064567
Ni 1.2636011923509263 1.6319034118673668 9.102904670279333 -0.670826782921419 -1.1654280982857734 2.3848884437266022
Ni 7.433264869009105 7.580786717654303 10.438400985405286 -0.491442972241031 -0.8179815583647719 0.4099048063562231
P 1.3904461987470973 7.504790334461714 11.595316862093165 0.0829126776348314 0.44931981781873587 -0.17780412489809377
P 6.993787482749581 1.1075892091933102 5.638661534148336 -0.35134767474762074 0.5436433083936703 -0.5467409734823874
P 5.654484895593034 6.514726342313809 7.521799180486537 0.9701044764466776 -0.2441596695051924 -0.3709111987018451
P 1.4102472942223137 7.089732455610871 2.8189191660904767 -0.23682842595110176 0.28947587694348853 0.29387066357707453
P 1.4479228422703623 3.693992075804771 12.21307693288767 -0.36649687168423334 -1.4069001936564738 -0.301229675045307
P 4.948743616546662 2.4068286860447885 11.709310515043342 -0.7099877693915967 -0.8578624537201096 1.2049330983589313
P 0.7792164333690946 2.5914729795124707 7.419543299821554 -0.2515333362614442 0.45663794874670394 -2.8634162505678624
P 7.922162028472836 5.485456549860461 1.0506942458955975 -0.6559082139383736 0.7564491461779295 1.9345625532408555
Ni 3.027364413192917 2.521569950188185 3.4914705642481287 0.006087600954976613 -0.06885619954176528 -0.23061741204438346
Ni 5.156314038714002 5.743958560715216 13.210449262322703 0.24855985545541706 -1.5210337769787998 2.046322494124682
Ni 8.601474191724307 0.15357925080384074 6.782260528842037 -1.4082014289664004 0.5473549529173025 0.889418888370152
Ni 3.1146809757353977 0.5630461778829339 12.048271530282284 0.17651163133891537 0.7320750882089392 -0.7776769452084542
Ni 1.7096236334462998 3.125531017343559 5.398367681479171 -0.038273441658901834 0.81185513375206 0.8647784641136527
Ni 3.2948635698501914 8.306439712821003 5.410267697377195 0.519247396047809 1.6291658913020526 -0.4235864176083737
Ni 7.642725060530457 7.935390413950925 1.117566269543788 1.0767970301099263 -0.33072125674652075 1.9120250342599716
Ni 3.5127124936259406 3.4348632146277094 13.19177557558893 0.09094583235195305 -0.6484201330914446 -1.2620987489366455
Ni 0.7920401316538122 0.5112462171313813 11.35526637484325 -0.7873628050376504 -0.7034150012700853 0.16142336954722522
Ni 4.600454515408571 4.59561486218488 7.13472648117185 -1.196478796943991 0.545580377515383 0.6309446020145005
Ni 6.875303553446529 8.99591053864868 8.563978402224565 0.09512387498904264 0.8393294279129287 0.17801058448194504
Ni 6.397569860752113 8.202318030608449 5.943850988273008 1.0448626432951746 0.2465788204696463 -0.3571632529881333
Ni 7.071221934328639 9.10015205989344 3.5841743522076093 0.5062867221220829 -0.07959544033614033 0.24188218632492536
Ni 8.949357683830318 2.8544643448813924 11.054286036265125 0.40887687931234096 -0.03815131425874074 0.419989958506367
Ni 7.124246096886108 5.148524501620631 9.386251156187747 -3.6394440902086678 1.4096738997468692 0.37697231729426045
Ni 1.297958121045587 1.7809923863183315 0.029027779116344687 0.2261614331555589 1.4434918767375786 0.21385304810185105
Ni 2.882349965836946 7.114465388180706 1.110238573643765 0.6512892271091235 -0.4763626808691409 -2.0141898752561955
Ni 5.599635492391201 8.70968883780604 1.473155411420624 -1.8305025521044476 -1.1960275683391854 2.764026401213614
Ni 5.8319480655154665 3.3412044017654203 0.48903082607657516 0.1425913244423867 -0.29933502912575544 0.46374216389165296
Ni 8.726042256508569 7.416441312564846 5.239404892613167 0.4473616656511005 -0.3602051251382506 1.3389881031955326
Ni 6.498953681998123 3.2497580018053904 7.26430381750231 0.7819771152457049 0.33812886206450155 -0.2312059375580018
Ni 8.856860387741714 3.4899983878294174 1.4397765535965035 0.341838706815921 1.3624141954289568 0.6963478100106587
Ni 2.381929822507284 6.155061751503271 10.05807430176507 0.178402420603725 1.1238718721105418 1.4235136338434387
Ni 6.543893319075255 3.573977894244324 10.983345016554198 0.7631844080192339 -1.292409484105045 0.15457857871124991
P 3.973641066650283 8.610406808817176 -0.0013892109348766694 1.0570746119803343 -0.7359587395340615 0.5114965484577966
P 3.4151819581846987 1.3258806155495115 5.75660895332259 0.6036333157940572 0.539524144018974 -1.82055778218691
P 1.5353961173934196 1.1865262578684854 2.397791901177771 0.1682175096509232 0.47962052568480623 -1.2047461791591056
P 6.81586339347251 1.9922962552582322 8.895127756241116 -0.2464937169550077 -0.6417920862519657 1.5013944054813175
P 3.4295073317268248 4.490608214811422 4.643380856744647 -0.3929555800963942 0.2549367055160383 0.6908561907684682
P 6.157366348276457 5.847619323573133 11.353174722811906 0.18242156906544713 0.4603907309209168 -1.4237751150349416
P 3.1324908995985816 4.555192234783194 8.809898236536434 1.2683527002661574 0.1307627072385748 -0.6696877842209693
P 8.83837752162076 9.0010912721948 9.521927377418764 0.8294844167980489 0.7397508595866421 -0.04073167339140727
Ni 5.061622766497324 4.357393302934164 3.2256095149772355 -0.3829041093976632 -1.536691538120715 0.436749437352893
Ni 1.3517289729575683 4.222657357186604 9.867917412815926 -1.3750604234380577 -1.8206845375727614 -0.27797507539274063
Ni 7.985722807477313 2.3528273744554884 13.208438732097774 -0.6853995385292712 -0.8770775931959798 -1.6306519889292757
Ni 4.95901289976798 8.903367150624613 10.450247534658173 0.8053656693729744 -0.2069043846981598 -0.16178460954138588
Ni 3.1751351582896192 2.6082688807954524 7.5775759534299 -2.124830100713283 2.3162875547287527 0.5547928972525865
Ni 6.25033378210679 4.8273466769223035 5.50920495868879 1.4200704124898447 -0.3249581290104984 -1.9023869969495752
Ni 0.98454217827935 0.8129114818704961 5.553122276637337 0.9206778463844337 1.0335832137266134 -2.1961812987627596
Ni 2.060632158776751 3.855037298315026 1.4625376731672002 0.9455105891573976 -1.4068960798914156 0.5106372857812947
Ni 4.863538064648421 0.9687326444152924 3.86799281953517 0.5189985132617965 -0.046283199337255776 0.02159006746594991
Ni 4.9840039471764115 1.4583580564593497 7.6367248123717895 1.6956011401071507 -0.39451418283276574 -0.0407085334629557
Ni 6.050488368323172 6.21295322244571 2.4541890715724755 0.11885695693992433 1.1995206690941085 -1.0916078698705136
Ni 1.748331640848736 8.110290872261576 9.172200207894207 0.3286196370224857 2.0213167161089642 0.5670989683134491
Ni 7.689305570510097 5.600566549487568 7.026871352186733 0.48467248628641696 0.4142844234811575 0.7992680411156686
Ni 2.127419373263688 5.675143301067874 12.54376628938829 0.4122445102329933 0.01593852560712739 0.058836610522234156
Ni 8.406560615035307 3.105029324449294 5.64184556505017 -0.13134943297998025 -0.8600702600047059 1.5745867705045915
Ni 4.895940695279418 3.2624056288966363 9.371679651710243 0.9783374058794311 -1.394891856341688 -2.5609249352013124
Ni 0.3442975395269325 8.933999850933803 3.62844196886568 0.07056829713686555 -0.7244525386666749 -1.366345155052247
Ni 7.626887871505121 4.69589247697976 12.631114194446889 0.03509915769597826 0.294165569109674 0.532995855982153
Ni 5.898246705486489 0.847749610371398 13.30622922605503 -0.38171420285462 2.2852957343329288 -2.139020276170735
Ni 8.509926389506257 1.1799074559358946 1.6487278901503357 -0.6551134859512201 -1.337718749564806 0.06888448167653943
Ni 4.836675684660161 8.490650742095326 7.592363168165372 -2.048381947756872 -1.2669547914773664 0.8762784943334521
Ni 0.010381747543849403 2.2025861016179307 3.6174186215801756 0.8019916106944188 -0.5052914480883491 0.039812246900931436
Ni 4.6344703637808005 6.434351225252167 9.46248168641249 2.060032644621923 -0.01581048466969535 0.452897250757349
Ni 6.275960898224621 7.750856741128356 12.718852959118216 0.17953422021532306 0.40206062772145595 -0.8825049348591381
P 3.4341994907570315 0.610609367926661 9.372381170968001 -1.02659418400329 0.5188321628872613 -0.7799030063254955
P 4.1471864220583 4.776018697589899 1.3114916351364458 -1.0033218437389109 0.2769664316225682 0.7779114298167634
P 6.2106486256725235 2.4649413982774533 2.554812375883333 -0.6029979962029034 -1.6031856651882068 -0.3402505363931947
P 9.02660776766752 5.588260002718752 8.922152379842208 2.0345262728207025 0.001486097627223247 -0.7106086908050472
P 8.444568025018695 5.184190441282461 4.997290408493185 0.40875218080901865 1.3433137271540803 0.2643456575347641
P 8.03098508810269 0.08963314321888734 13.04839647010321 0.7546555446126165 0.6271134011938684 -0.1804654737803408
P 1.6360240308978238 7.5314314731597465 6.536718648400972 -1.0970634936684462 3.141324220168093 0.5822754189435714
P 5.144855583557719 7.923701499117325 3.855850360056606 0.2698241641508321 0.33160520201337085 -0.5904790378002862
