# total energy = -381159.344337411 ev
CRYSTAL
PRIMVEC
9.30010263981958 0.00000000000000 0.00000000000000

0.00000000000000 9.30010263981958 0.00000000000000

0.00000000000000 0.00000000000000 13.61164028216575

PRIMCOORD
 96 1
Ni 5.937557527731598 0.8116859878823122 5.99954829187051 1.3956259062942353 -0.06389551310238029 -2.7829702893059682
Ni 1.9746628926612788 1.063792240162864 2.4063745870931026 -0.45155796312063523 2.0903107267801744 0.2517292543223342
Ni 7.236977168312054 8.057525223997411 5.838590485517207 0.7152101941328005 1.3542596846426227 0.9129915334837696
Ni 3.7348375181994546 7.275284291074923 8.080849881411655 1.7786593421809112 0.5152429028741061 -0.2848118958089159
Ni 4.331625104432361 1.577325307587028 9.084081713221217 -0.40026214106013647 -0.7844042366299587 0.7995099819231457
Ni 5.481685096658439 2.23774419606406 0.6344604419959147 1.1083655489448265 0.5733300368248255 0.6152855553210048
Ni 0.7619890294195917 0.24235416465512188 9.127625723779127 0.011332651403999838 0.25489608208609005 1.9404092418296195
Ni 4.916285356826281 8.098417775293438 6.229353828037179 -1.1677857998846726 -0.6152282197205082 0.07564699721135358
Ni 0.7207430742233482 1.0218022767556396 0.11778858993167565 0.4564643992833171 -0.40828783957809045 0.9750394518544498
Ni 3.5919228409726967 7.394269804216013 12.77328548780017 0.1326360130018877 1.0885603412934415 -0.3636642873314447
Ni 0.0777190977190455 8.033549559398557 5.099165365116133 0.35630887540763795 -0.4116863237366781 -0.34699813952967334
Ni 2.2745447021996936 0.4015802918973685 5.1279408126860755 -1.3758016724794566 1.3171324407730218 1.179324910872524
Ni 1.7635598628981382 3.819208049324668 2.7753180288055384 0.11013526079621033 1.077558590866299 -0.6989376822250221
Ni 6.512350371227386 4.469257323361156 12.556234112390237 0.4989534216854632 1.4190198597381432 -0.16993449234202992
Ni 7.485996716527299 5.022994734486191 9.433955294475954 0.7551515104124285 -3.028497271472333 -0.4782231311166473
Ni 4.954787781744534 0.3104430060932858 13.124520604081 -0.7923864835044869 -0.5339332801947578 -0.2896972489256753
Ni 4.863358472717641 7.507089349308602 1.8437509278981672 0.017048727952170637 0.7620420668846747 0.11568164453573627
Ni 6.463078427455188 8.200244599068785 3.67126387659168 -0.08985568461156783 -0.7109439626572789 -0.5385682078636079
Ni 6.0044438658987636 5.295627243297437 2.0700447453090067 3.253465712761055 -0.6609627456431455 0.39852201844057816
Ni 2.5992391855743144 6.265014141589485 2.114309513821304 0.3473095001225051 -0.29255245898628324 0.5434422481264577
Ni 3.2984860025619027 5.530315333348666 9.344554337834246 -1.7405352816156796 -0.9459137381330872 1.947578505884549
Ni 5.0540756774999105 6.161187795747126 3.9119719230800074 -1.0507625537193774 0.11975684304637439 0.8023207118990634
Ni 9.47103852373176 2.6046518453091996 1.6163141278732087 -0.30760009734802507 -0.5313148687353043 0.28371197787651786
Ni 7.6505434324883215 3.7420078973327815 0.7168342410849082 -1.3970132735600649 -0.925330771775413 1.6803588692360993
P 0.9448904279455083 2.3374412963354754 9.856910012264533 0.00545562379793254 -0.33016487002241846 -0.9387904968247445
Ni 4.078662312698918 0.5104305531843746 1.926714353494363 2.5186408297211202 1.3230210383433152 0.5339523063581515
P 3.956263661889953 1.307845533569813 11.376921577328925 0.16888265403874783 -0.429429506652712 -0.3221463705933162
Ni 6.077440371498609 6.6108291580533205 8.932353328725128 -1.6923949744650273 0.9991085769885115 -1.475052168042363
P 2.4459083933938266 8.8498009676655 7.73505997522494 -0.5364771296625341 2.5601091241682363 -0.7860762250157429
P 7.639104306244493 1.4100071610401024 0.6254030720374881 0.7807365579703844 1.4768845932654113 -0.3362720113614209
P 2.836596405082437 5.687989273460754 4.290416349646667 -0.7336072085827495 -0.20918829563633004 -1.4033818960905702
Ni 3.9247456140522825 5.641637561916655 6.033808939975909 -0.12812526961572773 -1.0935871050840713 1.6353851327388869
Ni 2.042590842323818 8.029308712595967 10.401144578514817 0.5675306565342291 -1.0593667504486208 0.48963445827738256
Ni 6.627113637771162 6.423218187551896 11.169821311740861 0.642110645933649 1.0358630108997258 0.8375332552444542
Ni 1.7485959977547885 4.8810379678310705 11.353890803158016 -0.3786574183061672 1.0008900943689665 -0.8738112637398822
Ni 0.3442656193644691 4.061605924462185 13.3326429509489 1.4532006193849103 -0.29032099855260324 -0.5588151310381021
Ni 5.586227550403866 8.866299349743995 8.427443316466231 0.5316228868940263 0.8496117836755432 -0.5517898487602045
Ni 9.34037208167827 5.401295009461973 5.838331942663891 -0.1557610290551253 1.7722143578865155 -1.8365348743414562
Ni 7.399635963437713 6.097500692887177 4.580480040830927 2.0869266407992897 -0.7797716229539539 -2.8067151983313923
Ni 1.1591368924000425 6.3538580220832195 13.144257281897792 1.892835091595082 0.10796807794156243 0.7962194840973319
Ni 6.893133773607316 1.0144458955695679 3.1827964457954563 -0.8099355481318438 2.3457804219815475 -0.011433438647922244
Ni 7.957177116541385 2.572194487105166 12.006977490715833 -0.1828882242892205 0.2670211474843982 0.1447857609905442
Ni 5.366810228883016 8.85620873838257 10.733663238238163 0.2717566052868545 0.4452649310230719 1.0386544576019339
Ni 4.152477227330842 3.189163296060924 2.490113641249246 0.7658935794202809 -0.2723690420598729 0.4223499740981113
Ni 6.175556454321692 6.266530058319358 6.302638636818779 -2.0659533809817323 -3.327464375735708 2.0116961623000646
Ni 9.00074163346821 7.68291708976862 11.942145545221239 1.0356917754291841 0.10432071099696226 -1.1187417499728283
Ni 0.46656754910600645 4.7713153569166895 8.093086956461761 0.3276593299917454 -0.880649112597322 0.27690241115385217
Ni 2.0576477084935405 8.292706219488414 3.3382002308537895 -1.6313024780290808 -1.1466207357712832 0.8573587746108138
Ni 0.38465317508729346 0.9914839421581755 11.565048703526719 -0.9758802025881903 -2.3761592913837206 -2.1857991841974873
Ni 0.8493216432347717 6.21915533548516 3.45355870396635 -0.49896422031874066 1.0531289970690252 4.640748389296917
Ni 1.8146081262740525 2.1298072048560326 7.276796487763741 1.0758981724447405 -0.32436677528340263 2.0403320808692023
Ni 6.345692531967706 1.871906058622205 7.85987851274012 0.7701837221552026 0.7083376353826834 -0.027825506852700466
Ni 0.08553490397539792 5.37534772310402 1.7533697404384938 -1.212898375952595 -1.414064829725713 -1.3756759455348697
Ni 0.08289553484694384 6.007233896689941 10.038911160855164 2.136200547333753 3.9339989243369606 -1.8927121928639725
Ni 7.233424529104621 8.795776671445662 12.647445799015419 -0.07292522740481634 1.3086164328822107 -1.9605934300869785
Ni 7.563847875703794 0.828287601100083 10.302160796115679 0.20985369713447086 1.4323345745691785 0.004854242768507769
P 1.7738736767228582 8.69382894633603 12.509860080599811 -0.8517020905456686 -0.6791720695623207 0.7310466469444249
Ni 2.2654678020257286 7.392474884407023 5.663109638885558 0.3733622313454989 -0.3254594941269492 0.15109807636181719
P 4.775816606593122 1.7594771178403814 4.339867785399764 0.30852543737577187 0.05666942766758627 -0.9136857313373168
Ni 2.5898553820133206 8.35032965542887 1.252951677753392 -0.8184536129051839 0.18877707896982973 -3.507291958821734
P 7.6748632008847535 8.937584636458586 7.761955872051892 0.46657294847222874 0.42856484465957156 0.4619609036215141
P 7.046855170098569 4.145111546042133 7.400349281309991 -2.8676243751119386 1.6488808532324761 2.2389248603778733
P 4.280893044546113 7.052937437223337 10.4687535346569 0.0660531828753314 -0.21184630208446742 0.7153495479241422
Ni 9.350323191500138 8.111158915906483 0.800120380242617 -0.22265007756819072 -0.139892694564301 0.5414229037035837
Ni 8.51963802394017 3.2608391870862783 3.618286771928798 1.5428809547608784 0.011870269075024718 -0.22471647317891624
Ni 2.731821448771078 2.7241209637874277 4.4916370903474565 2.105936863353205 -1.332838281544053 -0.24227556510860215
Ni 6.107479703016956 6.845135943896423 13.349493806917348 -1.9381788098372041 0.42872605282778414 1.1793840462452332
Ni 8.683450031792848 2.721182131354054 8.166412685694965 0.28105371431806436 -1.5104719423025537 2.5024809321318067
Ni 3.9725016410946075 1.046521949565474 6.877961586164893 -2.047609588367222 -0.6590125638953103 0.47752404816709376
Ni 5.011750910397745 3.0527679907828844 11.975466882960275 -0.7430467567290945 -1.0746529871837298 0.8768875886723607
Ni 6.51434059319176 3.8719861317911124 4.116840164035129 -2.188008790254296 0.07777535640826605 0.1882695432057919
Ni 7.811993214271137 8.07897126067893 9.852976068848973 0.5406526011964624 -1.8292884771916884 -1.2635930740939851
Ni 3.0273973107884418 2.7248370716904966 0.3081031002697514 -0.2159119875134088 -0.5809371597481221 0.37190955805937237
Ni 1.4428458234522636 7.011040474842485 7.938295118156959 -1.6028447369090202 -0.9796792646193062 0.3587658215885628
Ni 1.6595010144898479 2.741837659311406 11.917018527915893 1.0885883663178992 -0.7177789833012413 0.2768358195819748
Ni 6.794013279699411 8.89122362481185 1.1883968753173866 -0.9782705571972379 -0.6469569182823568 1.510776875137482
Ni 3.3703757959479144 3.250627674390568 10.36100347551188 -1.0751265843860387 0.4052711642389536 -0.46283482158603517
Ni 8.191400201460752 0.8245080393883012 5.348721529253548 0.17342065111841748 1.0977515208744062 -1.4039958755254853
Ni 3.8295404633546624 5.212428525104518 12.196601003427961 1.0464451572909463 -0.8322151854656505 -0.48166455269802855
Ni -0.10444573267800025 0.13480498772706834 3.0001145296917793 -0.595936975591064 0.01738194292187329 0.17812268457977712
Ni 4.909570682722181 3.14947975810774 6.139789189589057 0.48865589641419704 0.16735207632683435 -1.16734099903777
Ni 1.4083238424627587 3.7224869818971746 5.87824147311116 -0.2583634718094002 1.304585457345947 -0.04271193704622967
Ni 5.330874632292648 4.728674386324856 10.223730240544882 -0.21147991988398418 0.6368699663599999 2.084177103078611
Ni 0.34365553263146487 0.45639509684137264 7.043628964493704 -0.6595465820219093 -1.0363386649845636 -1.9817371540441286
Ni 6.242247490333474 2.62768819954169 9.972391246731906 0.32403767407875805 0.8546508887613475 0.9875774364204604
Ni 4.644703759613046 3.9699720131772724 8.286249158227365 -0.08922165057199473 -0.8902005037311831 -1.4424372102208192
Ni 8.165294813357967 6.304204774102894 7.444083943971965 -0.3522606734801933 1.558062547597323 1.5120022629041507
Ni 4.296889221082199 5.517118487706395 0.89288518400822 0.8534717808515817 -0.7309067789324509 -2.29180808153015
P 2.436301387369538 4.7469118875965215 0.5717340397383943 -2.013352466956565 -0.8507284137784896 -0.4849139128732617
Ni 8.163006988109201 5.975539146902163 -0.026741515123174357 -0.40392827705781403 0.8882598350650444 -1.15493182674014
P 2.4925763084275916 4.714454529392488 7.564314740856185 1.0243100159548035 -0.015189563256244808 -0.7211563844139064
Ni 8.204597047103023 3.332394176777349 6.0826205286675625 1.2953706236158982 -1.3148680702188775 -3.6105988838422007
P 7.837559196420962 7.236967868209416 2.1909293394086258 0.29585272700410986 -1.0549632220642862 0.5008141290432858
P 8.769708483753424 4.808934272084401 11.404730744234858 -2.1637545456926217 -1.9685587076806421 3.124746261204754
P 0.6436889338428667 1.9730167744944842 4.693524648407337 0.09291735425602708 -0.4332002865490539 -0.32271689838480555
Ni 4.054491345944682 8.572909011846388 4.236636646126189 1.6007492878325722 0.5935983001555584 -1.0856547376108723
