# total energy = -381167.428145259 ev
CRYSTAL
PRIMVEC
9.28464744717687 0.00000000000000 0.00000000000000
0.00000000000000 9.28464744717687 0.00000000000000
0.00000000000000 0.00000000000000 13.58902004548598
PRIMCOORD
 96 1
Ni 1.580107732696227 8.824871744120278 1.6831357520083692 -0.38587167666641936 -0.9093228263829307 0.20541623018840754
Ni 8.341253025780349 2.88350511631618 3.113340065621243 2.8651823413293496 0.23110566453471165 1.5526478043396552
Ni 2.4625763378132794 5.150221815376179 11.457487116023511 1.082891315933122 0.7975919389648264 -1.0831363420643927
Ni 0.22980709536260024 6.104581445990584 10.586281716773803 -0.5242834158098196 0.8407592183809197 -0.7116808408233034
Ni 5.537883701930609 1.8121867812990702 12.77427667517974 1.5741843928598502 -1.4340862671529626 0.44810008647902183
Ni 7.044327041459331 5.7177830316525124 7.175682520256482 -0.3312992407371778 0.09217456255273157 -0.25510485566278646
Ni 5.017312086589586 0.46831761928018145 1.0815741566320363 0.10863399366033549 0.3980149968971726 -0.474423554864899
Ni 4.296925572665518 7.311260656731044 10.746251550663331 -1.039366910287926 -0.3930383696181876 0.492778660333319
Ni 8.84235473533964 -0.05195874427073258 6.645955314027825 0.594651424010421 2.1824801471265833 -0.9232412362362359
Ni 0.5535348993166463 6.883953325404086 8.098920012492076 -0.7853514310345765 -1.2403204767192897 0.8344487027818597
Ni 6.2107235360701045 3.914481657999182 11.9932344876832 -0.6464025884407835 0.34626948889376497 1.9186181140964567
Ni 8.940252058450072 4.423076078081057 1.3930239427483324 -0.6339977870185275 -0.4776742005917128 1.7482365069146795
Ni 4.285459033018193 4.977369533097449 8.37438343341075 2.153089352669292 -0.7669503028195696 0.6524927604989215
Ni 8.206059273711778 8.68776535466924 4.048726519094509 0.19088255534860674 0.40022203185082045 1.7499414054209284
Ni 2.0401991543022957 7.02862670255761 6.215101247360562 0.10996042578124288 1.712600759988941 -1.2556064563440827
Ni 5.181427515582379 8.816756962216019 12.469244437406951 -0.06430508983597313 -1.201401431056589 -0.0532791710391147
Ni 1.9600355078933922 7.594395981868814 11.026660903298712 -0.18301883632981383 0.8945441254118593 0.37427831540186507
Ni 4.5261728037846085 5.847600972825698 13.008510690464481 -0.7563123634897491 -0.07776430066467253 -0.30311635054505864
Ni 3.716635104683532 2.784382219737369 12.390142026205892 -2.0262375504493493 2.241812466338313 0.8113406560094866
Ni 1.0085912565901292 1.2138191046585098 12.822490921118678 -0.005988870593583234 -0.22940128024909523 -1.5434548249864775
Ni 6.613250143252361 3.5372649998684285 9.76994858417647 -0.3706548597166649 1.454785961594159 -2.300984862933411
Ni 7.444588194654585 0.1805074741323483 13.19996662091434 -0.5801100358611364 0.43217518771864927 1.3504778490026872
Ni 5.630925154404969 3.6254784356491783 0.820738697830252 -1.8989543171189425 0.6707979865660125 -0.7884087298036615
Ni 7.435684217713869 3.3067550566910087 5.6435875566487095 0.8436288266192309 0.8833019768391368 -0.7241116103874884
P 5.415484194100105 0.7776820735707375 10.588061583697197 2.765911534051469 -1.6200749847443776 1.5262034941051974
Ni 8.743649647897776 9.408040452823455 11.350351568662806 0.7282369454097717 -0.7628079985164218 -0.8757120803070209
P 3.211383157697233 0.34488751557854125 3.635321090450901 0.014892343730800157 -0.07451622604102005 -0.28095652661856774
Ni 4.4873444079909985 5.662576517690578 1.956506413383313 -2.066756850719634 -2.030834168681096 -0.29885808948933695
P 2.1809729795109813 6.924750066465092 0.4001683067203771 -0.5436793038379282 -0.02581618973215554 -0.5720226308673115
P 4.747500230596682 4.90339874656285 4.064883662652625 -0.2402009419677605 0.741206361086246 -0.10617241949372037
P 7.787869466217752 6.580076097778767 9.072083839663344 -0.13713518642382191 0.4269687038170453 0.48644654746770416
Ni 3.75458145896581 7.871533424729523 1.69906263630879 0.23454477212324765 -0.02687085624891501 0.1674631479834019
Ni 9.197371801327275 7.026398387160559 1.763881545814752 -0.6330619054678194 -1.7851017553721449 0.9272845530676741
Ni 6.209340123594436 5.933948194461417 10.99684697175092 0.10047665466052372 -0.5768277655654389 -1.346430675516507
Ni 9.3190006834163 1.9167597659531677 1.1796664573397109 -2.2082906804317837 0.6938710663353921 -2.102105662532573
Ni 9.036032481933308 2.02975392587862 9.720456770743223 1.0679676047437543 0.3229788937969405 -0.8400321104069082
Ni 3.0093770823070884 7.102941021049255 8.761901407929122 -1.0489059601266129 -0.8962364255126177 0.7122588248139604
Ni 8.502555206584365 4.189149384628159 8.219495087091245 0.3557085228194777 -0.1556270745804223 0.3944499052537336
Ni 1.462146286364849 9.010239731212444 8.095441055078432 0.7998887054188031 0.6801272343867383 -0.2899438177188426
Ni 4.238144469420814 7.359011598760345 4.061867080683867 -1.6277726104989514 -0.878057954831378 0.0839146365367845
Ni -0.17529414456799813 5.677645500563134 13.241385433357022 1.011600538807935 1.3850494163299694 -1.9761822856641709
Ni 1.9937944861587122 5.990890937503554 2.3756191148376176 0.2783327158424755 -0.3782648108534389 0.032686177379111454
Ni 6.3388238174580644 7.689201517365839 5.008899267500969 0.7453849179439679 -0.3125859805983907 0.36473489468780407
Ni 5.434721983694644 7.086544333585956 8.512936370940375 0.33761901230761854 -0.10730833287037649 1.4620662973056562
Ni 6.421503603336137 8.147510286654267 10.418212884880742 1.3970279288480842 1.4158016099111614 -0.9650291188062995
Ni 4.715551758591466 9.512678430009966 5.467583136547902 -1.046488866044688 -1.8792974621199634 0.3598228020981674
Ni 4.737853481856949 6.686960959657305 6.409288721101304 -0.8620790629046184 -0.1763527371635479 -0.8924131951117856
Ni 4.5275840702027415 2.3195370586175916 7.68309593317792 -0.18526649471340997 0.40315257523405407 -1.1696457359115469
Ni 1.1206105285293715 7.896871227723488 3.986665149892397 0.7025631947927513 -0.18679527265311058 0.1848065243578559
Ni 6.735491812075574 5.5479111212173375 0.27182291063874225 0.5417581755558153 1.1125556757667743 -0.4846408617175331
Ni 7.283323152440519 2.0423996157568833 11.181277209446826 0.25351591390911177 -2.4160242458994587 1.6518898152621293
Ni 2.7718386609814707 8.85955918713437 13.185575417308387 0.49172373670624353 -0.12142008968141024 -0.423359132088916
Ni 0.7171749543580687 1.1153368487563513 3.0878054281005385 1.0097154059700804 -0.5182724337290493 3.060260937037175
Ni 6.43577410652475 3.8377347618657565 3.05443083424121 -2.3473711635074346 0.5100744712992893 0.3978177932847019
Ni 1.0902125926546031 2.9407913913153614 5.012214815118831 -0.1677703948111756 0.35817395364083476 -0.4149986759393627
Ni 0.5487263803827604 2.109834010460134 7.268671978704909 -1.2179662773938056 0.2778154098864248 -0.7498684076366182
P 6.292270594954677 7.875423692026874 1.0530322217900616 0.6822980167858119 -0.2712063892103394 -1.6712931594894056
Ni 8.587834693758998 4.1989168337852325 11.282990522674707 0.2058252927013681 -1.0789824677970192 -0.4475727532206421
P 1.3592538229060271 0.2776165306710744 10.194877188817076 -1.0023152568512674 0.6643982536872557 0.028513276948344442
Ni 2.452084686152165 5.212549653961189 7.351035158103652 -1.889591902067436 -1.8413952877575512 -0.9065329223426195
P 6.652765602960063 3.2246044957197344 7.627666587676281 -0.8977461772889248 -0.3137038962529178 -0.37671263587497056
P 0.10097611221735807 5.893151453400412 3.71078113444253 -0.14654619532507662 0.18905861476599053 -0.36889391116150017
P 2.6011868401573284 3.0294690594704967 6.837342538086275 -0.305782327412996 0.49299874676392513 -1.1029585189966424
Ni 8.849652468264981 7.186131462539152 5.948811058159746 -0.9865646788852298 -0.5062139599026184 -1.0832394433011603
Ni 8.295897522802877 9.05853846744352 9.00852857068046 0.7758434915441412 -0.968483910124119 -0.12706777488549084
Ni 4.202082898578541 9.323643007160156 8.957637560870813 -0.47009870223730005 -0.15597288795561526 -0.9594819637358251
Ni 1.54418543156627 3.2679359455448855 2.445982815823241 0.6093540203279184 2.0499680612970694 0.8123644692883105
Ni 8.324837769022073 9.090979025765586 1.9205906115065976 -1.1803158140308834 0.7544115469226104 -1.843386092935335
Ni 1.7272044028440443 2.8653814844201664 11.009484305446444 -0.0035373237292971337 -1.3996748795526281 -0.8655819338515544
Ni 2.3618193432766317 4.974157045066701 4.642647778053203 1.5125514505394015 0.25927004278406957 -0.2572694674142731
Ni 5.861100850272831 8.547335061417598 2.987437460293626 0.3618999963421703 0.7870928392057155 0.061442423576197405
Ni 6.477545735571966 6.176686018380154 2.5280201040951646 2.315288424040277 1.300767112041121 0.7086142860828377
Ni 0.3093375288128417 5.105822631089942 5.662965544420313 -0.7206491057601848 -1.1159130222747815 0.9787166435957209
Ni 6.723551755406376 1.3322076447743227 3.657973773391421 -0.9048439646759707 -0.19918876122145696 1.729992730213143
Ni 5.1035850310454025 4.274772403759838 6.0944444678635 0.09096100186060464 -0.2245807189320003 0.5350483676358075
Ni 2.2549623353405566 1.6268837867393187 1.0971667936228993 1.5312366856537307 -0.3796637480834945 -1.2227675554371908
Ni 7.097416655794067 5.525163734872444 4.7247667712230195 0.5653336488829103 -0.1210033138589658 0.022750663432954368
Ni 6.351868747178299 1.0424059427403753 8.439570014957226 0.693072995914129 0.2447618218655656 2.358539007198796
Ni 2.0375623144157857 0.9081842932637678 5.487925799193478 0.5297439247037585 -1.2466723870792464 0.31158093637264406
Ni 3.299095222513646 0.7005498645665721 11.045033363747393 -1.8222611380312614 -0.9932138087706314 1.7640097105885362
Ni 0.1956535195790525 8.145272686609728 13.362559367719149 0.9715833749850494 0.42764387550719896 -0.8328538474909142
Ni 4.391053328895939 2.4241193279191773 10.136865782849103 -0.7194630558718835 2.891667017883439 -1.4897568212423893
Ni 6.6424782135436775 1.227281843515692 6.28320970747142 0.48241171527669824 -0.07759255097349864 -1.4790877715643171
Ni 6.901315616206106 2.011314615968024 1.5641502090590969 0.2625911367375026 -1.1811874180025592 -2.03735165808464
Ni 2.2482681045019164 2.0678674038156766 8.714597985908727 0.8290205897877528 -0.73144079705905 1.8135481836382958
Ni 1.2981051345519574 4.284149897722426 9.264450594031747 0.2101437175710639 0.5459555014666145 -0.1971341926852734
Ni 4.081493897008142 2.299677197641376 2.2402313136365533 1.1033017612686742 -0.37082918051100006 1.6668088984658067
Ni 4.7226359446245905 2.3013484341891646 4.651331708848461 -0.2851150288716316 1.211737265764958 -0.38699936251295936
P 4.4626101070837345 4.571259051984937 10.442727139642546 -0.03857400361845615 0.8682764499645821 1.6451350130367992
Ni 1.4730743164578854 3.8716794330808306 12.973315377232813 -0.8661084957789859 -0.7156521667662256 2.6233772880992623
P 8.260764416709376 3.301936324644886 13.188497295872768 -0.14882367850534367 -0.018773423952761218 0.4199480495248381
Ni 6.877305517802884 8.241331649517594 7.141872476429979 -0.263803668988365 -0.07011501164953086 0.5919612787727676
P 3.5144804749335834 8.358596747287393 7.147362488489463 0.18487774391542353 0.7920753800219714 -1.4699906943590555
P 8.60827948752694 1.5124505064532712 4.913272969166031 0.44388656261830645 -0.7161859277825086 0.5990115007513297
P 3.2652805363634 3.7471908795655917 0.8422911500434773 -0.014200716980414254 0.6559776337237283 -0.12215028297921543
Ni 7.606855978797323 7.240047410500295 12.212071772039067 0.5100420753994571 0.3142253159740266 0.8307568557525692
