# total energy = -340868.3259734414 ev
CRYSTAL
PRIMVEC
9.20875685181069 0.00000000000000 0.00000000000000

0.00000000000000 9.20875685181069 0.00000000000000

0.00000000000000 0.00000000000000 13.47794648803176

PRIMCOORD
 96 1
Ni 4.072241089666432 6.655168392456888 1.915378090963869 -0.5728988628246778 -2.050790814308681 -1.183702214004613
Ni 6.871703095072401 7.274650657475522 7.772960419691743 -1.62682233077054 -0.04599395023161112 0.5368625380264109
Ni 3.4992538367046873 4.439698104145755 9.953207214020383 0.6613057308048611 0.41763534223126136 0.9052607404984151
Ni 4.091036161880358 0.8247611044459644 4.6304427630364655 1.2473802117795487 -1.6249009453781111 0.21072144445140484
Ni 6.7563357924285645 1.087655450396396 7.714789625145858 1.0283085955912354 -0.11722507776345618 1.981545092637981
Ni 1.562808873274479 3.3474290666943975 5.585759172381252 -0.4170858974856946 1.817180895294877 -0.0921251973720349
Ni 5.006828587911979 9.446618779623702 12.039768723112187 1.3062443331056084 -0.3143947516723553 0.17950079587422635
Ni 4.700793979932845 2.3239954848035973 10.785578434917884 -0.6595638084130899 -0.8945081299676014 -0.2535760777230859
Ni 2.4412045387667787 8.176620739855451 3.909453294927734 -0.4999494670501455 -1.2496762069025769 1.0440805137135116
Ni 9.345690807323539 5.48503010922358 12.98870991026506 -1.2805610694068914 -0.4821350645765438 -2.4952646168890253
Ni 8.846115761950928 3.8131527228174282 3.088511982718093 -0.06989415388797639 1.1310388221726264 -0.1884631472738367
Ni 5.6777601760365455 7.942819618621069 0.491845215085316 0.7849549669271062 -2.089298483465576 -1.280850318512536
Ni 1.9219043367639717 8.322266434189336 7.5366379409011754 -0.5944642477002794 -0.3239901086702743 -0.5212284310335797
Ni 4.6034666314620045 7.3437071231944016 4.069544765734909 1.4695914020381078 -0.2339819576412422 1.7102782825033511
Ni 6.312317175604027 4.107096233385055 10.21788713787492 -0.783940666729979 1.4357456571332563 0.8502435037222712
Ni 7.082942762644794 1.7378857536915129 10.165120962575656 -1.3965232212975238 -0.3503647420090611 -0.3127932115131903
Ni 1.461659890815995 8.618981780492579 1.8668433393208028 -0.542393238036653 -0.31724507663695684 -1.0503272659541718
Ni 7.083025641454165 2.262711209652358 3.7628535734104287 0.6471829182502338 0.34908896062043104 -4.128954364203359
Ni 8.550358126333744 3.2986226567317276 0.27177066643401987 0.43210268260950097 0.29835955258636354 0.3595937168064969
Ni 6.242984447187245 1.861863243753291 5.631099406360913 -1.2029818881698313 0.04153282913646396 1.7167291803350178
Ni 4.555820524830522 8.80335950507231 2.215302688941072 -0.5467985661932002 3.296558687295787 1.2918582395872653
Ni 0.3638213973749346 7.778157841914937 5.2736237631567855 1.7867999690101741 0.9354897145862857 0.5655946158537808
Ni 4.800819494086529 3.966266718751261 12.621220665137647 0.5751061548886418 2.595559751666362 0.04927982007173449
Ni 2.9138439710939545 6.031422473133968 5.060631669204034 0.07680862161962256 -0.9340984906657138 0.9319768163370208
P 1.10997747638687 8.059531399728026 13.222444728451944 -0.849885349051904 0.6345888836353071 -0.5467957379797228
P 1.0789715929256796 4.1321164250583715 1.4514133073508133 -0.9013511210313638 0.7029167214774281 -1.2417273843691454
P 1.658874622091568 3.8036400772530063 8.113305933874633 0.30122916082467477 0.5765233469511425 -0.09047789157659901
P 7.045205278111394 9.111898894845753 12.581622090896047 0.7862361476323749 -0.9313643795640024 -0.6635703584693217
P 2.6601427268540383 0.8544805246105917 3.004867925674334 0.4726577212137279 -0.27252330824955 -1.4250922911844681
P 4.070804523637341 6.320918154265373 13.119743149631251 2.5507881038776263 0.9583745896042589 1.6704639787198907
P 3.1548095049605926 2.7620376185968576 12.582215134820878 0.24659219020608497 -1.198484257409794 -1.4100503092496812
P 5.871595293641119 5.55901325972171 5.240495261300048 -2.032640111541583 2.3724540746179916 -0.19632249541725544
Ni 1.971751336222072 5.730038287236182 2.9445404403334945 -0.0010032444535337563 -1.1310642760939231 1.353162852034018
Ni 1.7549311621520602 1.666591560119628 7.322109826348091 -0.1555427423967321 1.4890456541079775 0.2917726433974652
Ni 2.3548079843762566 6.306580120244264 9.27108790750645 1.866340387738663 1.276505411280279 -2.695006679510791
Ni 6.5742326307282255 0.8090058427846187 0.945110344408631 1.9655284054947504 -1.0061086624554285 1.2838459108057503
Ni 4.768524384701796 3.3360562522974355 8.447788232732385 -0.09063087221469553 -1.6876787999362806 -1.4835702328157032
Ni 1.1074358595661726 4.737131733463543 10.135145538977639 -0.7487612906153686 -0.21417392177637953 0.41637910122665706
Ni 3.235404542695175 8.312965590026637 -0.039390456342513265 0.3538485867926035 0.0023810986376668667 0.47315137302069477
Ni 6.910177280133539 7.581937656351811 4.932995540146376 0.03128492615621063 0.7065599746569703 -0.8353521884327356
Ni 4.767916606766411 2.0627154338845726 0.705245256955302 -0.9791683864211589 0.04740522875684094 -0.4459902392248706
Ni 8.511883941272606 2.9460838279391064 6.908821751162501 0.20678997060748258 0.3095191687476089 -0.6155377805411271
Ni 8.427393599497607 3.770239917076666 11.186829744355888 -1.5966805170798373 0.3369173582549036 0.20898954936196265
Ni 2.4236434399368143 2.3264265965451343 9.79609477597225 -1.2270011339025644 1.7083772088258964 0.9539057551996281
Ni 4.476947524579528 3.794228728011148 5.567942070117899 -0.14492202945809232 0.012578093775326725 0.3617639849849382
Ni 3.1849313477884973 3.753645737689358 1.212202041615852 -0.570399750551908 1.6053340789897772 -0.27516048876208093
Ni 1.8576364244753918 2.7854831128921322 3.012051676695443 0.18505617847481678 0.39054259977952743 0.9608503048382613
Ni 8.914278978279924 8.408239385776408 11.434190759678955 -0.8493798701703953 -0.17910484598738832 0.24956541390179598
Ni 6.9971631949462525 5.350563845398126 3.3768455187669923 -0.060760567017824396 1.5156326605678865 -0.45069047291401737
Ni 4.5196945727015505 7.91474211975764 8.552403391173879 -0.34104037928434167 -1.4115166093825626 0.1621255378205724
Ni 0.18708878252180863 7.242687063328272 9.099500224963917 1.0136167979070156 -0.40318754223704756 2.6306527387147534
Ni 6.770885627851398 7.564275261199283 10.233022650217306 -0.8175377859591338 0.38673531021829527 -0.2935330777319977
Ni 6.124338827194974 4.963703980769492 7.282659513087698 1.5201295199969755 -0.28338210534092484 0.6802609317511252
Ni 9.023163316279662 6.799681409729374 2.9089320203252584 0.6125663566176288 -0.953723721095809 1.3756402072009275
Ni 3.9471125050300624 5.620730346432995 7.460542301639756 -1.2950862596062598 0.5114440979533063 -0.3023056817183052
Ni 6.31560470170906 6.174093739087107 12.122913665548404 0.32735516848776525 -0.6626987544976457 0.7574958422748889
P 7.7853682983301775 8.395872025667 2.485238971061023 -0.7770331409768683 1.746833970140198 -0.8642891831820598
P 3.5981927175799564 7.736460592044943 6.321776410380188 0.09789372442469592 -1.0045130358335346 -0.5050893593798721
P 3.666503274014501 4.257871205143318 3.5849450003399004 -0.6056151221107764 0.6557536906383804 -0.3546147755346667
P 8.397667733203363 6.157094374409543 10.849342628220624 0.29401670223663556 -1.1890717058466425 0.6107426731453287
P 2.406377021317945 8.552605062943346 9.711305149607856 -0.7687104800437858 -0.7501103484440952 0.41004930235388737
P 6.775655763768505 5.6226918115880995 1.360490649092998 0.5856456209673849 1.7379289543410843 -2.312822478998288
P 8.685128279126891 8.176593113585662 7.53310730362199 -0.1579626646921344 1.2590568767865284 -3.644110128225769
P 6.161376446227022 0.2455910923051757 3.9733390438175498 -1.054994589522854 -0.6481995324402062 -0.12467279229075302
Ni 1.851936204142016 7.118829287102251 11.274100209747441 -2.0518629643269373 1.3734637683748991 1.8699900686761084
Ni 1.8782456217388739 1.0490155077165164 5.155826269647073 -0.7452969862158519 -0.5368782217556947 -1.0267345662358962
Ni 6.557251683563856 2.641587082311627 12.45226116172782 1.1411291165290929 -1.5508097226896518 0.27384974037045745
Ni 0.26586416995287715 0.5721833285108495 8.759438340484206 -0.058377925718260754 -2.4434689723739726 1.082562986059426
Ni 8.362646831865998 5.176555180746313 8.772000005357805 -0.9433441776336979 -1.2350000929476406 -0.43204200457489467
Ni 5.270475289276363 4.303786065534615 1.982956551248973 0.367725858995328 0.8991158039429419 -0.2631066429213404
Ni 9.609337508687924 1.101717221719603 12.870440928417592 -0.78933329850046 -0.8203927389094258 -0.3435718874569438
Ni 2.6678872911518887 5.17222706514585 12.31252196387508 -1.0417930032309155 -1.6105032818955425 -1.1744529274922033
Ni 8.330812160311101 7.226037631401383 0.7017321163136495 -0.9292308781607673 0.5211980920162765 -0.8294134543507973
Ni 2.838304540730977 0.6191553541594508 11.584159965235004 -1.6054988867024156 0.5098466715591994 -0.30465644133866887
Ni 5.411700780443817 8.917741470760294 6.535712401884104 -0.618820822167773 -0.37822367320285827 -1.2046178811113577
Ni 7.3816656178861235 4.249187347672602 5.228985236429796 2.0286998959469127 -3.053844749098186 1.3953723955225323
Ni 3.398767884721168 0.8350878040935377 8.59777033054767 2.961358054621674 -0.42506788724990663 -0.46514547199708284
Ni -0.007056670180074323 1.3354722991710015 1.7410544868364477 -0.9308133921565389 0.7928156006221055 0.0728501511925068
Ni 1.7247356492713821 6.228812170784878 0.7976818347976197 1.3588604166394274 0.8227129024021703 0.22518338551300573
Ni 9.270086915664386 2.6609530974345508 9.130688441805722 -0.6732050533456083 2.6783112211329807 0.2581125321408587
Ni -0.08141922144998973 0.22002574224133342 3.8016703242169654 0.22942544861881134 0.21642158015997567 -0.14001353641288145
Ni 1.296316666121705 5.711141918699692 6.902730158673763 0.6379894246764238 -0.5734398229298123 1.203901057549991
Ni 8.27265886240275 6.283153043462182 6.18943644845292 -2.2677302146453395 -1.8473340218394894 2.751113806917004
Ni 8.95532240643155 0.7163832480590471 6.254993586665042 -0.7170251358543522 -0.07386702249279536 0.17463935401686698
Ni 1.1862075634946023 3.453292932530407 12.132213588835443 0.5863099940242612 -1.9183959707833218 0.736317408425061
Ni 4.816244161386051 2.417013135187169 3.1685167391548257 -0.8197291371834978 -0.6011087495999905 -0.11252330141241268
Ni 4.078788515606707 6.720578190563462 10.978285479839359 1.5719729870308283 0.682339925767341 -0.289526784786082
Ni 2.226539213740402 1.6453193323811812 0.6373629077025057 0.2901901294016938 -0.9830474097605907 1.355256244227937
P -0.21201872838047656 2.2465590505816935 4.547284007465354 2.0373408594513625 0.0582128608953062 1.8500203104224011
P -0.2269544107047132 1.4204507050456274 10.881541045661091 1.8370395818920169 0.15293307268802694 0.4288234976375969
P 6.842032481317736 2.8447967141316717 1.4807947661483405 -0.10826478324637483 0.46666062309002854 0.25457135175681966
P 6.984657703487893 3.1448824653493173 8.457276014653996 0.6819419189979739 0.16077545155058118 -1.027038213519244
P 4.197544640678139 1.710775174270739 6.552896862569262 -0.5675429978294032 0.8224930730818802 1.4469024450810242
P 5.385455824143136 0.2146855842908896 9.823064461417093 0.3000605944378703 1.2548526088971939 0.048367335559794125
P 0.43872358178141835 5.670420797028951 4.838448315292087 1.7752999387903747 -1.4875742117687736 -2.111688421125002
P 5.2553821372143235 5.876789032361674 9.321657794357392 -0.15085073623770148 -0.17928636587057512 -0.6035782941864056
