# total energy = -340854.17250533076 ev
CRYSTAL
PRIMVEC
9.37820344740930 0.00000000000000 0.00000000000000
0.00000000000000 9.37820344740930 0.00000000000000
0.00000000000000 0.00000000000000 13.72594870861101
PRIMCOORD
 96 1
Ni 4.852254290198569 1.7167082619027914 5.138885008966716 0.5351368135845558 1.6669261407699616 0.3393316241233511
Ni 6.433663212049727 7.833416334580158 2.1811084525142017 -3.3043606998387096 -1.1961183282807788 1.5506585418237682
Ni 3.4803356752770127 4.622544576798367 13.685869143915257 1.7468262568307142 0.9524795642760627 1.0259570646399236
Ni 8.1369887777403 5.7223639990770945 11.316550465743452 1.5262094076424684 -1.0862556044196647 1.1218769531677
Ni 3.651900527769185 2.6799997994881197 9.289405853632362 -0.6633281605515285 0.6480113276888001 0.3309493135969268
Ni 5.857231941773604 1.601562680898151 8.179855607534575 -0.0028302703599435127 2.5309695264898027 -1.0280059767491523
Ni 9.18965459346329 4.435383772098122 9.384541162101605 1.1881962452202246 0.625191244470491 1.1970660369060289
Ni 4.397945984236049 7.336718549375012 7.140060438119677 1.4459305680860584 -1.2556887316452439 1.0864754337399547
Ni 5.5455942437133166 4.183982274297878 9.864783951669779 0.04760886012721478 0.7817387739826536 -1.3491984680696312
Ni 8.189985004996956 3.7693343903966574 4.323302987955537 0.6560254562425282 -2.03557245469703 0.7251868457295381
Ni 8.522470449153783 9.270757296226616 9.690725434900923 -1.2444193293790116 -1.0701615270712794 0.40971068806754607
Ni 3.957217316756567 4.29855578489681 5.373997505329678 -0.7793959847820899 0.5110566327069005 0.15687046006922015
Ni 2.0095707968118086 0.485002227779597 2.7867790852643646 -0.48751072706616044 0.9569388855989971 -1.8084787395351885
Ni 1.5367968084093049 9.071751820667204 9.747043421792034 2.437741840082208 0.45292527578180714 -2.063465324452556
Ni 8.506358695760236 8.289309556912588 1.547353851945461 1.7304760976074651 -2.6011770978531397 -1.6262253206164898
Ni 3.494018473997144 7.689732880713722 1.5606952840628419 0.7716155695057227 0.4598567127943178 0.7145921009328273
Ni 6.0956352496998925 5.217788523039249 12.145090350354089 -0.7146445514373175 1.180354637688619 1.336235737261376
Ni 5.405859013466604 8.23306847128913 13.300362151352669 -1.7076223329377431 -0.7947603830533022 2.1730089744113545
Ni 7.36182399980256 8.252284409998897 12.182932338781505 2.085948078936104 -0.6655519076757247 -0.5310513306612725
Ni 3.4817892967997133 6.651706440454833 3.8869961433660762 0.8224221106346288 -0.2932219742494821 -0.9167826250950857
Ni 1.5400041539626188 6.434526006759975 4.967970065968243 -0.8807573560404123 -0.7628812749565185 1.6211653895950793
Ni 7.186123359623219 6.192577737958971 0.9166837424658576 0.26647375962136044 0.06342834365797465 -2.8360897948387676
Ni 7.158973460860518 5.343372044397217 2.923970008936183 -1.1481803669489192 0.6782500719686835 2.656789545011121
Ni 2.6836010295830683 1.1561636681392817 4.984111829612581 -1.1749031276557445 2.444274241884087 -0.06875361252562998
P 4.646890392752762 0.8659176519711255 9.888269786374936 1.5684631741053567 -0.7145779598654404 -1.8967205426924174
P 6.288244790559423 9.115979427770794 6.781826198783965 -1.1569730255398847 -0.7364991854185637 -0.7957114341126619
P 1.9965163377176192 7.089996775057527 10.18463976934518 0.7005862735720386 1.2501330919343374 -0.38927376036943284
P 8.426418890215068 8.016310056746024 3.8014012811874354 -0.509264059582852 -0.2641793071602289 -0.1863216754508017
P 8.956062303866974 5.560261753787535 4.850448048229071 -0.1237371678503611 1.9850029692795945 -1.083860621824927
P 7.3290659354232455 3.9028987628244223 8.83905796295395 -1.2307706282473254 -0.3991876770490351 -1.8265728780327382
P 0.4461614606930341 2.7422429352698265 6.57758393446148 2.2869705509321907 0.09951377652662216 0.40376835444118203
P 2.279794348780184 8.335937984079479 4.182117887467472 -1.0955804813650163 1.0968287519498208 -0.6338833729278502
Ni 6.704665154898 0.5343437691820824 4.76849099113853 0.3092304338625965 -1.7055541375548047 0.23787743604090641
Ni 6.580432094825636 2.6067654093541206 11.999595027596133 -2.7940154913765363 4.764063124897879 0.30508735822850036
Ni 2.290241667336885 2.1648832228598502 0.2951920806266875 -0.24651762821440765 0.3905809092166305 0.5777690464327856
Ni 6.204516190851861 8.915398414044843 8.880537756469467 0.011984426055385812 -1.756191500095698 1.3172967342650281
Ni 5.078869196485922 4.747677944394467 7.539856061340244 -0.39154815822590633 0.137635265988692 0.5352226884301428
Ni 1.841644687228074 4.001585596910742 8.10651805716348 -0.3237880199617972 -0.3709348528509289 -0.9668656577944058
Ni 0.21848400396360249 6.761722144214845 8.75163716457873 -0.10559340706179879 1.0773495601792866 0.7269503653878641
Ni 9.296350413229522 1.0043211773389775 1.2829325944035044 -0.1082447286417168 -1.5655969083011552 -1.3383126743950629
Ni 6.952943710975281 5.652890268495374 5.853760130885192 -0.2163678441039048 -0.9825709843448046 -2.206386778540852
Ni 3.048731999678742 8.66910803708248 6.038758321887794 0.41583531290804515 -2.005397730885862 -0.2127276762481562
Ni 0.5093696136017469 8.678167381540087 11.569849174085906 0.014783586067077767 -0.17846515552086037 0.7040179249614069
Ni 7.87255157725261 4.188164953001907 13.5744138859376 -0.6593804887576902 -0.27132697394860367 0.9755631855684037
Ni 0.010801814644172097 5.161003501620199 2.3533691676965964 -0.1378170429821949 0.047513215089614945 0.889068961229901
Ni 5.531011137469449 6.716247236062744 9.518231202454558 -0.3402986160223107 -0.654615206158563 0.5551266264429213
Ni 3.6004985950858135 5.773334534405343 11.3822157079357 2.25427768868486 -0.39182455181574455 -0.07110874302136785
Ni 9.272642315104441 5.199885532801599 6.9225583320491495 0.8743316550197265 -0.6385532675996938 -0.22681860712358354
Ni 5.684569839486876 0.2758720438594892 11.715357626328585 -0.850824830147038 2.7713694718422466 -2.1055051751324254
Ni 1.3377069290195416 5.733017638107985 11.486738597980578 -1.9592456578098323 -1.073173831535042 1.706393088516332
Ni 4.874743221885254 2.4238529307815107 0.09826856621591676 -1.4797503448489806 0.15153464967860353 -0.6101904001862846
Ni 0.9799566049778391 1.6457152623747633 11.916497580975523 -1.051790994983892 -1.0485385494848651 0.07339908171744133
Ni 3.1432830460778938 5.668551868127052 9.1449130608149 0.8944973313343241 -0.06151132914091987 -1.3072023261435035
Ni 6.680113018469417 1.074076254021867 0.02042010002276465 1.3551302601730337 -1.388251725317351 0.9942620475294875
Ni 4.322864088037715 9.092477650119905 3.7938105633779258 0.37166993124474057 0.6629260400171034 -0.9142876265873738
Ni 3.37326472737589 2.570865646845099 6.928831412284856 0.03983538682938301 -0.22213482849466906 -0.21036251845008933
P 9.208579807868517 7.711096427995736 13.16708287630742 -1.2375992211333848 0.581916750052572 0.931683453466318
P 4.998704314059821 0.6498100847420544 1.8457279569763572 0.5039115370216871 -0.8512544614852887 -0.4067665178375575
P 0.48402877026955615 0.8556513327395096 8.400761063608895 0.614868008167612 0.6734030282890273 -1.5679502390246802
P 4.660254332558235 3.7994946924418542 11.618713364936744 -0.1450909509357888 -1.1290444174504168 1.9918673004995955
P 3.410655624221101 0.3474614971219932 13.04879278371206 -0.08266842283450924 -1.0103664092905178 1.1552074489990298
P 4.913071939067691 6.378453728797216 0.4179780839187104 0.2510016321276903 -1.3549860212856857 0.5136837859171024
P 7.639043691486642 7.236981356510999 10.114061286406207 -1.114349277332087 1.3058969770685185 -2.2405757657177348
P 4.92458837280883 5.229952052813074 3.7855755629967422 2.74447547566488 -0.15344137978301314 -1.7874699984940055
Ni 2.443790991150941 4.798995473247489 2.344913779536164 0.3219877335282648 -0.7397770848388873 0.21950690395351874
Ni 8.354338019095858 0.47460648934144384 6.931865261075783 -0.13842639443141966 3.4595190623128285 0.35887946434829165
Ni 7.918176536658668 2.1696098373594705 10.018844387567624 0.8994402771618961 0.8613270152299425 -1.7526220375768848
Ni 5.798486875849751 4.1866925750724615 1.5074664773625537 -0.13166259334502484 1.4370394362440155 -1.4727937110254894
Ni 0.4420050409584473 0.1360252129926461 4.988147270523665 -0.43329978824139564 0.919402836326752 -2.3281858488282356
Ni 0.870694908768956 8.320163846007333 6.639886152924433 2.3532875289918693 -1.318154197169317 3.3732683214437005
Ni 3.930320629484918 8.337916784991027 10.85640141472069 -0.3956794067854605 -2.342618479313798 -0.5485602860793133
Ni 0.15608519000591586 3.6822015028649657 12.201777838458067 0.26808892662728023 1.2354850030038593 -0.45615560979364667
Ni 8.177633911155684 7.800208116438975 6.607808946109946 -2.568436927307641 -3.939516768831396 -1.1208855357887082
Ni 2.674982460683959 3.491739570577684 11.879575594298927 -1.4787247317979437 -1.0828740895419413 -0.20514677857710475
Ni 3.04188591121699 0.9943333907475176 11.104786882316416 -1.5084202019798472 2.2162559580254477 0.6059565646105951
Ni 1.1913975782088724 7.621262617892833 2.48950316784836 -0.19673387192306116 -1.074275549239653 0.7459500464188186
Ni 4.565431318261288 2.6416148130854484 2.5115325675698057 -3.6594272181988137 -0.3800062190245778 0.3214251761565755
Ni 7.2163586872953935 6.009946605487529 7.959691029526662 0.32079011367573784 0.2039751268665068 2.8221397604165785
Ni 7.8005738663704935 2.906577192961985 6.819298685998515 -1.6452625397535987 0.7927091569512285 0.29923604165404594
Ni 3.6770247346034766 0.2299000909286578 7.847783742146464 0.8349775787021362 1.5350259774928339 2.0349381635471406
Ni 6.585655754103987 2.5911975917561647 3.1263591402723083 1.9913733915823122 -0.06407754720619932 0.8896613433982613
Ni 0.44407105916135675 2.767104552409695 2.3107911865661865 1.152071217362893 2.0028978472821444 1.7521967771140081
Ni 0.7120663500084826 6.30593208211951 0.5347601614118108 0.1612336221339223 2.2364702281897935 0.6517430268170905
Ni 5.660899254175286 7.465209313778383 4.7580999418020635 0.774983200426375 -0.3070797060681808 0.48248910548185286
Ni 1.641963981025858 3.813946503838511 5.072397298338725 -0.6413804526358439 -0.3993427145696606 -0.3710685502153158
Ni 2.974944295545779 7.2264402559205765 13.031457174778433 -0.4438276843559131 0.933505080056089 0.20314311788351466
Ni 1.4910686887661524 9.065205834713366 0.46599354736435783 1.0151525178252516 -1.0750489370705678 -1.2557131571252762
Ni 7.179061572483905 0.44561002233474506 2.3099124489102056 -0.1013837398558254 2.9384682945076945 1.21443615275336
P 7.818054837456391 1.1758110042041716 11.816820408613093 3.4218742553768613 -4.5176444841551815 0.2889793969230442
P 5.909843662691997 3.618832982678587 5.877286291864851 0.317033474846783 -0.9979582654341522 -0.14401494426279068
P 2.4783309141709844 2.560352680864793 3.203814659744163 -0.18155305041756475 1.2080166223802613 0.6529504168616304
P 7.883017652216055 2.4954742699354804 1.2769727461604317 -1.7355648249842819 1.667938898305192 -0.3534040430560172
P 8.471377997181696 1.5270059640886628 4.198149926132355 0.013439670444673629 1.6697967774495373 -0.9684155187800287
P 1.3700992434673367 4.515980051879347 0.2692575970210324 0.6245538679968082 -4.6600278063518195 -0.7507945189953135
P 1.4566975734068097 3.196720048893046 10.177612681558344 -0.20967577679570987 -0.29292784004783096 -0.3831061981061402
P 2.6134802029686606 5.951933039426712 7.016018693396108 -0.004121992588173547 -0.38500418645980145 -0.6332251705185611
