# total energy = -381165.62866283866 ev
CRYSTAL
PRIMVEC
9.28160881832904 0.00000000000000 0.00000000000000

0.00000000000000 9.28160881832904 0.00000000000000

0.00000000000000 0.00000000000000 13.58457270501781

PRIMCOORD
 96 1
Ni 4.923030359499679 1.377409331721624 12.361282072629207 3.3313009758729786 -0.6470109114487438 -1.1440146656070038
Ni 1.9188705531650303 7.249150068659573 1.8212697942283667 -1.1672810923341121 1.150366833077277 0.48561093894028623
Ni 0.41376855812287544 6.348490580766746 3.7672055190979576 -0.07494637159990318 -0.19841125962548412 -1.1434335962925535
Ni 4.524171777997588 6.010677141343152 9.827052912026186 1.5343824303715639 -0.49395956801529767 -2.5276062664445242
Ni 6.187324722921069 8.093256713206758 0.7313880009492086 -0.800336591589499 -2.4145988263068414 -2.6661589020411633
Ni 4.089978111214542 4.170050551645011 0.3281262241602025 -2.3270460787968377 0.0872745541479529 0.9260218843051665
Ni 7.177653834900919 2.3334428986231646 11.513305925309854 -1.3307482317842436 1.2019968985487428 1.2277277276559437
Ni 8.765384425478974 7.632536208038378 0.9360734668498745 0.08093935595854447 -0.690033951977489 -1.1531186847908013
Ni 3.6849658229771545 9.14069556506938 11.296563649380307 0.8800256200807103 -0.3743870730655875 -2.665457247988448
Ni 0.871376011648694 7.917648671831486 10.15211806155396 0.6338394070637922 0.5265462437020673 1.314417355834704
Ni 8.719941668049094 3.3860330434542485 9.79891942713123 1.5994866190700647 -0.6098276175302272 0.7901064292210586
Ni 9.196700793486842 2.0214601769134912 12.745833982092405 -0.19228303524055917 -1.1440694301043393 -0.44620981143484445
Ni 6.311772535751917 3.77017099315818 5.130376862686936 0.26947243723836817 -0.4830866298565357 0.7980547375338579
Ni 4.531727007684664 1.1369970966422214 8.97103425054977 -1.1153766901553372 0.2382273631811575 0.006383792039156748
Ni 5.073513085441396 9.056390710956718 6.601273344257616 -1.2576509975779373 0.34035569451249126 0.17542662580485271
Ni 0.5715057896216175 6.287593944431484 12.851263778180233 2.6586309690952343 0.004355191644902176 0.6242185961445765
Ni 3.1508185093880674 1.2182947094543781 0.006633565918124046 -0.9561945512338049 -0.4578512523285147 0.7786832749857816
Ni 7.74908537165092 6.5779505172825745 12.400975801474104 -2.1230300713900663 0.6956505268333181 -0.8951557908539294
Ni 0.3009886559058145 5.4962068387326894 10.618068753366893 -0.3420796191821334 -0.4395704517414558 0.8401182423628112
Ni 3.57504372815647 8.16474366535646 3.6563831082089124 0.30916461362166753 0.696268105812659 -2.9386896664898807
Ni 7.554644945711671 7.712673619731512 2.84626664380551 -0.6845119937179953 -0.28073309775385197 0.29410694795759673
Ni 0.11868486183243876 2.681308320541971 2.0541100927245797 -0.4353101338032051 -0.7672544643235495 -0.9739025100365292
Ni 1.028597185689695 0.4324969886665871 0.9171352719438436 -0.34476076555872237 0.21476219017968173 -0.19257228434620383
Ni 2.12178508807762 2.9799255253605033 5.363596778989293 0.6591791713801616 -0.6608239060724361 1.6784680799712899
P 2.871080097178272 3.5094134712555958 2.142735535804484 0.45202641811662153 -1.2678155968157652 -0.6393518522415893
Ni 2.0687221296979987 5.474571408265154 8.986399026009211 1.105519337745283 0.74083817911355 -0.3098986635742147
P -0.12108230142478722 8.479510869751786 12.533208099733146 1.449891352506019 0.2580027460358718 -0.5477439608256051
Ni 4.038493026356792 2.615965793518614 4.133894043971789 -0.5645895716280341 0.7950794569556178 -0.8356213829337222
P 5.225026069976805 0.7480503453401646 4.5437541165649 0.25396611407265296 -0.12452881051372101 0.8402347133360175
P 5.431179886413706 7.789172640715391 11.746200057137992 0.7225296106123492 -0.25641046184808747 -0.16735747564347306
P 9.452854637349146 2.1578719836837013 5.279712381762162 -1.1521432082514094 -0.7481527104970922 0.4247308156254621
Ni 2.752229094545589 1.374643412253874 7.276304343810074 -0.6102865594445167 0.23057987393822868 0.662417218701485
Ni 3.4248580137012232 3.9578265629533838 7.286234737228013 0.3286021535209889 0.3098660105640663 0.6606755534200299
Ni 0.3113534286227154 1.6393641811790396 8.168186214116822 0.8489684936645895 0.3943378051559015 0.19862594673945147
Ni 0.07347321646546795 4.412783188962459 5.449152793988711 -1.0850001347460088 0.05901555930225965 1.4631281629112673
Ni 3.2603879030685685 6.486656611628919 0.08767871896678159 0.7222442181614465 -0.35556402682181343 -0.4519888800104667
Ni 6.762700943475745 4.707808411116496 10.562344757700682 -0.3685182729896363 -0.10557489511903753 1.5571600903877119
Ni 2.3213953702032333 8.42748745157481 12.752952976158728 -2.5008966183638224 -0.8407383924453135 1.4128019038528894
Ni 0.6435969745141056 6.534856006917597 6.53412554429306 -1.1647544692575167 1.54388034255967 1.855818662271733
Ni 8.43718673292984 1.0640250870601713 10.178281989029262 1.1838420820165871 -0.931831549008408 0.9902333859860687
Ni 5.594629020061621 8.969152868415165 2.6789860619821355 -0.5246917069918319 0.13269129171985533 -0.062365449611099036
Ni 5.9113546439458595 7.8633791042880805 4.7142953276131765 -0.2119046661262286 -0.428579757057907 1.017994358149421
Ni 7.157243576815072 0.0159383788926859 12.521647855783206 0.8293844008850749 0.2983713796609055 0.24472608353162373
Ni 1.2551334153855862 4.041639491791582 3.5413487031773663 0.4881604448350173 -0.43307378827351867 -0.7594280263005952
Ni 7.697813763799069 5.002193202252834 8.51934753537455 -1.3190332573401606 0.4141522687786674 -1.1109482220703382
Ni 7.217406966043113 7.090880072806975 9.822039915031114 0.28115450156198674 0.040541154647155984 0.5479352509008047
Ni 4.883267946748534 6.291083829397504 6.682156069149611 0.8649484140326136 1.9595264222750446 1.218432675507263
Ni 4.208699171321895 4.720617031470508 5.218486248309098 0.5653678445549554 -1.0503887153197264 -1.6333588463374775
Ni 3.2778837359434307 2.661352861294781 11.593644747917251 -1.741881254120613 0.19532722138352168 0.30444869620323695
Ni 8.135785045425653 3.705812316683754 3.841391563130953 -1.060815309969689 -1.0902685822337996 -1.6929817002064325
Ni 1.6171625725654217 3.088427534011504 0.29733263013955025 1.119763249258807 0.4937464235632271 -0.5781146026976625
Ni 7.554914112371284 5.895343868503345 6.060308688893152 -0.964492786686855 -2.273076566558917 0.8239015233936325
Ni 6.080920357893261 5.103919636368743 13.4722553940913 0.7692797222836945 0.47765980241400957 0.06395773379888339
Ni 7.450978655324757 0.9852427902740555 5.880775455092002 -2.39950002299219 0.7528642570401486 0.028763702396253688
Ni 3.133925981095097 0.49270121697401653 5.1392203796965745 1.2857765521695599 2.236308762911265 1.3793009438819666
Ni 3.9858106139442104 1.4179421180158 2.238900429836245 -2.569521932841704 -1.1728364749347027 -0.9089371609087379
P 5.49174238482669 4.80538596603078 8.067918848928198 -0.2526939322284487 -1.0150568727876519 1.1187461208482021
Ni 8.342996965283103 4.213469918323316 13.124096673329605 0.2295720014990046 0.10646218281999728 0.022747320998844696
P 5.284883166109424 3.530733327018756 11.98978474615725 2.24479725999825 -0.9050234276766284 1.1978070288371114
Ni 8.158385763224215 3.209905231977654 7.107611101104178 -2.1640761906980988 -1.6474883437603238 -1.0748599609882132
P 1.3994531529830547 3.6131911409499358 11.2140919130357 -1.3818087979054847 -0.3315365535589645 0.14088385483297672
P 2.509115911261102 0.09577321013397899 9.103076275825295 -0.4624771811363003 -0.002004689134854612 0.3512612856814015
P 3.7326361665555585 8.352324982280045 1.3938312824407186 0.6178844263964326 0.5874495069453431 -1.078696304015168
Ni 4.000150699775331 5.070041763693281 11.653294864170237 -1.4403124505683322 0.4002204891889236 2.2683969016950614
Ni 8.755527356771758 8.72341298979721 8.717383656621873 -1.4671532249102603 -0.5456446550944152 -2.2371225170618114
Ni 5.08667440693559 6.5289807484508655 2.0476166791016337 0.29540124128898804 -0.11776192410353269 0.06974554412525408
Ni 7.909703614568419 4.997570960994648 1.851047052068755 -1.5049417565129437 0.4989783613861277 -0.06762669801003839
Ni 6.0546348413406825 2.0135244012593763 2.972793537041647 2.24714030630913 -0.4652796835821019 1.213918332576677
Ni 1.6452301580368183 1.2286901114808213 3.46803234590319 -0.3569377672408885 0.04315750922408051 -0.2846195772924518
Ni 2.319873186335075 3.039559862878269 9.201646034736566 -0.5947740656312144 -0.680098438031332 0.768240996606535
Ni 2.650493378820729 6.721045082498356 10.839320963086308 -0.12016462000775434 0.6118798720735656 1.6981503888915659
Ni 1.587851251494433 8.289442081629016 4.935546609171697 -1.7739076864285384 -1.8154112049889641 -0.4863791845648785
Ni 8.47573325490825 0.9959723302227772 3.664207504555601 -0.30936156012382204 -0.09028814416329611 -0.206282949064077
Ni 4.688651170239194 3.4433562603429206 9.91714577748143 0.07592004836708215 0.536666877075837 -2.1153057061626153
Ni 7.247126677907997 0.6104801937727223 1.3058796841707427 2.1682328931789496 1.388014155385248 0.14306389320343105
Ni 7.017852373571212 7.858636202113517 7.142130332958236 0.3227642066829731 0.3193644369728048 0.7058063843203973
Ni 6.448017273560987 5.730929447524406 3.932950922800642 0.6484802969054188 0.280627168303607 -0.2587571077033931
Ni 6.186025297667763 0.1762809580243052 10.47325709049496 0.06441693282348905 0.3243292371772479 -0.4744263830783765
Ni 6.7229570939425045 2.298052123688497 9.180210158861502 -0.19802045194496865 1.1696462501321792 -0.8363166092285338
Ni 8.290221736781 7.597720892858746 5.002844771201278 0.37694969158644115 2.29196877547773 0.27421483701936
Ni 0.8459536847286693 5.137695411345731 1.5806468666257496 0.8017828371177224 0.19090081018105187 -1.3658900697926992
Ni 0.6686350428235102 4.283973019924085 7.667635540451947 1.2920302463887556 0.04305955019363552 0.43020418003520744
Ni 5.395287904595621 4.113544116344131 2.6791763349656548 -0.6278996445405896 1.2037043681581527 -0.9371789293632504
Ni 3.1518116415459505 5.479267902394958 2.8926171425909137 0.06856360800201095 0.4157072719706131 0.49119588922723145
Ni 2.883712366962191 7.978294704725039 7.322723526501725 -0.05800331598766139 0.2089494401526466 0.011646325989676716
Ni 4.8307897297329 2.2817164919326576 6.19099281477897 0.4692319833616306 -0.6490955618919143 1.806969501979514
Ni 2.0262866135686255 5.415169110971194 5.306052659807559 1.1004920597340209 -0.29572340051509716 -0.08943093836932339
Ni 5.4347625874692485 2.4017926669470286 0.6957707547561076 0.7237094898530633 -0.1056124332251923 -0.21158816332707428
P 7.392950036155719 2.8030087771229737 1.3120918650424378 0.9479279403496383 1.4948128956090578 -0.060984252992856265
Ni 5.144842250238911 7.943702148160259 9.014655028142338 -0.6404358293343874 0.9898191812667855 -1.5081654056565637
P 3.5704029236803794 6.770924449007379 5.033831422688135 0.24296256387329768 -0.3856027392757488 1.582039884348527
Ni -0.004016152193608891 9.276903176442643 6.467220922483051 1.7587538615062357 -0.3318949653396478 -0.08939082916000735
P 9.246533751951105 6.391232389991541 8.69365151069204 0.8703940105282171 1.5887648617771863 -0.7774396323866676
P 0.25763333232928 8.630337015224734 2.649793545505734 0.9412163326574178 0.10133360334418033 1.5131754572766456
P 6.394128251984623 0.6285774749076857 8.024543105811969 1.2315599569178401 -1.1417286977863048 -0.4405269021174542
Ni 1.5058667996198145 0.9631525609678637 11.12746294404141 -0.22547597705276007 -0.01870014751266457 -0.39744266933347033
