# total energy = -340871.50740191 ev
CRYSTAL
PRIMVEC
9.24573551167367 0.00000000000000 0.00000000000000
0.00000000000000 9.24573551167367 0.00000000000000
0.00000000000000 0.00000000000000 13.53206849460235
PRIMCOORD
 96 1
Ni 5.571831550279075 8.875804376957408 11.6622610276237 1.4079908556174914 0.8591076389811204 -1.4256607620934287
Ni 0.6735259431192354 7.512899752630552 6.43966771981446 -1.0162048703491662 2.6365505922564267 -0.2413941909449133
Ni 4.020092024099199 3.2171091416553645 6.245184598144459 0.4843994351306883 -0.2526543372397649 0.3696706414265246
Ni 6.80284575769772 3.10507856460126 12.630643646148576 1.4424238404843805 -0.9169134942459951 0.6397262048618725
Ni 6.978015462481665 4.268238319185039 0.9958970027994755 -0.07888530164299318 1.4843227947110114 2.3015906148382106
Ni 3.858698465210328 0.5039452854450701 12.890296259064227 0.9369652706905477 -0.4995720291060687 -0.37267626102206786
Ni 3.7187457669460726 0.4625770910971968 5.2337029835861 0.45657521382956856 0.4192975604250327 1.1679158977046338
Ni 6.9103459243567995 0.6911344463790805 6.486935617984914 -0.8009449145974593 -1.093762197209355 -0.49301134516941536
Ni 0.2679303199088462 8.726864823787105 1.8519716722052464 0.34051458868785867 0.0022828824969057457 2.2797593778957315
Ni 1.7882731774776526 0.039084497679360966 3.8476951153917187 -0.8807596700332573 -1.4995596662654238 -0.42494447429816495
Ni 5.993094996867849 4.677824401837249 6.982209328104488 0.15518433061604886 -0.5449633127566744 -1.7143485959179832
Ni 2.8779755635135342 7.316659016641993 6.641512296089599 1.741158259911659 0.3680351627056307 -0.6003047656414564
Ni 1.5846728360310534 8.20940874505581 8.585975532516695 0.01819826817558156 0.8717939761995374 1.1388794012629677
Ni 4.9207838393075605 2.6079261210280764 11.59920233779271 0.06183503102892576 0.5666927340139659 -0.14480247316109257
Ni 4.321641687433327 7.993123254503144 3.7724163369503123 -1.2526486592673394 -0.031564147959526286 -3.3218316029299633
Ni 3.4621396238776874 4.691868674061825 11.03977246903829 -0.40909696574294707 -0.6549268238617107 -0.33670935600915564
Ni 4.691988868623326 9.067440736666944 1.4054951049078364 0.4683069004441999 -0.6233626759021845 0.9434297953689688
Ni -0.4739271559970581 6.968880675807616 3.7045119571437457 0.2602028390109841 -0.12358547276384522 -1.3241752065524162
Ni 2.6758637854824436 5.525861753372827 13.3485740831539 -0.0019491533065708366 -1.269357230271272 0.17678339694306328
Ni 6.4758425845319545 6.467447456697909 11.220588544492115 -0.4705355326644025 0.9587792812418455 -0.8561992070850738
Ni 5.1890396091060085 4.992308849135947 12.791295697050343 0.05357896166772064 -0.37064714640718105 0.35836652926761503
Ni 8.919361036898144 3.6681253650832994 9.62801245375562 -1.6343057836317791 -0.5067284376451918 -1.7824373211661044
Ni 1.4038447411210775 2.8591235088289326 13.211561528778661 -0.7395914511906424 -0.0479130216311949 1.5494917752091766
Ni 1.1240687848895674 4.404233842655273 11.186650223192082 1.6335431944341414 0.6774517444371042 2.2486084062142244
P 7.847271776989857 2.066403392790154 8.317648570554896 0.7353175064056369 -0.49626893287476465 0.15905152688093896
P 3.942631252079781 5.532444717048862 6.811853877795419 0.7634235206132336 -2.3955631498316294 0.6335990089182121
P 4.227991632553321 6.974280185339644 0.7150466921028596 0.6327752274653361 1.428090968801476 -0.9773585869059296
P 8.205581010558792 -0.2264687436324224 3.8765861896822744 -0.5198865722937047 1.372256121220043 -0.6033360962686126
P 5.232550040369243 8.12019664321583 5.55975846886311 0.12619257136938913 1.8108598381728558 2.7915703722701535
P 7.88676031331057 6.740649694988884 1.5964592996465172 2.6584234810701184 0.5376413251739643 -1.827450395541685
P 1.8422497813269436 0.08176281274759133 6.625814886357613 0.3994162481200734 2.026650469617052 0.09933791307039021
P 5.856664923829112 1.4264135814766992 0.3310213698140867 -0.964480702501997 -0.716518885641895 -1.0404076928476147
Ni 8.232939141903438 5.170501909428409 12.71697755052739 -0.06679905990242045 -0.2558245074376304 0.9696236801555171
Ni 7.01978769547089 8.78339325063441 1.8002926336277174 0.745075100013033 0.18370943463893524 0.2109559290597141
Ni 2.4072104490574935 7.551824299085762 1.931215946602624 2.3920065428286224 0.892108262276857 0.3589812800334785
Ni 7.50685304161352 4.861084125183739 4.859650111607681 -2.0367459061798403 -0.17511115144696293 0.3174705623842016
Ni 7.779870365194492 2.5130001546490646 3.879237866623689 -0.6442588026249033 0.09194753414359004 1.3231184831531275
Ni 0.966521451968717 2.351578858553693 7.503680829763452 -0.8127923008543486 -0.359430194645439 -0.8444361530118747
Ni 5.258327150943383 7.566598984414842 7.92565157511798 0.6402576518853103 -2.470498465687939 -0.5612412239810916
Ni 0.20452121670240395 5.633260216941406 5.60614617301396 -0.07581951823347587 -1.8184929292380811 -0.6272679244938616
Ni 8.675144179399824 8.009617646635233 13.405123775192855 0.06424261202915386 -1.3265485918805993 -1.4444203020891189
Ni 3.9284760310292044 6.993058274140246 11.981509802425572 1.1019095089068376 0.6020248336563567 -0.026740244208321686
Ni 2.2835025080668254 2.1861449132513 4.601214237483836 -1.0222821868914975 1.5322471291961157 0.6700317978239493
Ni 0.7430612706680108 5.81000169676036 8.250569834928484 -0.5607534857113956 -0.3961108378959243 0.6263276720677794
Ni 5.933423019950526 0.7878984649755029 3.5090145782893902 0.4544450548604431 -0.7646406808497863 1.9511446259692524
Ni 9.252854716384944 4.6150551035274106 3.2852751757765826 0.5263451834348548 -1.0325794550524474 -0.4817098041136672
Ni 0.8407359942111879 6.15998052264375 1.3384080481194744 -2.3361477839877893 -1.1773919555158692 0.07638413248769427
Ni 8.22018927264887 7.647517661511278 9.13558088272876 0.5409793884082619 0.013698837643331246 -1.2356297561118397
Ni 8.85027690124177 5.977830287557266 10.608681730186513 -1.2266738324701325 0.5567009129085767 -0.378802942745096
Ni 4.612854618478399 4.316001788778296 8.874573769562351 -0.4570830067039225 -0.3848146961568147 -0.46247589558471963
Ni 2.573504247761391 0.7671519590869408 1.19122888298838 -2.499521078172534 0.2241138065979108 0.7383570645629091
Ni 3.92384391754368 3.73682117984867 3.8352854892035513 0.8444711200148682 0.7514110695333898 0.5317964363574131
Ni 1.7456780740289226 6.757745059928476 10.680306593958298 1.258544455926484 1.4137174736886233 0.20465106988760887
Ni 8.986965854874509 2.7766792853749873 11.698040174861791 -1.314059458274653 -2.0174371785489 0.7238105342073019
Ni 2.316713189983005 4.888368290644386 5.423950633823527 1.0141826977128146 -0.9987864177624024 -0.30872444076045535
Ni 0.5504439384219211 1.8502288510634868 2.8472686267707683 -0.03926640169979043 0.52093686793509 -1.1198640365027295
P 3.56820670153426 0.9722075793012476 3.117613008218678 1.1186224507861444 0.8614823098608841 -0.6989903898398284
P 0.3829250797642669 1.0839238013483508 0.4836046673449603 -0.8611233838595687 -0.14732961045832046 -0.5126435175780462
P 9.323029848830322 3.82389751678814 1.1989943762348718 -1.193009864558784 -0.1974481243812664 -0.3330912996405941
P 6.288366805797442 4.192894820595131 3.2460455200498712 -1.2258634207536954 0.25232806424859766 -0.8251780761132113
P 6.856443286391508 4.389357454235692 10.958606930804 0.5728150448616199 -0.8345222363322724 -0.40658962594006104
P 4.69644531313435 1.1616989283747705 10.044543008341918 -0.14503567221782118 0.3711595672672253 -1.2689898196295242
P 3.3750170582607173 3.3960880894653305 12.992152828774078 1.941292158655205 1.0551995064448085 0.41748673246853907
P 6.097192732862911 2.459569049194276 5.638014374135532 -0.8038970552472479 0.8692066750883353 0.002007260238015898
Ni 0.16278596665517867 0.9121213934335233 10.042607875901757 -0.4849619925023777 -0.22355741987380853 -0.117372659084914
Ni 4.09638783344561 0.17859247606606396 7.547525032078239 -0.7982138888195414 1.0727367439976234 0.4756018914437164
Ni 3.9780146818384723 5.319839029225214 1.8721347721837551 0.24652996950958186 -0.7334611699231884 1.3345256965488048
Ni 7.023060685837908 5.3295193142937665 8.907078077286327 0.054675280055692936 0.5631839495297591 0.9194272618067842
Ni 7.5620130996068164 2.0389343126195056 1.4101771453650616 1.7488324886274655 -0.6077905324955404 0.37770431036427854
Ni 3.122099963656852 3.0901651932396796 1.7460830372438247 -2.052694716199613 -0.17391070338095854 -1.259134266991683
Ni 6.404141905729068 0.0016272494480087834 9.061709305230462 0.11340467557610147 -0.2620974849305357 -0.20660433695923774
Ni 4.965588673540802 6.14340291889216 4.95575490926295 0.2712968920416166 -2.169367263893709 -0.07690272399532562
Ni 5.261896004846402 2.514377769238572 2.2229124296143485 0.5762207281090593 0.2550585758058833 -0.6512097800214398
Ni 1.8934896474682203 6.939275830736456 4.256363096508774 0.33786609532141815 -0.649560674453791 -0.4080227588421618
Ni 2.787089983548044 1.864911079037566 11.525059860244259 -2.270435015171012 0.21807711348552766 -2.4726728476314386
Ni 2.0399328520535107 8.013926159378256 13.009433108423671 -0.4674203840741885 1.2040661223729459 -0.06984170338348616
Ni 2.9982718281046834 6.25084761113824 8.802732555579864 -0.932884929973587 -0.8248831705806118 -1.8350467198317042
Ni 2.9223181109717737 2.184693332777792 8.584067212709483 1.7394726446791204 0.03237173146248619 1.1724682929620065
Ni 8.504828485753407 4.010041909610645 7.234487542385299 -0.5592033676154563 0.1713056616579437 -0.512933023794007
Ni 6.177399488325844 6.31009428422256 2.43623281279215 -2.277250495430949 -0.2440732804389732 1.413734442969488
Ni 3.8598726736188342 8.402154593025353 9.98946801111522 -0.8548486065944503 0.08220613848611004 -0.7434141673708422
Ni 8.87077469684538 0.19096234559158076 7.635875431369616 0.352927874750547 0.32820774629604765 1.251292145239445
Ni 7.233604574645044 7.539555208077196 5.4097963373465 0.5511167339525799 -0.1797789892362775 0.6081319749953592
Ni 6.236831076120165 7.482527511512888 13.3485740831539 -0.16073508523094898 -0.8238197623131037 1.424104216239586
Ni 0.0014562033412578602 0.8515535047462464 5.432286588950372 0.4843135602851014 0.7016944190345529 -0.845584407683705
Ni 6.935050529612933 1.7671559175955385 10.400477012460888 0.6002705699694113 1.586070859884791 0.2037092747996298
Ni 7.643541995246257 0.7568762486521853 12.664365617237907 0.33286427123145257 -0.008561773527082029 0.003152686696368764
Ni 5.666424670180086 2.128312837698488 7.984204818039796 -0.5112417521345132 0.7986054678310053 0.21177893918164173
P 1.895440497658731 -0.11074634439314777 10.87140670100883 0.17013195306481668 -0.9038890569618692 0.0667844046144011
P 7.8055550184136315 8.325609148820439 11.089232531095806 -0.6368499117553419 0.9574237956552155 0.84428702902852
P 2.1187804843979365 4.919156589859552 2.9816969980737444 1.2208446273828653 0.8988964888432842 0.4900463490038206
P 0.8381897186544742 6.2970300599609885 12.574498917324524 -0.8561287588584545 -0.02429923886699686 -0.15419111346484415
P 8.165990771147577 6.444647472954786 7.140317877170191 -1.8827615094091639 -0.9613904936124473 0.9652972848660214
P 0.38222795130756315 3.3378122186085166 5.264353521342316 -0.19558793124407606 -0.3545250440343378 0.31727181610983424
P 4.597053656508813 6.222481694624087 9.974609189593089 2.880819276535658 0.6300313461716117 1.4812120169961716
P 1.7817456882146172 4.00734215484463 9.217652503042054 1.3584387557209765 -0.16594722555950778 -1.1636838619011571
