# total energy = -340871.170503889 ev
CRYSTAL
PRIMVEC
9.21758935169580 0.00000000000000 0.00000000000000

0.00000000000000 9.21758935169580 0.00000000000000

0.00000000000000 0.00000000000000 13.49087374441475

PRIMCOORD
 96 1
Ni 3.6905475388505447 0.5408033261877875 4.310064467102402 -0.7939018917077488 1.9582048752501435 1.276499240632692
Ni 1.772275072599182 8.562808434667872 4.19852149972287 -0.0014087074220685417 -0.9321434238218721 -1.1577752097262062
Ni 7.862538973644461 1.8128140294324602 8.68211906437651 -0.13783324093211102 0.3232174921703079 -0.7370954242416661
Ni 5.6982121841308135 5.301210621873133 7.672327570387417 0.3843498407052542 -0.931869601335195 -0.19688608123020931
Ni 3.237880956057127 4.036585051010183 6.745099865426756 -1.253087289466655 1.9060629031392657 0.1179069343218292
Ni 0.29947117381811134 3.6958568701684094 1.4172974207777433 -0.7655025146294494 -1.1100820174153012 2.4305782324542338
Ni 3.413660380070454 3.074489971785484 12.78488271804249 -0.1617676402605214 -0.3991935905863061 2.696603077463633
Ni 1.4708691268303418 1.947888580008826 6.697368423823808 -0.30461684634998504 -0.2829750997104933 0.5713939961443772
Ni 3.1139781234621013 4.30006061765921 3.469313417740368 -0.5027769091966114 1.8002072435550156 -0.4784406464440922
Ni 1.134086074120592 8.777633566081327 9.71414338325916 0.641250869036515 -2.375710119661444 0.4586647493687456
Ni 7.607939945292489 2.594225927246083 0.32480110864709 -1.4780220493039642 1.073480049921551 -0.48058546070123687
Ni 4.03536832924984 0.34480512049783574 8.925129739720115 0.6052119731350868 1.0419688666871476 0.9983331322750676
Ni 3.1390684009746486 0.38939705125553226 13.406366679806904 -0.7206457633260751 1.606233450875595 -1.3392061327436096
Ni 6.9510945464886245 1.4956275711355227 11.48070631589709 0.20698048935173385 0.7044205597164642 -0.6312747316604096
Ni 8.876897783029388 7.051031647440512 2.792435432559569 2.203416125948302 1.2951063142109178 -0.12131673133432655
Ni 8.763392390931848 3.338914950111143 6.779177292305481 0.6786773893140892 1.2086308589254926 -0.8613046466324392
Ni 0.8417087568688497 5.9365882556782 0.9066761683177607 -1.3364208566889886 0.7097283450826228 0.524152289548594
Ni 5.165195877209229 8.017541951841006 1.981620347296543 1.6464087375429002 0.1555082896143709 0.2885022001763096
Ni 3.4618591534404426 5.266183783317776 9.153125884189294 0.3157409812876046 -0.17497282609688575 -1.486307172130892
Ni 2.257369133823585 7.3375327516451385 13.18302541782995 -0.03741109365860654 1.2840436286388532 0.3512615427917176
Ni 4.913786134683612 3.796033628436728 4.6613265087602445 0.8060827500446568 0.5458673126281824 1.0787657238005226
Ni 5.834291451918372 0.6983273150014085 5.239382721269473 0.7467658574518945 -0.08137052995869212 -0.9835834847697189
Ni 5.56054749101917 7.628679520752897 8.683845518813724 1.229021506766703 1.2423598757468217 -1.1629369564328036
Ni 6.991900813405614 6.255940847412113 1.6248673878156934 -0.8278921326102645 -1.5076586412234745 -0.7261139855294979
P 6.193915690401852 5.528968030784789 5.547582030200233 -0.10061189468680735 -0.36408003471262457 -1.183392396073678
P 6.885041303044497 8.40962132152275 6.615937476494971 0.1692420942606956 -0.6943318080218945 -0.5174825908379024
P 6.4350293859100125 5.926375166962585 9.72822785939405 1.7901174634191814 -1.2723980739801248 0.6554112196972971
P 3.2351064617399787 5.516561155864918 12.609703359079154 0.7146394092309951 -0.5732791289822321 -1.0661058689446672
P 4.598480064561752 3.212763025777299 7.988431883724776 0.003505956270729446 -1.3220478757967682 0.6470412504660469
P 0.6452026620198453 9.109429903091486 6.1309540263396896 -0.5144731145876172 0.5751431787741642 -0.11121075324857621
P 0.964556175512668 5.417637989713318 6.150003095960348 -0.8316695973748257 -1.8690202485636718 1.4948825725047288
P 3.5616948609123016 8.155999357614691 5.553248082216016 0.6070603391977352 -0.554820150946096 1.2634354654701982
Ni 2.3831615721827815 8.715442492467384 7.295432335219419 -0.14447979971435118 0.37066257302614875 0.45999555236502715
Ni 1.6785690618745106 2.1332819494466886 11.196588880232046 0.6914537151431511 -2.089492344643937 0.13860894275587096
Ni 8.934185099245584 8.10356971085078 0.2858300637186188 0.0943330036566311 -0.07836233925998763 1.57072497355634
Ni 4.190509571282787 1.7420966859070146 11.132587472120136 0.5043100580116863 -0.3420173984856303 -1.2592671930251216
Ni 6.856614258280098 0.32887620478533286 0.0817139273140086 -0.8405972388817586 -1.2131377456569106 0.4361290301600747
Ni 3.856206050039192 1.3146309916952663 6.734374278757542 -0.2959285745473678 1.1165555409547867 -0.7721138492983799
Ni 0.014019031252326642 1.2367239286768794 12.988270664908715 0.16267755366930048 0.4005295357889102 -0.8176457722919079
Ni 3.0909064979610337 6.709962415802278 2.4893896776909923 -0.5550988585287795 0.2122283680142345 0.05348845883644336
Ni 5.549274379557802 8.816909713208794 10.969267463284512 0.9361944539627941 0.6564784846195468 0.3726688048229001
Ni 2.578961599707222 6.319284119662746 5.047489108002862 -1.3286540682593762 -0.9077202577825013 -0.12312370263607827
Ni 2.7934641155024047 2.3494344136896106 9.03675382188367 0.4428822897235082 0.22082202322051647 -0.18995978642402123
Ni 0.5948488163197927 0.957394108787007 1.8848236789488162 -0.20067023086298985 -0.18025901419648957 -0.39141060420677753
Ni 8.004185665244503 1.2051352508534041 6.223960422052163 0.3164650039378227 -0.7834285029802508 0.6316583402520733
Ni 4.127599525719549 2.876210412794887 1.7559313653774709 1.1602576098284276 -1.2129716523926917 -0.11638201303687053
Ni 3.9141939030264945 6.615555868306499 7.254285017505969 -1.3362581058588794 1.0659832273238738 -1.6286511564491628
Ni 6.96731750329321 2.8778787964208132 4.676759518179516 2.3991200139449522 -0.9431058363706468 0.6403005893081036
Ni 6.528173123699979 6.801428552377224 12.401174762775478 0.7104611094835893 -0.28505357950607685 -0.329442132923781
Ni 2.0633020130487245 6.62030292668966 10.884301570538312 -0.21941537268097697 -0.8556500194498232 -0.877256027755373
Ni 8.186933586612527 5.190553464805487 3.8348479743506094 -0.10492851978429026 -0.6425284501973579 1.475934313537
Ni 5.931085354989372 0.8118096631262158 7.640772075884679 0.49026772098600724 -0.6400064551064526 1.0227562983144385
Ni 6.428503332831803 2.9515734212234643 6.975227116494355 -0.19522540569833474 0.9755505871629134 -0.13438847691662018
Ni 4.709201744753051 6.716580644771422 10.642086373133477 -1.1077253442576667 -1.3037753027398256 1.3863475663161027
Ni 7.950087634854664 4.508276737692616 8.520673913162506 -0.519183375579093 -0.4762217844159024 2.4237457829134326
Ni 4.65475344597766 6.733577879059863 4.345424060624034 2.2301064907552943 -0.6628321947517165 -0.2640949749765387
P 0.590955306686692 4.9353276403951565 10.463157298926895 0.369689410479602 -1.4818002853994738 0.5028841241984372
P 4.838220339294978 8.334470317643325 13.119105124502063 0.6758867139428295 0.6932933394550512 -0.8619620777107799
P 8.915077037054727 2.1091134308434927 3.6371528105085416 -0.5124861660645753 2.1105404235634877 -0.7821285532219046
P 7.321779891884322 8.354749013649057 2.019138700183876 0.3662104507920661 1.2324297611173032 -0.09104481982366255
P 7.404000786598474 9.188332465731973 9.734002678961136 -0.6808761967376209 -0.435003915416696 -0.5230834819644475
P 5.4917842763815505 2.428152624548227 12.791911129726296 0.5487047820769776 0.18399842663426375 0.46101525187879316
P 1.2229805033384487 5.103345854391743 2.8653262835932654 -0.6367612086962776 0.8250544060511533 0.5528812820521704
P 8.085070009540095 4.715672492296699 13.682173537145236 -1.313101465236758 2.239741699852214 0.18748329985907067
Ni 4.794547402169904 6.366293824039672 0.385929394238552 -0.9882734340462207 -1.5871090713413183 0.2859580935982172
Ni 8.873431969530229 0.20103746164737624 4.249071680070615 -1.3196606065115142 -1.5914313528657558 -1.0666918233551241
Ni 6.663809947211049 3.804200412373582 2.6934929094708715 -0.35567921224343907 0.5392922305138261 -1.719361475751542
Ni 7.995843747114871 5.92001503048806 6.738690875730035 -0.43272540379516444 0.09420162028508938 -0.09482948367707539
Ni 7.07061902426423 1.4532911844290093 2.295579727651841 0.41621017974896063 -0.9848530955107619 1.0446839516254653
Ni 8.073925944326035 8.500082740886503 11.682853575271324 0.1584074655390369 -0.044941854818012925 -1.5270090207256282
Ni 9.278793885095727 6.224554956548695 12.249361992164197 -1.0546456908238675 0.38281052124259235 -0.8931534157119199
Ni 8.78928459869553 2.683866981180514 10.582578539704654 0.3666575656318137 0.12092978030855302 -1.2884461285819229
Ni 0.3411521899400759 3.7273165017445753 12.50289638897587 2.5143206050792117 -0.16985118859960424 0.006170133366453889
Ni 1.2224551007601183 4.069381233004909 8.550717723053909 -0.4572673548005867 0.18154070912239056 -0.2435724295431547
Ni 2.809032623481351 4.1979666008594405 10.993779797960897 -1.2454089469857907 0.09906511902497778 -1.1928720534293393
Ni 2.140950983572493 2.160750364945363 3.243246514668462 -0.5967296466956885 -0.9656682950521949 -1.0368724260008466
Ni 3.396580187480171 9.314926834342304 2.0563602467023987 -2.5384938598913056 0.13891798935585753 0.8765826558374322
Ni 8.938443625406787 6.5755884019970186 9.533528412007374 -2.066189151141622 0.39364463574361885 1.3914262663905907
Ni 7.703738348741387 4.428360240251842 11.47220677699396 -2.584842108138542 1.7674979262474528 -0.5856042262064882
Ni 5.592311303035423 3.8214833919239224 9.672848584120212 1.0651324492878043 -0.5113561662251903 0.3712801520054896
Ni 1.426145384548608 6.534229079734419 8.044338405094763 0.9634620314294955 -0.5842484835095423 -0.45602679752526626
Ni 7.085828046268531 7.692419149334551 4.172700267395207 -1.0610030005004631 -0.38193120396143254 1.0350292021445204
Ni 0.10541787942689124 7.126394655869089 5.312935395200083 -0.03536912352791328 1.1336628900590346 -0.9330394532735803
Ni 3.2348022812998933 8.611993490070867 11.168554504763032 -0.7348225690470893 1.3428252175534356 0.37078418620567755
Ni 2.7571929024194244 4.717451486991747 1.0679600117226262 0.6147368819063865 -0.9271153744796614 -0.2864720571201582
Ni 8.803737778394161 8.100841304479099 7.828875416516035 -0.878881479173938 1.5816534475433857 -0.7531360226442965
Ni 0.8376207561058758 3.719822601811548 4.623052313567243 -0.2812072091767931 0.39809984330149506 0.5282190034188
Ni 5.239231552808338 4.429106864968417 11.790942712017518 -0.3716313646973213 0.7156187424251289 1.3853998576908526
P 1.6290982612096168 2.4904635268203865 0.38873154132298054 1.5219280066582952 -1.234782834730512 -0.01862738529320018
P 2.8183516060548945 2.8767358153732174 5.083725294247288 0.9541024445914665 -1.899919252135373 0.18235831992767948
P 4.927216161992863 4.99078065638174 2.212719132254599 -0.7108205497055371 0.30825290044067555 0.3579011595954223
P 5.038684466900737 1.1099912962301444 2.9161732703098204 1.9613573048361963 1.0002825426919548 -0.6686344032557904
P 3.234581059161649 7.697673175117855 9.11879128657486 -0.5724509766539819 -2.279225616879449 0.48126217505328733
P 1.422043557401994 8.06045904666041 1.7420229451942664 0.5015432938998264 0.3925909976681239 0.2843228719876394
P 0.7091856349535689 1.394095827270457 9.062197133058497 0.5109044233997524 2.9323863499796725 -0.7221490873444788
P 0.9694230625540439 8.933936224340059 11.88950639219447 1.6492768031193143 -1.1155710655543305 0.11803806058305477
