# total energy = -381168.2498825203 ev
CRYSTAL
PRIMVEC
9.26907503651035 0.00000000000000 0.00000000000000

0.00000000000000 9.26907503651035 0.00000000000000

0.00000000000000 0.00000000000000 13.56622824840373

PRIMCOORD
 96 1
Ni 5.237833705878644 6.36907794726795 4.6355125370875285 -0.35053057816296407 0.508142287273583 1.2786494542064752
Ni 4.208818091129369 0.22178115419494399 9.908881095260114 -0.06881531900150084 -0.2701648353197025 2.3150526538803873
Ni 4.47307014633661 8.980463676882852 3.660181550117176 -0.9011441472268802 -0.011309254365232134 -0.2875115541282661
Ni 7.375004296538911 5.074475530531476 5.521251427175612 1.464543555201555 -0.9628863614316837 1.1948883125284198
Ni 2.0477425564030347 6.314140140567844 5.2417600859896885 0.46714810424940834 1.0428281293636492 -0.14799166952235157
Ni 6.567158077043766 3.5264287998754806 10.68105713396835 -0.11830905485625429 0.8903858802691118 -0.07512891992435447
Ni 5.594822855068433 5.188800299864883 12.251538733417483 1.1157016775949236 -1.656311855589225 1.3928118338842077
Ni 5.682916142545706 2.09120524842544 3.933962214281345 -0.6617358763637442 -0.44645432334548274 1.5214045300546573
Ni 9.01900449015416 6.896914684292454 11.18947886678937 -2.875996658336034 0.08787567806706155 -0.010101350100060023
Ni 8.541860323543505 6.977286832410661 13.413458978058687 -1.608202658786824 -1.239437045673072 -0.8983647847095302
Ni 7.075696600208032 -0.3799375247302175 7.282879888404664 1.5372134720624557 1.661634553353719 0.3418772733633403
Ni 3.767619396828991 2.60765029244599 2.7273001452869408 -0.8077922765365959 1.0173014458474545 0.5215415913986243
Ni 3.949886484892241 6.830140268995074 9.511526978866408 -0.556687543172138 0.3520277315337808 -0.8608192223555885
Ni 2.2718595174629064 9.0900704871121 5.68266216989452 -0.2752697606464356 0.7199788191660375 -0.6896194901478898
Ni 6.1249768608081405 7.800223105779228 9.44233889647527 0.6855697455585483 0.3424632277737973 0.8673801634025576
Ni 1.2079272977129063 4.376551269810846 6.538175533768941 -0.26632900651338 0.345279871286986 0.6388584575449384
Ni 0.661487527442729 1.797764876481463 6.479243682711306 3.317810397585712 -0.812827010747026 1.178957757341092
Ni 6.271187247662785 9.102361280377554 5.099219325872446 0.5185585975109005 -0.7818339047996212 -0.21677125018991056
Ni 5.458854795935 7.0118326744169535 2.341625990125359 -0.25315441680463496 0.4850951756461323 0.2188525581989715
Ni 3.351651124299777 4.694545421061147 7.915649968113588 -1.3315321611381197 -1.5283092275942904 0.7625097505497127
Ni 1.6875185000868185 3.3211465989328044 8.834815922872261 -0.429069552210132 -0.970659320508883 0.24930470404124164
Ni 5.407782193451858 4.294037965399787 6.35474703062563 -0.8143272494416363 -1.145712365024401 -0.8983907528514592
Ni 6.496972642197605 7.118102617696304 12.09346485764847 2.0379273280824517 2.196975512529281 -2.1221486972263777
Ni 8.225339955196075 4.5168757941288655 12.53078537102708 -0.7643627445980513 0.22131310392432205 -1.5126794914768336
P 3.082810877036428 1.725169482171487 4.926548511012608 0.23416527729664188 0.05868440121508603 -0.9412286739525918
Ni 4.889603832432335 6.924833137773256 0.047364972538812375 -2.5808849232630067 0.41936286644532944 0.13292577632816463
P 3.622196881337518 6.846787527445115 11.52680367366192 -0.32355893467012664 0.3999764914989176 1.8616959469881165
Ni 7.663819400127337 7.1695274450241575 4.601243840419575 0.2784299035419721 1.6945012221747526 -0.020964260956492925
P 4.1389570739033354 8.762037927787526 1.3807297334357684 0.5822764473848359 0.21058928974891472 0.16618325282971377
P 1.5883023227765547 4.049111931277365 1.6274725062309123 0.3775508155055498 -0.23999319683232861 -0.5222422170100748
P 5.14312229895074 0.06995185415966913 8.08274543444464 -0.10082632469045863 0.2522108219444431 -1.1453750362896402
Ni 8.679478278002163 0.3266125370558951 12.697134676831835 -0.35570569460600027 -0.4068099694809832 -1.0741341385657825
Ni 6.334272571165555 3.4105375568905942 2.1681543271975454 -1.5365149033335346 2.286556089102591 -0.9265083370232818
Ni 8.556737188695129 4.168701535131721 1.2743467074431152 0.07916246656377979 -1.0677302919219676 1.7558035206286602
Ni 1.3350248522045296 7.992797405087714 9.779948263946048 1.1397618038679211 -0.2791906929673966 -0.9916469785041439
Ni 1.523066573906073 7.835445590250361 12.363188447746056 0.5647271256471629 0.47396049918555144 -0.37670337990358993
Ni 1.507244263118646 3.5354939550893674 11.58478544454632 2.2094404777655114 -1.2184933535418692 1.222705334740688
Ni 0.4721221818510599 6.04524427885533 1.7325569348355638 1.7570983281806836 -0.6480339533966194 0.7615070203168112
Ni 7.25737046748019 5.35607929387818 3.3345923189259157 -0.6174239418202463 -0.5639611940154158 -1.5824764576653134
Ni 3.0754975769712374 2.3974554818270764 0.35437990461646657 -1.3215028019265755 0.9126521478664797 0.9082272793259069
Ni 7.846151371714613 2.9780425238845307 3.5324833595745715 2.451053726699766 -0.6040976570249854 1.8039960211734867
Ni 6.699149703061905 5.409070594857512 1.0255499076588126 -0.8360525569338699 1.6715641537626051 -1.8531686262433957
Ni 6.657068103193763 9.510070807205773 2.8386921793343833 0.7921951934292872 -0.6920820927557694 -0.37642672920343556
Ni 8.228825127343745 1.8987051017158403 11.043411223687583 0.92766867587997 0.9069090747351156 0.3514883140905431
Ni 4.145306390183 4.644909525181432 10.74176679358429 -1.5888347957831732 -0.4269944148486582 -1.3628420269949948
Ni 0.36636111078156813 1.9093367305812057 2.2309523093796306 3.1859274606997645 0.8244676803097478 -0.7826528011564908
Ni 6.475218123499249 1.4508697498151122 9.408965592438873 0.12003015131241909 -0.12129410562650723 -1.865779887249503
Ni 1.0001517156326678 5.501548154743957 13.047278614236907 -0.04641972491512005 -0.6767027820862217 1.0314679671558238
Ni 8.597076202489436 9.256886027382356 9.77420977969971 -0.604440899297017 0.44926402488013595 0.6279466957284411
Ni 8.554160385883819 7.076234206549961 8.8856623599288 -0.7092984566340558 -0.28775272360479476 -0.12435886059476002
Ni 3.1014695247312676 2.0285092260668245 7.179695620146482 -0.6482368134360449 2.0756664945044383 -0.5289605095705149
Ni 5.542600887302548 5.007784536907844 8.789437313076125 1.1162675774007227 -0.303263160535568 -0.016579244514919836
Ni 6.305714551519355 6.864732456375671 7.205946567059822 0.4684364840435287 -1.6127964488050934 -0.7762039602073535
Ni 3.04066439364426 6.182352434196644 3.0101830409644386 0.22831138961902614 -0.8384010025613884 -0.0033920564006844805
Ni 2.457843504545347 0.5759645544243611 2.6048380551332158 -0.26815114732378337 -0.43433465726381326 -0.2633781514151722
Ni -0.3536124252179903 6.770428888741644 6.565485009031388 0.8091613889699806 0.11170954726186569 -0.7704310622793182
P 6.561364905255751 3.1942158877886757 7.80362022171572 0.2812717438661414 -0.8594272271040684 0.690127797242876
Ni 0.054466937697175984 8.970017429514703 5.343018240491792 -1.837072234902165 -0.6355396775843507 -2.169467279806683
P 3.2433883299253488 2.1349830889931134 11.438989385337955 0.28803811605569746 -0.22581716244226271 -0.6207411791189374
Ni 0.08700509808861374 8.53000517679651 1.0194832981624031 2.122770389970776 2.1756896065673113 1.5374505277739263
P 4.977391240439202 4.53109455496537 3.6337137068520926 -0.6676465854212243 -0.7267649888499355 -0.8279319847092645
P 8.838368759266414 9.161099407770596 3.1611206559981024 -0.5859559531189522 1.0282342907098743 0.07944323102899221
P 6.6755506384662455 3.379096854962678 13.46613605740024 1.6143385964812327 0.09763584277761894 0.9229668995289265
Ni 7.92438236353997 7.307571776926415 2.085033898383103 -1.7460256153062899 -0.43566983113546903 2.466945458229358
Ni 9.231562914862584 4.033966262954778 10.263638251223417 -2.6051062577042168 1.312028286777237 -1.481080376514314
Ni 0.23328500300471305 8.905124636414072 7.518349612354074 0.45772963914898585 -1.1928591979135328 0.7377343433772456
Ni 1.114281834393998 7.72849900450617 3.2762712999016093 0.5301293330676354 -0.30129935194097784 0.9103175861960323
Ni 2.977792258863288 4.006696644714233 4.976988035682755 0.8248764857123924 -0.38075286738261527 -0.4459532153393481
Ni 1.6357599860639753 5.899052430150408 10.843811892542078 2.2917905980286526 -1.3708774957049616 -1.4383393860023617
Ni 3.520542937338857 9.396802712406497 12.592010391205283 1.4796241036837614 -0.3088902769143584 0.025564221622349524
Ni 4.845863068164104 2.935998000315831 12.724904825114864 -0.346119593579462 -0.3940840372738826 -1.9016891995516025
Ni 7.4614569577658205 1.7417518570975017 5.778737984641936 0.4220527545726667 0.14656213616467662 0.16542811983124414
Ni 8.49401335911193 1.9384045493447508 7.9880256853493625 -2.5066204082214765 0.871699102492886 2.804159264678758
Ni 0.25600721311853786 2.7136977779286813 13.453072223291393 1.036579063130144 -0.8433367493001089 -1.2153175269170489
Ni 2.488820752730222 6.987121320837995 7.508703286146414 -0.8097409156225345 0.38273338814775376 -0.18927124499742887
Ni 2.376785444887438 7.4586298899332695 0.9917604221611637 0.4478499181414287 0.34075524394375506 0.1458075173868392
Ni 5.2063095822769805 1.6285857221216973 6.309205285111941 -0.1552144125230359 0.004551109705792162 0.6639300558015855
Ni 6.263771987774125 0.6804863501849606 11.501570471168298 -0.17629051646704477 -0.8101746607258435 1.388949522715324
Ni 4.369349198643985 2.636069275969277 9.513873908621168 -0.45767281776912144 0.33286170012829125 -0.39312758689788424
Ni 4.272431751899206 8.297119670918299 6.163924586465838 1.3481674557019556 -0.8493778132878663 0.9365168702992193
Ni 2.7986303108784143 9.321630515285214 8.09175312139439 0.6494817415867395 -2.12828772024458 -0.4476583709559129
Ni 0.4082137645006482 5.036555745275843 4.167762577848319 -0.27896366455825505 -0.4210130004542426 -0.3110787999252449
Ni 5.529559298973368 1.720358832318719 1.1796408619601286 -1.5207884937372131 -2.7194216180200455 -1.3956768141368285
Ni 1.6539551800157737 0.7127121427535886 10.953114677115892 -0.6100438473060913 0.8823848643415061 0.48731712299811564
Ni 0.6649356232909556 1.9175120546084528 4.354623419412594 1.530665900751925 -0.7808705124450874 -1.1543952375103796
Ni 8.19818156585386 4.963839852992676 7.9124206224320766 -0.6760432941253518 -1.5770437166855162 0.40921137983362427
Ni 6.626545039677068 8.442569993634354 0.5700397617733222 -0.1370940487732413 1.364378004023547 -0.4456783644114066
Ni 1.6254805820433211 0.6926028848430301 13.64979628741507 -0.9828756600694171 -0.12210837399768647 0.2710320684160042
P 4.385412505377794 6.0626886777434015 6.864036348853623 -0.2782365565842434 2.273585902095168 -1.148013245243436
Ni 7.9626636427151745 1.412634816014212 1.1761788624996108 -3.079106351878452 -0.4222998375864663 -1.790542209661426
P 1.1337932369760333 1.0147968539127703 8.749348564303059 -0.5822039422756876 2.2240677407603826 1.9990123961848087
Ni 3.1887564026956503 5.061804705196729 12.850392341303163 -0.4670948824139697 0.3505758295786027 -1.0897805868537875
P 7.05946645012673 5.869437735970075 10.169447766302692 0.5154673601800864 -0.27581869117137015 0.6893623798317612
P 1.059028879148624 5.639240261801502 8.51712208964745 -0.07251282245774608 -0.5641069755646608 0.4448849219758338
P 8.87946783719931 3.321007562809892 5.532891531385835 -1.0270024751853024 2.738869185221696 -0.6149310001950635
Ni 4.203349336961483 4.758891338744989 1.1537857045433453 0.9195707293631841 -0.5523097258194165 2.2234576179802095
