# total energy = -381162.8274424378 ev
CRYSTAL
PRIMVEC
9.29485920634760 0.00000000000000 0.00000000000000
0.00000000000000 9.29485920634760 0.00000000000000
0.00000000000000 0.00000000000000 13.60396598725619
PRIMCOORD
 96 1
Ni 7.23261794432612 6.570693854054379 12.425141673264669 -1.114017090803649 2.0377234396017614 0.1669689819558028
Ni 3.5989601178016675 7.938460243468785 2.3336918567477323 -1.0515680803398082 -0.5760875449653047 -0.8259172682720808
Ni 1.8534506578022136 2.822318877501367 1.7199355848909967 0.9491679834043266 -0.9816137626378578 1.5951900485772397
Ni 8.557674456542241 8.235300861141129 3.8526019486912593 3.3794194286467607 -0.8884439260513924 0.7735919765058032
Ni 3.202292714251287 0.7868023801812941 3.8536773638799082 -1.987014600392984 -0.22664917142525484 -0.7042863481314452
Ni 8.05459021206843 6.903273204659781 5.750777609127359 1.0454359993001414 0.22345226175451194 0.24123529676954583
Ni 8.73189729401877 8.730270693690217 9.917372908327028 3.4369838573247904 1.6118888493891594 -0.4580980782319981
Ni 2.13586565427505 8.803495593052151 7.932935379267118 -0.6030992976674582 0.08510094353540183 1.2353826730980402
Ni 4.141296551918211 6.505378879718721 13.385798814505288 0.13737661301066662 0.8741095117065913 0.20564402992849745
Ni 1.8589625092012525 7.277316921354749 0.182620742601371 -0.05181904155382043 0.5264248876328547 1.346900416064074
Ni 3.352925199534291 1.5709984818932958 7.983663931342217 0.9928008896029289 -0.43051836884151656 -0.2695266875150713
Ni 4.951027490330785 1.8624573761928855 4.540758919575997 1.9068735719660193 -0.3979108672191405 0.1789017288376467
Ni 3.4544343548950014 5.858921434856761 3.932021871590224 -1.1206178839496186 0.0968485709896332 2.4128489334952703
Ni 0.8811898145606504 4.86945580756862 1.9315042364251942 -0.3726076125676615 -0.27737832234900617 0.2482695779085079
Ni 4.437189093970485 8.179596771032465 4.598071949781077 -0.4599618709136143 1.4953641401268376 -0.14692003372472762
Ni 5.050138572064258 4.748696999176865 5.666405385342378 -2.596777169013231 2.636818244095517 0.13146796083571555
Ni 8.614940082966317 6.080706065940173 10.189220579579683 0.5202763515329556 1.2085280147990412 0.47010255889204206
Ni 9.020827986664838 4.633580170210433 4.501783716732069 -0.4466193881684373 -0.37260529857481633 0.09360075347629687
Ni 8.383247132167266 3.0755015423553558 6.568498408353784 0.8500524707573877 0.19930857462877288 -0.19599365132292698
Ni 7.4038850166341925 9.019154912041184 7.2983781424088505 -1.552801299198384 -0.6441580153809809 0.15354422390946462
Ni 0.8398723072436068 3.138827416860669 13.368059576065043 -1.6586423034946143 1.3334879993129098 -1.880036397168517
Ni 3.503018582994117 3.3361665687206874 3.487961840867131 -0.757126117640296 1.1461787631378584 0.7518944369277115
Ni 2.793449045384311 7.781795394681606 11.761322361238689 1.7891916091708024 -0.197537341660963 0.7562180040037298
Ni 5.39501502115352 7.527897025683054 8.405305691594245 0.32178230238567807 1.9265311982959465 -2.0810519271860675
P 7.80137036777836 7.448686237112045 8.643401870772383 -0.9841473276929887 -2.585767191055972 -1.8251317747108373
Ni 0.15709241230211332 1.0270819217433007 0.37566845805171617 -0.7918509227159911 -0.3767892547491769 -0.19317932180258346
P 1.5896346742290002 0.5560193960803296 10.254220458194553 1.1358632401444633 -0.18651245130536911 -0.6226913608667727
Ni 8.996243084556141 1.1201978194086797 8.031033321367378 -0.08618620617978061 1.1850926665942363 1.3215945903094335
P 0.0511802822234854 4.0673094741166125 10.444553145325067 0.01162935670881223 -2.1931054880509135 0.24384085271319295
P 5.393973996943246 4.743147968341745 7.876873437086171 0.3734817876424987 0.5471595490770448 -0.8643709442625888
P 6.648370990887037 5.564748441723243 4.795615588539542 2.8955385850237034 1.2381579218503322 -2.1029518125829525
Ni 1.4203474068922513 7.511751855564791 10.076606856147418 0.7485813133940785 0.44634607990239256 -0.7930639691874858
Ni 5.013823557871941 3.468032733641702 13.514206362384849 -0.4384926452962449 0.2414471556700358 -0.5894793928911783
Ni 5.350418287574114 1.0263662175987374 0.046517980938902234 0.7191236702545938 0.6707905303668448 0.624793237701124
Ni 7.565067166905239 5.194032284557545 7.421166948010639 -0.1201515073816318 1.2090460920860404 -0.612890572726267
Ni 6.287814114630526 1.9018211041438617 6.849556355409656 1.8612989686600137 0.13130443867465774 0.052694759290554415
Ni 0.058160721347731724 9.06779490929442 6.15271984517176 1.328141904509648 -0.6394091878420858 -1.0317261059132166
Ni 1.7769260834880725 0.5257181556741471 12.600849829212642 2.5051363674767826 1.1670998295612418 -1.534276500921319
Ni 3.0128356028404837 4.431138140748269 7.774598385342187 1.0503223808581652 0.18817029862376625 -0.31068259292809075
Ni 3.8350867163534033 8.738412990192002 9.787522798327513 -0.995704436402969 1.0682499118708633 0.48295473226436186
Ni 7.625279263638751 2.4235136563763167 13.27143022168999 -0.2653841261016075 -1.342307654487069 -0.4241631160474501
Ni 7.789175512743725 4.19337564700896 1.0522152205341955 0.8387367886342523 -0.5491704088594864 0.5366365380585338
Ni -0.09040179883145105 5.854181056756407 -0.33895097646381966 -0.10385842664856307 -0.722917075858755 2.620416405698726
Ni 3.94756380535807 1.7631418075609655 11.076607276649169 -0.6148479535629541 -0.9479066001933999 0.43070014583501953
Ni 1.117279233676305 2.5102253961767076 4.067054794979456 2.8465675544416396 1.6577688997507258 -0.18168829044384838
Ni 1.2886206648565404 1.9536399431820421 6.422459442398613 0.8317493015728257 -0.7998969329489192 -0.3560435375613933
Ni 7.766105672655337 4.473541287598883 11.987120512447065 0.9550457823413422 -1.7388326971022763 -0.11881041997270507
Ni 4.420672129491409 2.9723471969480513 6.456061287242904 -1.9010222553915648 -2.153182940824363 1.1953922487480315
Ni 2.598154762508759 4.846711287545943 0.12724011358661144 -0.6485846836937669 -1.0705199388519628 -0.16746160532150517
Ni 5.564767031441284 6.755531420532091 3.136162580779548 1.0612539401690047 -0.8367590960825911 0.21799200997088908
Ni 5.012336380428693 9.355461501113728 6.882137624733518 -1.4254108508661516 -0.5127540750139814 -0.6282999653028017
Ni 6.663159111588336 8.356013195237784 10.288121597499297 -2.104820747470891 0.08075655052377705 1.181602651163107
Ni 0.5531649448751951 0.529754912946664 2.5660614732834626 2.3528638111908897 -0.8431117777734964 -0.5825186453026291
Ni 8.766771605062942 1.259462692109855 4.2863781473942915 -3.1135403651866054 -0.06972908906502184 2.0283114022592423
Ni 3.4461712252259535 6.982214442319202 6.354113414536435 -0.3517904187119942 0.17246188674957394 1.0816808405647886
Ni 4.643014452116038 2.0757743907088018 1.9367827868628236 -1.0430183909975843 2.1898443008011386 0.2412368394314426
P 2.865781638280296 0.05202518490843079 6.099814437114107 0.3629695752572652 0.5603727053332092 -1.7000596900991365
Ni 1.9573671816491829 4.184796492133222 5.5827683849059015 1.2860413757951723 -1.4517500029813128 -1.2566536666616746
P 5.720372266300149 4.440972101591748 11.509676136580755 -1.7166211940022436 2.6303789162280764 0.379412808414953
Ni 8.588644926797885 8.075754606057655 0.8458712092553092 0.1674495211366471 -0.39456149113093336 0.5585793608782121
P 2.8704104780724062 2.309131121272488 13.40934733983322 1.283797831176634 0.8740604036362107 -0.9380065674708684
P 7.351211050566145 0.1905678470637287 12.897375351164198 0.12594548835558955 -0.39933191593638323 0.518523630507907
P 7.05991946372892 8.226145425006132 2.6049279262768525 -0.4669994944866861 0.02947409819971698 -0.9501540014666797
Ni 6.07291697408116 7.958314062336149 0.7595498535337706 -0.4914082623483537 -0.08035725820282935 -1.8893389055163654
Ni 6.24720487557083 6.052626296839842 9.725488909226023 0.44245317260588957 -2.263994401751991 0.09775745595714777
Ni 5.376072098470146 0.15549183757881743 2.401059135955072 -0.4630842185926799 -0.6984717983321971 1.7151736629224397
Ni 7.974793847379144 5.947956889412228 2.7170796952158085 -0.24345904389374198 0.7872363067621151 0.00010258701613530719
Ni 1.5507821635241403 2.617989991658082 8.701056022303508 -1.1439935825610814 0.8516712373077332 1.3485250961516906
Ni 3.2724503101365214 4.955963060470564 11.378247759519596 1.8752945116081574 1.7166445910410113 0.9870806992897
Ni 4.018362746515706 5.477162985174944 1.9064462259923638 -1.459184604882487 -1.109962204007985 -1.2998001201421614
Ni 3.6218812401457305 6.549938433862046 9.273496645815005 -0.5853553434204758 -1.6414071705632505 0.11004012997924273
Ni 5.996029900265226 5.572537533582255 0.9396749264881906 1.064565778151057 0.7290386153754606 -1.138564184015394
Ni 1.9529149441784583 7.908502912846354 4.158106304456426 -0.4231184768330197 0.2640983174106484 -0.7172254247906164
Ni 5.695926787076757 7.061360166877067 6.089393970666448 1.3396774159530733 -0.08948056066033622 0.2627214916677798
Ni 5.113269254530145 9.065145874473634 11.902272391880244 -0.2583395605500003 0.7276970137459016 -0.2766956944596848
Ni 5.4429579039802345 0.9956652982546821 9.286937941444263 -0.4283663554955203 0.7510542004146032 -0.9374779486609082
Ni 6.153419748055989 2.477711979323694 11.366127263357123 0.7913449296138501 -2.043428460406339 -0.45797440816994034
Ni 9.100038775235847 1.4851511639817925 11.11822221945486 0.12044281336980549 1.3554426492071303 1.0096513855013645
Ni 9.553906741197162 8.333268675215106 12.086157235308375 -1.9907627545815072 -1.2517462020577281 0.5850434686070117
Ni 1.3873041830750799 6.318050291023567 5.75538878868733 -1.7819737512661247 0.944238150202877 -0.12291107240463994
Ni 6.813977494051747 -0.052528966267331126 4.978643445966003 -1.0581922705245455 0.2832237253861897 0.1308048733304199
Ni 6.684342095295603 3.464472802636927 4.7049721233735635 1.7618435561751529 -1.6019253104185445 0.3662261345213499
Ni 7.436909650733323 4.095249820331639 9.35997694362579 -0.05935237381638811 -2.4552356259915973 1.0421462728052762
Ni 2.1295544450002657 3.098952471663576 11.104032687674469 -1.9815898298329873 -1.0175678121349636 0.21879290860562964
Ni 2.745227316786987 0.675858013429075 1.1996549217437258 0.34244728693419735 -1.1199116019112132 0.4337379042200788
Ni 7.666037220442772 1.151270533113547 1.93321913791444 -0.9750407374060306 0.6655773615970215 0.30701002917250997
Ni 5.778186289406424 4.037974899048542 2.6639149605914887 0.060393413486392766 -0.04035834921238856 0.0650234560592364
Ni 4.745694759713308 3.8792280018408145 9.63219269129565 -1.0469238966995777 -0.9390625195392086 0.5336111209686487
P 7.394302016984262 1.1705015964265506 9.845434417453502 0.817558097674108 0.8646463094111625 -0.8434277663520184
Ni 0.6083169203580552 7.1141642609714 7.98880677683815 -1.2420248610049063 -1.6383444724775267 -1.35282732307147
P 8.984410729023297 3.024807381258632 2.565122692522412 -0.5584970855770511 -0.07106811959141955 -0.19130704448053504
Ni 1.7818895382049134 5.086853265194448 9.646694530339124 -1.224129211671408 0.022948638376373384 -0.7684597974855605
P 1.1019613060108484 6.060629170456321 11.703028723406966 2.4521225342839124 0.7144699735326663 -1.0883088874042677
P 0.8518636048656977 4.7634851198781645 7.275781410644595 -1.140469628568223 0.03761266814645135 0.8476670012443466
P 0.9137143852444889 6.910235054065987 2.140230520070984 -0.19031665554280772 2.1544075572600834 0.9572895840701964
Ni 5.131329165606591 6.9664410665617496 11.415522932648711 -1.448357689470312 -1.6902139076533083 -0.06607580858315072
