# total energy = -381176.1042102374 ev
CRYSTAL
PRIMVEC
9.16218204934420 0.00000000000000 0.00000000000000

0.00000000000000 9.16218204934420 0.00000000000000

0.00000000000000 0.00000000000000 13.40977955676451

PRIMCOORD
 96 1
Ni 8.28070690539297 4.353154294687404 6.788445811077262 0.8625508603347145 0.5309893670750855 -1.0108068392620464
Ni 3.63785357415554 3.5004941397661544 4.9445749831693755 2.6679998119046435 -1.8497858258140918 1.470581276755203
Ni 7.649020258916437 7.736656530923806 5.271732685111447 0.41528098306647193 0.1945432920296456 1.8573584959550271
Ni 1.8753154369543357 3.072299558243481 11.410542218714827 2.012891982380379 -1.1623029223932304 -0.0541533461139519
Ni 2.9520734044242762 7.086920385664783 3.7600624241861818 -1.1056638337429474 -0.5990454393130586 1.4384715407048516
Ni 7.972463612225807 1.0367742046847699 6.015935509150603 -1.9923750933739495 1.2572861580393506 0.5839281240556459
Ni 5.7704888960368965 4.644869011304509 6.951080041071406 0.1964857604679971 -0.31002284785690476 -0.4911485809290639
Ni 8.044441714984814 4.352806131766727 0.9029687807409317 1.2322636678530843 -0.6208825897928082 -0.5090617137640588
Ni 6.238254942149201 0.35891290896249406 9.174153430253371 -1.1631210474191518 0.2964170841480121 1.1829180275404207
Ni 1.890607118917775 5.663859420488359 1.8511666735325039 0.9093637069231952 -0.5062257869771605 -0.3515646758544333
Ni 0.06772226916282964 2.8466624990981106 9.62918770808743 0.6696427899156467 0.038988979668687695 -0.4811868417306616
Ni 4.257427815865346 8.836833035900368 2.895211985950159 0.9770595676082722 0.33158617584997735 1.788917015353177
Ni 2.9851855306171284 2.5863740671632085 0.5389094740798973 -1.4244232901419016 1.8737567348073925 -0.23090640403971202
Ni 6.970056752684753 2.362129659700548 10.476189299329459 -0.18617640812218905 -1.2617760754899043 0.2226271947500553
Ni 3.2327476915830564 6.048093852184441 8.868437066915758 -0.32286653658879233 -0.43807586947380034 -0.37793493831784586
Ni 4.780817469646939 7.597345551742202 7.9502288286494895 -1.3084333703371271 -1.345166978312735 1.450734931453237
Ni 1.9101958642969445 0.23624869848033486 3.9034927204503274 1.0694909833668163 -0.8812810897543661 0.8461865600440781
Ni 5.725493419630395 2.841192676370625 1.2940235408094425 0.06651983809910479 -0.35093012759422787 -1.536764043229863
Ni 1.4027850561380228 0.4992069902859056 10.660908969331315 -0.01765319430538895 0.5889685146930308 0.41926567874583276
Ni 7.926817620888566 2.513809584748325 2.7822477776817167 -0.981772142592593 0.6086870761678806 -1.3226361442000705
Ni 2.278772126744663 1.6810771759447993 6.125963238048595 0.2795316212465831 0.2305168819107772 0.3442964243277941
Ni 1.1041895407464761 4.527144133204909 13.135791190893263 0.8176719975441531 0.5874343374366915 0.7946120304008961
Ni 8.10563592938494 4.9512432193185605 9.062718390181274 -1.866468428676095 0.43783649976948463 0.7027390582489833
Ni 0.8012025914633316 7.539889507648296 9.68140481644335 -0.028102157552854827 -0.6566679749225336 -0.613120429348886
P 6.389421784998086 0.914374781265968 2.1531677720192035 0.033217624402549245 -0.48053429574832723 0.1537897642613674
Ni 0.6315428002172 2.2381928221214915 4.146786220765107 0.91716289125264 0.32072789297923476 1.6058179606047314
P 0.1809833321320602 2.2497738203250788 7.030827674270793 0.9212576301473037 0.773241792255236 1.2781036090053344
Ni 3.882667080484541 4.228686050545208 2.072736640033434 0.23888993646582082 0.37627246301375844 1.730302291033762
P 2.9409505153268434 0.9093511568078773 12.771380056438701 -0.05827893824655124 -0.5278094266852071 -2.8494387053418477
P 0.07458565979123737 4.235383605677188 4.621063829712294 -2.139398742556077 1.1300270930786602 -1.0424877153050949
P 4.437666262590799 5.618680700439396 3.978681251825264 1.3581042551996931 -1.615098614575709 -1.0530755181232703
Ni 0.9047636522188454 0.9970378208169228 2.0049630626507153 -0.058815013255679345 0.5826873096700094 1.262975238004328
Ni 5.548608331561993 2.224000602012823 6.1963645292642155 -1.1272623858493296 -0.5384918460997178 0.9238292475292219
Ni 1.1139381025254451 3.4579174794401495 2.199391897048412 -0.9137309827529553 -0.2760184658870021 -2.044802715046046
Ni 1.1325190078710745 7.423227442674974 12.069311359329005 0.9247245056499817 -1.089133183077776 -0.46817243174886475
Ni 6.003648106705324 8.232019069590862 0.5329623016637987 -0.24391412915328964 1.9052134106547767 1.1084349687301813
Ni 6.131817872425249 9.024355417413679 7.011357121041012 1.0604425000113027 0.8807722684387477 -1.9172425739051688
Ni 7.329654076651842 1.5078569607256345 13.247950043353084 0.2628785860709344 -0.15522649670789396 0.2509008448837679
Ni 7.398031441836473 7.319694784684042 9.653029538408138 0.2604110983670483 -0.10897980703552845 0.27004939278776074
Ni 8.60995908216838 7.9065050631216724 7.529269622349421 -0.4793803846495422 -1.6440880598295233 0.1386973887046192
Ni 5.063076814313014 7.448322659510121 10.388193869782864 1.121221321861572 -0.8602232406428023 0.0011587961947915526
Ni 3.9742064420763463 0.7110513004631743 8.135351634664762 1.0023273410361253 0.5160731120848855 -0.10583637631054031
Ni 2.249279062490432 2.1085204585333797 8.74316255074673 -0.5854913547777078 0.05007351961762344 1.0231843869907926
Ni 1.0249091788353668 5.0610794586101795 8.25526169320072 0.7888980107352542 0.6695558866287953 -1.4159250228629034
Ni 8.808366136043922 3.043713550019436 11.946679216484277 -0.10237335746260434 -0.09252577524456322 0.4448720664600273
Ni 4.915235843574812 6.670004450335635 1.970137608400845 -1.9581917626240213 -0.5363372616505602 -0.014164464425840123
Ni 0.20141957935761542 6.797257997843251 0.9210466822880033 -0.9307000065071263 0.5503867977650909 -0.23581952507061324
Ni 5.667698374797934 5.445332214670508 9.135975533564663 -0.9827296214098559 -0.021029824087105718 -0.6606146182751074
Ni 4.456998466870521 4.0922428343681325 11.006250854133087 0.2689114225285756 -0.053047257533966705 -1.3026537875408726
Ni 6.380626090159917 4.7986654004227205 2.3003270764074477 -1.0701206465310151 -0.10127035420641269 1.9721541383413845
Ni 3.141043410713035 8.18711521500559 9.697603554436979 -1.5503849764474074 1.243772182713316 0.22184943604376633
Ni 1.6198096640876876 0.04478841109051972 7.844801431395502 -0.0563845494373158 -0.7242679334596946 1.6000818294519024
Ni 7.2674153734896825 2.8362084492956634 8.199248692791201 -0.2667943761855728 -1.0175562421707378 -1.0819765174283367
Ni 4.455486706820211 4.585287340958046 13.291531795057994 -0.8964660250249206 0.08224624769542609 0.40261650022492596
Ni 5.381270237265853 2.487825636247238 3.5410129739873137 0.4763547104493409 0.06527208173493275 0.4776639161790677
Ni 6.72156004914227 5.541003720399828 4.762000180002534 -0.4273212020604576 -0.19390848665912414 0.4654316357789339
P 6.943513911074158 6.451523055428399 1.044311015699225 1.7880454113815014 -0.7817698843309053 -0.20278290633061852
Ni 6.964467821589667 7.3765278003935775 3.208866463879219 -1.744452357281899 1.6161298840537004 -1.9256521381251028
P 1.726384166543486 7.0209801609248945 7.276414468770983 0.02420822181508734 0.11277346975000578 0.2286831711361481
Ni 3.654986854725721 5.672022924760033 5.930770277661832 -0.5547242487981802 1.0782389047627752 1.3253995658778206
P 2.434474249744477 4.1207372207709465 9.60277038837192 1.2029803455079346 -0.24446048857506286 0.4735992591913908
P 4.055878133521583 1.0390281014870506 4.8129171747151895 -0.9212440033005489 0.5290417564304114 0.11573923724654907
P 2.8773558092104667 6.486861591877162 0.015354901020088779 -0.48782568720341796 -0.7416066818484582 0.6799804243962289
Ni 5.164053223491603 7.507464545114676 4.886979673907199 -0.47052344847954447 -1.0005674209222253 0.893913433806396
Ni 4.847985426791321 2.3208448670538986 12.45677362778705 -0.17586345623195518 -1.0194092362190765 0.23055313446535133
Ni 7.162160225259609 3.2410669529508236 4.998562225111478 1.059031478596389 0.03483253429815291 -0.5705293341512367
Ni 0.6917218448380885 5.023157186802704 10.576669118236977 -0.21842678351546255 0.9225740349658821 1.1024766942642175
Ni 8.516917122708387 5.8620099332644555 3.049920012189618 2.135848306200657 -1.8870290264362661 0.5364161945176116
Ni 5.7723946299185 0.011074329532180505 11.892382292786413 2.274623342220747 0.692085435189879 -0.5856165675016624
Ni 6.646503453189905 3.6876958449051567 12.315461628029764 -0.678237216452877 1.7203387520631468 1.1269420263954335
Ni 8.158739936970377 8.080155900900623 12.593902175186935 -1.0840763373801587 1.1365270989807073 -0.8459551607595625
Ni 8.07158009843341 8.845216432542996 1.4149863340713438 0.697373680172012 0.4688985112816118 0.8386491140164525
Ni 4.301094775864 1.065662564918877 10.591298374432915 -1.8504568837391873 0.277242053881458 -0.9392676935714791
Ni 1.5916267918770586 4.188427422296345 6.021835954437874 -0.19862311852597403 -0.8234022151597109 1.7878206969652048
Ni 0.6222404367076254 6.3664338700512495 5.398884532397496 0.12295863781312372 0.4756659119124324 -0.2780390958614567
Ni 8.563763359903753 0.6524994593873469 8.909591756576262 0.90599427623033 0.5359587952652188 -0.6855527762776839
Ni 1.1114917998985798 0.07488251449202553 0.05395883917752184 -0.5427035701882202 -0.0004268031247734585 -1.7585558865628166
Ni 3.2064888776182765 1.963712170077921 2.733636904209443 -0.6541079275048413 0.03425480741781198 1.1452269407475502
Ni 2.360141466179837 7.93364344657027 1.7849625779474705 -0.3336325168560448 1.2654434970391626 -1.5478244148090827
Ni 8.44223617622307 0.43725414720598654 3.7688049783680353 -0.31822209583824546 -2.1629893853918234 -0.3129863013606029
Ni 4.32163638818397 0.6629049496245416 0.9685067856856163 0.5427740184148394 0.40961298614741715 -1.004917727471121
Ni 3.799117141704071 8.08631288728734 12.272684315915264 -1.3482618151879748 0.1955380518427471 0.5165914464822007
Ni 2.8672041114180815 5.84177983513667 11.349742894364205 0.48870603292584225 0.07666026896721637 -0.057838508275022966
Ni 6.082791035884587 0.3593380342130055 4.579399722725748 1.0212344623532732 0.919664317518255 -0.8793401639779113
Ni 8.329843688119109 5.790105127962435 12.336031643114318 -0.7411785931721042 -0.5979712324122733 -0.432038662140785
Ni 0.5895057924182446 9.03437884465634 5.87742622090477 1.5100736784228703 -1.2101457529081223 -1.9553707482354585
Ni 2.188176469911536 4.416730676439535 3.805762472397949 -1.0567475676582188 2.2984512978782803 -0.2022018370161679
Ni 5.055701257703925 2.8881305353872215 8.999383890037192 -0.24533569209116457 -0.4241302059269857 -0.548157651324256
P 6.546544046226979 6.812558841988813 7.263353778154516 1.8439291099229986 -0.9644508777053262 -0.6241028965023186
Ni 3.4119966226392155 8.489467225067605 6.349289594862521 -0.911419046790327 -0.05131356267231162 -1.7486532827371242
P 0.5759228574207618 7.673858934652138 3.33182111553468 0.1324804612606299 0.34974202082339767 -0.006768943292717376
Ni 3.3300042548196713 3.8216561097268755 7.556424497725839 1.0388927988649848 0.2021558142695809 -0.22416497155082038
P 6.741551930534855 5.268373829145121 10.888339067518174 0.22760459335998864 0.7107256759988856 0.28064799423921344
P 0.39464083815148876 2.338262175269895 0.45594683117351753 -0.5972271551573972 0.6519574568207417 -0.7905936532701223
P 7.805336248118499 0.1240605270377183 10.781006852600797 -0.2059980708338065 -0.03226940155666701 1.0645603788344182
Ni 5.581244024284444 6.450854216133413 12.629156419560166 0.7557672896195565 -0.8781944804092423 -1.483344489958142
