# total energy = -381172.6404022995 ev
CRYSTAL
PRIMVEC
9.14405623359423 0.00000000000000 0.00000000000000

0.00000000000000 9.14405623359423 0.00000000000000

0.00000000000000 0.00000000000000 13.38325059323133

PRIMCOORD
 96 1
Ni 8.330134628315777 8.13419579171561 1.0820628067465252 0.43931822652133373 -2.3820347763278913 0.7564524886120392
Ni 7.859252309407701 3.7354292608128636 5.747263361242408 1.4475004836763392 -0.4043879903030519 -0.19808215842083948
Ni 1.159338311423787 0.7523994632297912 4.426216073258077 0.7498213564487667 0.43314320805887346 -1.0485838009005037
Ni 4.473546622638613 8.274666783308469 2.1421899370360715 -2.1103848718222302 -0.24572110045504134 -0.26606161178460636
Ni 5.69996573046425 1.4140185651566541 5.8877334384296445 1.333822499834193 -0.39951729247431195 -1.929607009007793
Ni 0.6822618088348749 7.54653473087078 4.276804937902665 0.3998098840140663 -0.9204276780468407 0.4210330550589007
Ni 7.126447644243548 4.888513037784787 1.8818860887302575 -0.781141506718287 0.6151562288319921 1.0358221303594612
Ni 8.294171055217566 5.973116977753788 5.541415110920773 0.5683045585857761 1.4388091265499285 -0.03764403560501904
Ni 4.616660246477947 0.7916000322285275 11.087501005756767 -0.6345657437068556 1.5130530727661684 0.44575369773403234
Ni 4.260224935171499 8.92519323063949 5.315719686581932 -2.0907051340051153 0.06167922217735184 -0.9589669717726195
Ni 8.67874262750118 2.4543744170955897 11.321480945027458 -0.5882905147893996 -1.2037655604133914 -0.9149643409394242
Ni 7.917061032806351 1.6004933035730824 4.771730638225548 1.0297548411194588 -1.5327438663268764 0.8123881234373944
Ni 5.734822872760304 6.125584971102266 6.817976565413418 -0.7105189593047182 -0.2593379199075275 -1.6112219052291217
Ni 1.3107090180263246 8.488463961698823 2.073627803527202 1.0873292970998178 0.8748309632536483 0.9884860642776588
Ni 3.8765311922846384 3.925973104245489 10.025473740585499 0.49765244348585264 -1.3384219462794176 -0.16088960853094228
Ni 7.703318718753293 6.67841632181969 7.84411066671934 0.5321972713402576 1.1333219617798482 -2.0260408610575102
Ni 4.811300627095418 1.3285947919851604 0.23328224778139942 -1.8908879951710402 -0.6076131263774116 -0.4178621135300868
Ni 6.45526477392019 2.197920216456785 12.501080656215045 0.7550180701583578 0.9362757008226908 -0.4740900827848803
Ni 8.27332260704469 0.833210974445847 13.294158367928105 -0.5361097190207864 0.7759458214499605 -0.6517407128242453
Ni 4.91331171824305 6.941179921247655 4.520554386834719 1.4937386887082726 -0.5147155696157265 0.20349278791344957
Ni 8.288410299801377 8.948108235517221 3.210789035409903 -0.6418177972835786 -0.1308660655856585 0.5578267989829039
Ni 7.744832733974721 4.956233918121769 10.616785108671825 -0.18097403798564315 0.3446370954966645 -0.8301899275055057
Ni 6.2181136759537265 8.592706202563202 0.6650581814697657 -0.3027553676612141 -0.190231294917853 -1.2696482791491297
Ni 3.087143107254804 2.1513861143726776 5.761689938734664 0.3276423607108809 -0.8099702580245212 -2.1572763941674458
P 8.683515824846022 6.174039324991771 3.065340019612959 -0.6694389014349567 -0.102734597456765 -0.09555659165108703
Ni 6.936799918320108 8.217360983001708 5.023563432852699 -0.7175013041598225 -0.47861316746621446 1.1032428830062806
P 6.5362079595457585 8.774883234558029 7.1476728275325305 0.3125119328273457 -0.03536398132159071 0.04331177541375767
Ni 2.2936676290963387 2.7208322152348887 11.460706516163675 -0.7787197846506717 -0.8840270279306195 -1.6040264159219473
P 3.5572024611034236 1.7802563047268394 9.194707886771855 -0.3518215290602457 0.5883000278710965 1.2407688771106178
P 1.103623576898641 3.3759946990675114 1.356379006798004 0.6712224756979407 0.5097507694112834 -0.1474255126062364
P 2.1485331688332314 8.931036282561626 6.118822027124785 0.010693732268420294 -0.31618861034798446 0.6489541512180436
Ni 7.451994333651761 1.734929218063267 7.27655372787139 0.5701341555953472 -0.45269953292424625 0.5988482357005881
Ni 6.746393235730724 2.8632508908017926 3.4814521850030204 -0.9597753266065276 0.7321499073109327 -0.5714986400430415
Ni 8.86421151973383 3.9117266646606907 3.18617689369845 -0.1594366781344996 0.3135540009386148 0.34864287422194795
Ni 4.291323870362706 7.988750433541152 12.348993055605158 -0.11620897779411599 -0.5193831502947249 -0.40802044484931665
Ni 1.4392012959759963 7.527341356873031 10.183061491009413 -1.0429029484656427 -1.614727347279219 -1.7825895304732526
Ni 6.645589160003627 1.508293784745404 1.6062174827644071 0.639207356243925 0.5558671041533717 0.2546258591438389
Ni 1.3152170377408983 1.6441287398366629 13.243315586554935 -1.5001111678935197 0.738604918907657 -1.1990470718917994
Ni 4.328576755387397 0.8202200137795292 7.450201184227769 -1.043161601443668 -0.12113932521619782 0.1557630859376543
Ni 3.8912896990175425 4.770152374122636 4.613634478276015 -0.6011231477776937 0.6058143826057759 -0.37431045419138115
Ni 7.202361598950222 4.914034098684128 13.027229650893673 -1.3253458298217498 1.3007745682402887 -2.0193037994439935
Ni 6.9517138740086875 -0.0411939732538621 11.513557332281916 -3.60067956784596 -0.09830047294481135 0.6395667964658727
Ni 5.820648984405309 0.8176962542638653 9.202671445330521 1.8078745302922865 2.2618115351680594 0.11460795185558327
Ni 3.7715482828667497 7.626426350031489 7.2180555426340405 0.8708611799726228 0.0872195325403014 0.3647099549871396
Ni 5.184268392040707 6.448361011476978 0.651620076454477 0.09724194977330994 -0.8699111573545276 0.8249636461095599
Ni 6.539088337253853 5.191163010427702 4.302742053359841 -0.42160872505671265 0.11889938014208555 -0.8103613228153528
Ni 5.561396702564355 3.555812564558565 5.675047262869555 -0.8008240727488789 0.8529958696564277 0.976997089801453
Ni 1.933510686909909 2.922879281387461 3.3680960633079806 0.08182355833571069 -1.1491959526976272 1.1306940372386978
Ni 1.3496261212823597 1.3498272905191153 9.431925736348697 1.956288117843405 1.0667028790987179 1.263922689519262
Ni 4.388415459266037 2.857471847273171 3.4382638930884104 0.382739815905657 -0.9950773443419315 -0.46861106194818003
Ni 8.824617756317798 6.757622136764185 12.264892427368144 -1.0361823419123575 0.1271878454031229 -0.4115649676674654
Ni 1.42707627743335 7.4073621952606175 7.676632705092011 -0.17188056032480722 -0.4929858912481187 -0.3687206188084295
Ni 2.933833860734437 5.4330232973454935 8.413688441991063 -1.9237775468102092 2.8746404014184557 2.649291693972179
Ni 6.021662772205453 3.3807130320750574 10.513774572179765 1.0619705066200549 -0.691397407983919 1.1205350944278252
Ni 0.7481547923342434 1.5571779092770681 6.713560587480932 0.27948328450715093 0.5213970954009601 0.8228275736031636
Ni 0.9944618337899606 8.504685517426315 13.10948317977502 -0.14120472850750523 -1.1926483674543074 0.7600777440694523
P 3.81900593462869 6.918072891189385 10.158074442993097 -0.30554295770868023 -0.8475518158227209 0.3513286485842272
Ni 5.105885542155666 3.723148793314542 1.0921011516606407 0.0714103334221867 -0.6607778833258491 -1.0887500887067443
P 6.193616749350598 7.015210200373796 11.99000106618067 2.8294638048818173 0.42939428253940237 0.3289633935151496
Ni 7.553868263956152 7.347468627044681 9.986514574670869 0.9647023315944998 -0.3991444825159255 2.0607664374641543
P 4.1733289689492015 3.2453261357383907 12.248337113588763 1.8638834415577383 -0.31880702180743803 0.5124185460514336
P 4.916887044223575 5.359761118941511 2.5362201210696953 0.9226555389360949 0.5415599435020803 1.2740466653271414
P 4.0732564177193975 4.629059586707078 7.0975259088374125 3.13100458340964 -1.1982772836053106 -3.3764924848079527
Ni 8.903156055158513 8.689395452993022 6.139887189429983 -0.46094917452754813 -0.48754775095168296 0.6932537444663673
Ni 2.8255682351349414 1.8055121879959108 1.399888255085801 1.1077150598450212 0.9721976115302805 1.196265138271288
Ni 5.611871892877633 7.854396815556913 8.988592630008709 -1.0910599677868436 -2.1266694679148666 -0.9597534722296569
Ni 5.187121337580153 3.06674271783652 8.411546904025236 0.8975757131493316 -0.14452119447524786 -2.533772028935604
Ni 2.904069957750792 6.978167628642077 3.6566925359522573 -0.9192850798019652 0.2310820103856278 -1.0247095653860676
Ni 2.260557001537574 0.05846252341810595 11.459502243960005 1.3126450944256296 1.6514650690198847 -0.609819132889795
Ni 2.2476638822727693 5.0876431500044 10.712970521604133 -1.0439478447903892 0.25447544960890367 -0.6301169639068825
Ni 0.9522803024647517 3.792853933850434 9.329249872314149 -0.7790278028093939 0.1307159131610394 0.6368563395132452
Ni 2.944404389720334 4.596058687822907 2.1103110138496257 0.10995528357492032 0.43492164011553475 0.4940734678853427
Ni 4.754817791848113 5.480462660995002 11.884326866112836 -0.8882045563470767 -0.934328604398649 -0.9705137960699544
Ni 1.4934621255627705 5.1689612419348325 4.211602330647618 -0.7885907639074805 0.05145985844218879 0.5412185010022614
Ni 5.6209519407002935 0.4821871156081315 3.55792392713888 0.7542603660567269 1.0637252845276324 0.05617603297093551
Ni 7.906801401731804 4.077654708759377 8.119885343737298 -0.8345692875201239 0.12596528584993144 0.33570688288657025
Ni 0.23008822894508998 5.482364624687966 0.9983279407581588 0.26203166468960676 0.1957244568219403 0.12045849709908932
Ni 0.2758213117046607 4.453694876593301 11.947240716096976 1.8146429593643714 0.3600542013826831 1.5237005251776854
Ni 2.5006341974932123 4.439494157289583 13.125047277860569 -0.018762625319483816 0.026424255629799654 0.6793924131032428
Ni 2.1953415926038238 6.6170779927215975 12.103811647469652 0.2516125262388118 1.8272526777085822 2.7268017125342006
Ni 6.621805469785359 7.308167473427567 2.839042916375095 0.17446194789873826 -0.8259458075171712 -0.8867696236727631
Ni 3.227989005152526 8.750093698155982 9.149687125991527 -0.3839310080002807 0.35751009480459073 1.1884538697569855
Ni 8.946590322185337 8.990756113709455 11.026393106875322 2.908905750359229 1.1190903915614985 -0.10752867641129867
Ni 8.318439380415292 3.1856886010965066 0.49486169192936963 -0.01662192482739718 -0.9166347866633118 -0.10602098151752064
Ni 9.003987563054258 1.7041594688958426 2.2878136043067445 0.6184919780734445 0.038369086696501666 -0.3593705450520972
Ni 0.8709073461970227 4.929057783047301 7.0819746124305665 -0.6467584291183055 -0.08102368814223465 -0.7386887368707149
Ni 9.293561535308045 8.964110333895526 8.60259275614413 -2.9749877295899667 -0.5321401928500772 -0.5329894282242498
Ni 5.9732084183159495 5.393658135334866 9.0427949376357 -1.2193546731009 -0.09231185946154424 0.5224288790995842
P 1.0845765078003513 3.2586398815891395 5.3925535333439525 -0.47583920426550314 0.5055801829733615 0.04070107726378797
Ni 2.513499884589369 3.1876271410143353 7.6261639156180845 0.06669493022438835 -0.2720918771390862 1.4296467433243703
P 3.3470811933119706 0.9097631842764093 3.230368288579974 0.23729636672645588 -0.6832752930974169 1.6143123712289875
Ni 2.6452474465519975 6.1689918059604425 6.064526450124389 -0.12707317420212952 -0.568938335515033 -1.393670068119445
P 0.011867156157350105 5.834547949853893 9.07443245773804 1.1553586298649134 -0.07333917501378337 0.7966717411434021
P 8.52825889435161 2.1859323587573813 9.047117333009085 -0.12590049405026704 -0.1392946559689859 0.8802171672662261
P 3.0428035786625776 -0.13329839389689235 0.3743338869439854 -0.7236112737123022 -0.3107581833610325 0.381532168750801
Ni 2.4300146513357035 6.635603850615566 1.0697155876378261 0.7951447629759145 0.8680365660396341 -0.13612577132270104
