# total energy = -340891.79186583095 ev
CRYSTAL
PRIMVEC
9.07865331840640 0.00000000000000 0.00000000000000
0.00000000000000 9.07865331840640 0.00000000000000
0.00000000000000 0.00000000000000 13.28752681582836
PRIMCOORD
 96 1
Ni 6.140256229730244 2.027190605389191 11.39705692519052 1.607672754425283 1.0001257053991164 0.14324309909377264
Ni 4.771812692426964 0.40198006211651066 6.074512255526123 -0.2566570306412547 -0.5653040811965555 -0.8779214292535139
Ni 2.8227166609031964 1.3434136907388778 4.691334064260559 1.0102535378617374 0.5818897534693785 -0.4404178873434157
Ni 3.584588149418931 4.455339924422461 5.000534831141349 -0.45424296615196613 -0.5075218800807647 0.17078141372335748
Ni 5.3642492783560485 4.56599054826247 2.4016805059543764 -1.554560705091652 0.764826057387715 1.4846958617797141
Ni 7.375307117207359 5.944919929882716 2.5018816000897712 0.49142368896732136 0.12438200052321159 0.2554105598286634
Ni 5.133488074158038 4.505544876000673 11.639939946992008 0.7481876775000856 0.8300770560767252 -1.118889845514918
Ni 5.377522269171121 8.199022390560486 12.550360896664799 1.0079655131585095 -1.0379736294848252 -0.8186253625963579
Ni 1.8445008692936447 6.59308128846769 0.4181999837240395 0.40838502727758696 -0.005194913937378151 0.37479099337222543
Ni 2.664984142147344 1.638224792474736 0.3927171123705342 0.5563299027224032 -0.02003377872242356 -0.006435471212698595
Ni 0.7237756444266762 9.101168147943303 4.576410118411895 -0.5177247887556955 -1.8658889020235414 1.7247425375577974
Ni 8.797696011161223 2.5103292867884197 1.6564365705698345 -0.5140612238611791 0.3844830238490088 -0.6666477118430648
Ni 7.015093398623501 0.6860974183796785 4.762182965096223 -0.7545429302941521 -0.6151302606900632 -0.08986108392820653
Ni 0.872384116828803 7.343613539276158 2.7303876668606533 -0.14062520185495136 -0.2405207872010245 -0.45757820117278614
Ni 7.827841659045982 3.387290860504336 4.223852427977386 -1.1548927459720884 1.2395218920773943 -1.0987069428091398
Ni 7.70793988770901 3.8775835205371325 12.593691492124561 -0.009347759763487127 -0.28060505681641995 -1.3626846754815243e-05
Ni 7.755956883892946 8.769670209077688 6.977267190531164 -0.08740902284328818 -1.3877806992182036 -0.4698076533594426
Ni 6.864215262949302 0.7736120026895045 0.39912845718148054 0.4824924479159626 0.36019432650497324 -0.4270010997168775
Ni 1.8003695366314947 6.549930450339075 9.445239113470885 -0.4623162300784038 0.2159868066154022 -0.5158820791200018
Ni 0.3285210485179666 5.014503246782983 1.4132875442328585 -0.15328068583543278 -0.920922101184756 0.319204771466489
Ni 6.605083267850402 1.922858724098627 6.951343096637568 -0.7480598936729698 0.35262217058467016 -0.021121355359647494
Ni 3.4089979200384235 4.709369716485746 0.656022564294119 -0.0011048030284045488 0.8159979522758397 -0.6262140293080505
Ni 6.303662906666274 5.4458845269259015 4.639459548379412 -0.7210663958032615 0.7187711720111815 0.5225636049052355
Ni 5.3327372734866145 2.856843317862057 9.201346545445979 1.144391075109816 0.7555451463064213 0.7323216570021065
P 0.21202014062786645 5.63327700532118 12.580948694649845 0.07891306955713506 -0.5201274846599171 -0.5112430376860937
P 4.169888914020624 6.2645793051212095 12.541658099814367 -0.5991045746857682 -0.009787418404067015 -0.17904648194562714
P 2.232649603430154 8.516139742934259 1.3174115204287227 0.33796405435186316 0.7611455232123343 1.1024604963143014
P 6.298887535141835 7.655619609961226 5.613700705666912 0.6472217419079693 0.07906090798890901 0.5969134805717203
P 4.7140543014793 1.253571339777216 12.637367984266987 -1.704294811226407 -0.6383473222364748 0.9918868624290919
P 3.725361744205869 6.151314029191774 8.313832853245549 0.7995696315164875 1.2560404585577079 0.3274811525426683
P 4.683313982122369 0.9608846428640165 3.4818631897249936 0.06092306073761765 -0.8836565319650782 1.6571047838041655
P 0.11925446337177685 5.342723791883728 3.6548669108406493 -0.11770304584113922 -0.3162708856491456 0.13969729072404327
Ni 1.443124537607505 1.0982446640897587 2.6532000504387505 1.3657923678725703 -0.79738316538813 -1.7287514016068741
Ni 1.5941842463434686 6.291542904793413 4.905449558021202 1.4546463506925011 0.8244980193270509 0.2699501482057351
Ni 5.807142290614913 5.526675460758545 9.26492707661916 0.3822374223479417 0.45943402343460227 0.9728691836760083
Ni 8.479988546336712 2.342365126002071 10.269835924038885 0.5407765283688365 0.47114514122394346 -0.26274874536128945
Ni 2.311143638031461 5.346754713854926 6.977027514089633 -1.0626256237055507 -0.9056281511401628 0.22549834565026328
Ni 0.25744245775917074 0.1448998426155625 9.564282044225703 1.1829059433555629 0.05051780624389364 -1.0746640429273233
Ni 1.5947743587942071 1.3876358099319113 11.381152032845156 -0.762304576517442 -0.19518863892312835 0.39004534842813476
Ni 4.261447130415972 7.001348317847838 1.4144305466566736 -0.4440917366505771 -1.156995394137388 -0.07041248828529163
Ni 5.4764795878334205 7.834287502738663 7.829010989563751 0.2768723292468651 -0.10527664715232837 0.8782003939465134
Ni 5.360626895773824 2.787972655534332 4.675215823567619 0.004880210910436757 0.022318975212174467 0.42447961884660446
Ni 0.8208391560547597 7.6042707480938905 7.259214748706231 -0.33697340830381967 -0.27223405914390536 -0.694280643068985
Ni 4.878178192009305 4.763941500199422 7.1784002103755595 1.0174372000943703 0.0649128986233011 -1.208889769013834
Ni 8.11979298505903 7.260562020824533 9.402639349584728 -0.42014833846110217 -0.5617348757880584 -0.9591680320398318
Ni 4.426814796419071 0.3947062452621773 10.50008236860679 -0.4791348442976393 0.29341583542784305 -0.19902575328103142
Ni 8.426388178503482 6.996291508077663 4.970624300676686 -1.5688673515223108 0.727010014981206 -0.05064173341626762
Ni 7.179153738581887 5.974752383930819 7.298745019983239 -0.018316538921000713 1.0829568790637352 -1.172215296410936
Ni 2.504264746525446 5.303449538623809 2.837604744102674 -0.7779852204774924 -0.4365643179252804 -0.6367630084684904
Ni 2.3139943351011825 5.26550076871478 11.545225990783175 0.7155565217286257 0.6257280908105675 0.2975367995747521
Ni 1.1474418851751718 3.124890550293653 3.745235823681432 0.500534393019338 1.7873823238762057 0.35640734865871526
Ni 3.9290140902822634 2.673962930051657 2.4720509617722866 -1.5127021171846526 0.26977608452171603 0.25261011426539076
Ni 1.0428376442919594 3.3149158380845325 8.29566828414651 -0.2573815675121051 0.12608947013262153 -0.5139681499267406
Ni 3.886880061299536 2.730786219731229 6.840856796418455 -1.210095359286161 -0.27820698889788864 -0.5650875943103753
Ni 4.1265111095648015 6.923980036229478 5.836957495222148 0.2603578765316097 -0.35997089764025747 -0.21332494351252293
Ni 0.8061271987251949 7.560956494209686 11.674062064624326 -0.19860229259036766 0.14228279206303238 -0.7513984711278995
P 0.1955641740400422 5.635900736063693 8.00812645993844 0.020372135898448787 -0.10214350083998536 1.1153039279358727
P 8.44142242801768 1.364385379372815 7.9829195796388195 1.1453747791793243 1.79003056013233 1.123722491016871
P 1.8510738141295626 3.4710868285092 10.426881188755955 -1.893519005035984 -0.7991664825407978 -0.8931572723666618
P 4.265968299653937 6.029532976665527 3.7398140520571084 0.6491490408376691 0.9148843796311082 -0.5542869041504455
P 7.022192905338538 4.013400170737866 10.45979493766222 -1.1357251719047021 0.5989220263613169 -0.2803404903011237
P 6.032065920877158 7.849893707397424 10.147604570319459 1.9345972631335326 -0.4994861542604817 0.6056292631781635
P 2.543166775008744 8.380813340000293 5.579804646496493 -0.578189936020288 0.32277320554403766 1.4817810021257642
P 6.892059491971071 3.6554742727322553 1.4067109679357053 1.9611498168110806 0.7071742112022015 -0.8310162800615429
Ni 5.0489658139061095 3.229249667543481 0.34399016551509437 1.1381371237803044 -2.0805845006313457 -0.4519369437266088
Ni 1.7359020210515872 1.0392606549751755 6.858370426091065 -0.27082560883215295 -0.2008710340198863 0.7058467506400296
Ni 6.735670613872284 0.720586313596762 9.52160238819237 -0.14889335540101453 -0.26322491366675954 -2.1623692353093213
Ni 2.7386664906118594 1.6294094203260119 9.098873064442586 0.12042558697862485 -0.6911685798025645 -0.11525792673475634
Ni 6.360231994059373 1.9367944565891435 2.5263040847625646 1.0945091026777085 -0.5542681350973679 0.3162621438983973
Ni 4.0978316444589105 7.008910835870378 10.327490818341344 -0.9644421359545777 -0.036912042535000945 0.718642102632485
Ni 8.289100786502445 7.297720947914881 0.3490224629219304 0.4859366977108212 -0.16916907493091513 0.4392873732833983
Ni 7.665306532806427 3.8439017175795973 8.335584398179769 0.18063542369930183 -0.3281900056842348 -0.17987797670798697
Ni 2.940848094887952 8.468013802913264 12.586556578662478 0.7161442759112957 0.10479173709610985 -1.0668977687183432
Ni 0.04677231284553219 4.915155546037887 10.471036125916134 -0.11681395836796656 -0.5437929465976571 -0.6859718660929734
Ni 8.934320661486813 2.19885885663556 5.947377521273716 -0.10934567501537942 -0.2220615520545724 0.39370891332265096
Ni 3.5918238359302936 2.8115136029922536 11.286584242951042 1.2294611654072825 -0.7065383773904155 0.9175459856236715
Ni 1.059932748057199 3.399111266825282 12.723989229112927 -0.11305603398743108 0.24512923250731336 0.07565316785894069
Ni 2.996364058522811 8.321084881332471 7.913545959930003 0.8100044536965664 -0.06670727151956253 0.6124367730183001
Ni 5.700740476420221 7.824201119157579 3.3701149567266104 -0.7042475244737098 0.16407597667872387 1.096099329982964
Ni 3.1266699662989565 8.138231729481335 3.4039855956683818 0.40839711146244506 -0.053160900293695544 0.1416544144504141
Ni 3.4111677181265234 4.057867413564283 9.038746960769496 -0.717842489549325 1.3929429601454333 0.168972899759709
Ni 7.467600704502858 6.460868863543006 11.564413724085263 -1.2355369392877174 -0.5847976711447929 -0.7295929452170338
Ni 0.34871197298631107 0.3436424531018131 0.5123111173678129 0.359246103659091 -0.45184824066754437 -0.14888795608437586
Ni 4.6902682303879955 0.22430628185224163 1.4184569293013276 -0.6768611620409569 0.9490414851287914 -0.12379553189212228
Ni 6.200547564889539 5.589817492987562 0.3057363528622994 -0.34474431049849014 0.964874595506306 0.06229345872258304
Ni 7.9093770424318635 8.987140265154453 11.450725382921915 -0.7329250949140603 -0.7799785967584374 0.5869540553661633
Ni 8.97064435249304 4.760918308721024 5.9913853842538645 0.3771561511702924 -0.5141830941510241 -0.09081984829705005
Ni 7.877728857766104 8.462012813221907 2.4832921500262004 1.080817464123229 1.8821976664858937 1.1664223438782428
P 8.64403980764201 1.4719401825097196 3.6683804859625604 -0.8577704082269357 0.5064638711298955 -1.2566593230886294
P 2.0126829177541126 3.4128200329885914 1.544740993759363 -1.3111790514030643 -1.1018254338334637 0.7796446104577863
P 4.743523609403871 1.258519205710331 8.054672714322075 -0.2938246408304875 -2.6969594323617874 0.9167155193025761
P 8.539744240963799 1.6854247098807265 12.376666290049124 0.26816451706022204 0.9982683404754034 0.7968792291685179
P 6.405679731419324 7.732633824109143 1.229372189970394 -1.0115390894423806 -0.4120750745346645 -0.34878119957202514
P 1.893135213887584 3.077100520436924 5.91349417221762 0.11859778974126671 0.7153618892193164 0.24819373036525003
P 6.799811297941013 3.9865636722088977 6.192479365889981 0.0877563788803779 -0.3614307700152356 -0.015929526746062888
P 2.2298987715444043 8.654307764284859 10.333882190115496 0.9477826730210258 -0.3402775329763882 -0.7182137568458147
