# total energy = -340870.07085104985 ev
CRYSTAL
PRIMVEC
9.20925689592876 0.00000000000000 0.00000000000000
0.00000000000000 9.20925689592876 0.00000000000000
0.00000000000000 0.00000000000000 13.47867835314084
PRIMCOORD
 96 1
Ni 5.5998082380389285 4.818964574314803 10.14018450977967 0.282766583244113 1.3663071027254599 0.5246533975547286
Ni 6.707994930069485 2.8375469556547865 0.93702436850262 0.21598834927729896 0.9473597265509942 1.2363301246129739
Ni 2.901155291468896 1.0488422420542831 11.130126188029134 -0.6594470803295676 -0.5759726166539952 -0.16741558257491812
Ni 0.13997425489205081 8.550205424917994 6.9316933001181615 0.7084739038502315 -0.48549318241549927 0.196425596654023
Ni 6.386711592651381 3.969336972528483 12.079753424283544 0.5303795014052286 -0.9115648283395721 1.2846923179664453
Ni 7.293482632070039 3.651055852784536 8.213933101345114 0.016439890723578137 -0.5279837474795422 -2.969531591571402
Ni 0.06238810930544157 7.817581429113759 4.639643770303629 2.1679523858240537 -0.6913788960411577 -0.9750978158962109
Ni 6.572489927438992 7.8601281949254265 9.903755263311503 -0.043279636624241585 1.14901314726286 0.2335289292642236
Ni 0.08014631894064461 4.479796860445129 8.972850445865559 1.3096258479833316 1.4757815900092197 -3.3077884945733356
Ni 1.1321399686271252 5.807744044372616 5.87438498840789 -0.002292138468286375 0.26933231211607805 -0.44933190200359385
Ni 7.783792666394493 1.0385186653281187 6.384472822355101 -0.6507711498221244 1.702100117567933 0.04061905907294295
Ni 4.360463312525738 6.8992435633185965 3.2793085515962614 0.5641134033225641 -1.0413641432236131 0.8133564008879348
Ni 5.00388644823218 9.207396399344878 7.086441965484598 0.02065778545966765 -0.45043747636294684 -0.4105889769074412
Ni 7.572873060899988 1.7189998498713888 3.3895636142911623 0.9769366688771627 0.4191818607827749 0.6262281703754377
Ni 4.096608899696717 7.554915010395063 10.745903106831104 -0.7418928456303094 0.5204678987184714 -1.7196211571708322
Ni 0.9397309690376956 5.441749765825585 11.181197041813805 -0.7807255022267909 1.100704175744827 0.8918349540108125
Ni 3.316879556029564 1.5076197815434236 2.316216461165826 0.778744210130704 -0.8583753888007861 2.882804682396803
Ni 5.044674246020032 1.205445651713894 0.5443536361619409 0.036247926588440796 0.7415359765115229 -0.41956701203633545
Ni 4.101554270528073 8.414792514854195 12.795187421589064 1.037127479434446 0.735231888670366 1.4358053067265983
Ni 2.793471453236034 4.106748291289497 4.7218234931168315 1.4362025421650169 0.5140550532135921 -0.5487510619338808
Ni 2.544186084457674 1.004002371331987 13.78194822258499 -0.5592781867174498 -0.4369360994424023 -1.6306882414838497
Ni 5.140920187469757 6.922994236268443 6.050295604674462 0.9808010369285753 1.2752507129375716 -0.5415961960566543
Ni 6.64866889860655 5.838935796711168 2.1079979306523944 -1.6525261632945478 -0.48979232401148554 -0.6367946330373743
Ni 2.1355897845589604 3.9865030269598565 7.262568078357228 -3.5879803751117367 -0.5404248014563725 -0.18103317335835276
P 5.963886991198767 5.010065859457208 6.806247568547429 -1.3865776800490377 -1.0773228207064092 0.8481912491789327
P 8.916070773871656 7.612307097957468 9.987107324498693 -2.3367440228108918 -0.3345596566560044 1.3919016633651125
P 3.429407463270422 8.334414122645486 8.500638442747402 0.4987456765500314 0.39016644738703127 0.6631576964119353
P 3.4347304136252146 4.786501944555901 2.3998383535734233 0.22145837125293472 0.29327442475397236 0.9397024671160527
P 2.1905782561307063 8.211894171918555 11.994204034455084 -0.8649610124381039 0.9945806072111709 -0.324303526145635
P 2.1602798016890645 2.1071884369911724 4.3776321297341125 1.029519328069885 -0.9466051077731569 -0.4141952062014609
P 0.8582456241773504 5.8476569627768935 -0.15809162553735234 1.2964695131070316 0.1469406025500179 -0.0005314470234377943
P 7.248458576214359 3.8467341384915286 2.9442960543357266 -0.7999406417026611 -0.5560326831969584 -1.3778999497693818
Ni 5.781801568335501 0.45285506652518315 2.7370481794752273 -0.5932612285311138 -0.17935450010434917 0.5950841406724655
Ni 7.804163542146746 5.96613404982605 6.263663030591639 0.677255312155582 0.745770840528477 -0.36207843090156355
Ni 4.894609408595547 4.715222297936355 0.7360627322445118 0.7429706520755204 -0.9393440553353694 1.4452677376910785
Ni 5.262178470033009 2.2632761282773086 7.650497885364608 1.8499650317044332 0.3197740137063977 -0.5394151292449355
Ni 1.4709301029733626 2.877478292572403 12.05657004154452 1.0606260767770186 0.7904920946952515 -0.22038082191803982
Ni 4.179906626269559 8.802677196503895 4.591552111051442 0.9229311611949848 1.318140313212246 -0.5782544707096363
Ni 1.996548427367499 4.0372644497204435 9.800346362024477 3.1661659618021214 -1.558299603308794 -0.30443764045964344
Ni 3.7758412806520885 1.8224474300364233 5.899670844444491 -0.23456199851442833 0.04617032790847533 -1.960058640629431
Ni 8.389163153543834 5.706884265331624 3.694788770855195 0.8705140810458493 -0.24116613409450727 0.5354587157003488
Ni 6.962934782442728 7.961724714499954 7.401020964047528 0.4150256725225561 0.41276541573346975 1.0704317500135305
Ni 5.085139719824461 5.985436651804676 12.342829654924019 0.7719618971015478 1.863082800033314 -1.0667018506574533
Ni 7.974194048030039 0.4806624170378086 1.0048772507155603 1.0747967118504458 1.1494098684806462 0.00929402370741625
Ni 1.5591916188908992 8.49531825516961 9.69448503568645 0.9189814325186173 0.8301333632359574 0.038874565578010466
Ni 3.994588754315407 3.205834339112446 11.032243761669292 -0.5619436493647548 0.6614121744757383 -2.439073671519754
Ni 7.6748839970246285 1.9006248099011946 12.461145579981462 -0.2472709614406645 0.3261763176883156 -0.7553613124303894
Ni 2.2331618589690505 6.196549651689235 8.647057335456553 -0.28778409106336245 0.2960031365390451 -0.3404497968881943
Ni 1.0084043960198608 8.096981067200376 0.4911655742690221 1.556408814043984 0.5691627928210132 -0.3269779876540046
Ni 8.848833990929885 4.023266379583271 13.068818381298101 -0.9532506381141326 1.4599333101230534 -0.6173383240849756
Ni 2.9916086104737007 8.156712305956757 6.3854830778117115 -1.8176593775931922 -0.9411152883031791 0.6710993198565152
Ni 0.5821428999783035 3.6938328500129334 4.4291477906159065 -1.5059110624047483 0.1609538861099744 -0.20842030712205398
Ni 0.7994988549589074 2.025180006352017 2.6288136276935474 -0.1899307329582987 -1.2049750073404604 -0.05151308027762741
Ni 3.1456058004959297 4.841149673630887 12.647016928261433 -3.1983595158155302 0.6597070188591735 0.06723537610889066
Ni 2.2410818197045557 3.2317399781228833 1.285167423922089 0.6131021745164409 1.6353925889380545 -1.593814765496268
Ni 3.6086748535929143 6.699909202713934 1.0861940661788592 -0.2437503498819157 -1.3505889206592545 -2.0046017173471284
P 8.040270464631492 4.074875053957423 10.40072727391045 -2.9575407377581127 -1.0771940084380287 2.72891567355341
P 3.203974069265269 2.421767435554104 7.917361883273121 1.5637359438330167 -0.6942096806217335 1.6817164117052585
P 6.8416949183928155 0.8302421164976712 8.31089920666637 -0.04592118801214672 -0.26901735197882054 1.2190921634681329
P 6.6532274806578 0.005780650411251853 12.333624081957494 0.6508914774500726 -0.6437931758423945 -0.2988820007487369
P 3.448645600452364 5.508259017490491 10.49988978694731 0.6395660251349243 -0.43392970851591073 0.1602889988324659
P 0.3434638321058523 9.162519691595904 2.480750882668945 0.12381995737215451 -1.6455846989797078 0.7982419138439995
P 4.2651567152562695 8.661315106631797 1.5991505835785234 -1.2071452755189016 0.43309744242260256 0.7155179551812065
P 0.056278688431099566 6.537826285336154 7.802590601107648 0.17903953996709165 -0.12473347032535936 -0.001086548195959419
Ni 7.126408297577557 8.381381331658366 5.062726230942982 -1.223429871611538 1.347749908548563 1.0220505304966656
Ni 8.521269940463393 8.011998046657073 12.298188704145776 -1.4761194329646126 -1.0378741277924834 -0.5620650054339675
Ni 1.8536668101449842 1.0806510145896724 7.219207214256004 -0.558834928532444 -1.1209652399867083 -0.768530759932812
Ni 7.5207210403823535 6.040996097289913 11.148902020526283 0.7007749925440769 0.16974860158346894 -0.04244068566271401
Ni 9.152260579666425 1.6608986495454563 8.37362897939424 -1.1921950819669727 0.3722864817828169 -1.23343480534305
Ni 4.762548667959333 0.7472326396585749 9.512886782500983 -0.8224095122291384 -1.2115313204017395 -0.7871103227072122
Ni 8.577759520872217 6.667750478425115 1.1817299739393907 0.5867080007936283 -0.851308968872308 -0.08384058876573948
Ni 4.81649649352746 6.529786604263949 8.655279359810807 -0.45204544428001503 1.3563615614769737 -0.7802575614514369
Ni 0.43305240190941946 0.8907147004159209 4.914609151304031 0.29073571749251864 0.8568188429469438 -0.28166666531171497
Ni 7.855726170237553 0.7597296009586685 10.25673502033363 0.5693342854018711 -0.8386390867141235 0.41518379536697525
Ni 5.374660330990521 1.4409816002851499 11.620520947514946 -0.5254380982395531 -0.05952078107345232 0.8429685673274128
Ni 1.3808359449786565 5.656380701757775 2.993870403911654 1.7917655405455657 0.3289487382271302 0.02731977086087553
Ni 7.30828190753743 4.051179636547592 5.015213833935285 0.3486359322434125 -2.1962980268462817 1.744296548430325
Ni 6.2262310859340415 2.5847804878554723 9.803433304859992 0.40195829781563674 -0.1225122943043245 1.3239489494742231
Ni 4.353418231173806 4.267799771920328 8.410209988735604 -0.8194810257284337 -0.8974708121403512 -0.44785248924459004
Ni 9.204559948290767 4.0672129524086555 1.9551896556661574 -0.9922915540666781 0.44618821416828963 -0.4674661497104594
Ni 6.2553968018053725 8.260859789628649 0.7262244833448139 -0.3543319541869252 -2.468315084883375 -0.0854747819350528
Ni 2.30474541105868 7.904507602814263 2.521887711284559 -1.2304019320539972 1.9640024557685276 0.5165734487600716
Ni 7.111876090553571 5.905224026216014 8.693073228255505 1.5213968167451735 0.34104834970414166 -0.7163401939721856
Ni 0.5786516707750129 0.6925839896579223 12.194820323588097 0.7551268278220802 -0.555699725337572 -1.0850117047102346
Ni 5.148425731655149 4.967067840068749 4.651491479008544 -0.37291871605017707 0.07685875813126763 -0.22979003104708165
Ni 5.159946511748308 2.8006915104646803 3.699317883285104 0.29577199436484547 -0.3753831184302696 -0.41052881309346717
Ni 7.677223148218602 8.062473982460913 2.8085120112281583 -0.17118353425778263 0.37542657007369534 -0.2717838589803642
Ni 3.544790240078729 5.410935593010469 6.5472952430434175 1.0801682605750043 1.9392239632722665 -0.838550383655059
P 6.551750681419973 6.628684811634403 4.1663671771145125 -1.6218217922321554 -0.121581554959939 -0.07961858026459191
P 0.2001926633262307 2.095188775551215 0.29251269865788027 1.014889236861536 0.29473969644558917 1.2243163879815495
P 6.011636987028528 1.1593901591112645 5.001128275859757 -1.2979424981081324 0.13035133073276906 -0.34012506655892394
P 2.3702969000299894 7.16147714697384 4.513402358956678 -0.13585837659392733 -0.22810621558675553 0.8117422623232795
P 4.248773447641777 3.045142019491714 13.018327710683588 0.6646576779962295 -1.8643837782329247 1.9856472877318123
P 9.10706154793403 3.3025315341389625 6.410216378448161 -0.4925189789140292 -0.48846614900089425 1.299798834590581
P 1.0486120106375532 2.1443385783946933 10.02081780853627 0.630271744317192 -1.5977650083932675 1.845771562448376
P 7.0576427780287005 6.2235972385266525 13.236681949087133 -0.7086739356761794 -0.4552438966126547 0.450101947400399
