# total energy = -340855.02943997283 ev
CRYSTAL
PRIMVEC
9.44723948572776 0.00000000000000 0.00000000000000

0.00000000000000 9.44723948572776 0.00000000000000

0.00000000000000 0.00000000000000 13.82698992895912

PRIMCOORD
 96 1
Ni 6.5493647765697816 5.5001638269637 9.447871321996509 -1.3350430025048556 0.9233106560215906 -3.2646165871715516
Ni 1.293185351811456 1.3489240636914106 5.809768753358593 0.6418681909055397 2.4577069703502255 0.758505771596642
Ni 0.9917333929339183 5.8408029344646355 3.575798025443288 0.6817683695345871 -1.7920876997716753 -1.5778538712916375
Ni 2.9779776671564506 8.742919270028539 8.07057908812999 0.8884434118307603 1.6222079719269806 0.5934553468197908
Ni 8.526105128054816 5.4743256274735845 10.514014950566235 0.25943433627607576 -1.2709001492783596 0.21205096189610576
Ni 5.567881638278193 5.669250515985297 2.45141500075045 -0.12655304003260143 0.023737452826255893 -0.04116207606060653
Ni 1.9898814613536822 3.675486239278622 0.05210719309238606 -0.18561462208144805 -0.14092473537324116 0.1584167215104175
Ni 5.038722870512089 2.6978953635793297 1.2618819243853154 0.3716403635583858 1.5156645422470865 0.16663602409641623
Ni 4.991070995474378 9.016766395666545 6.628520360506828 0.31695788441384126 -1.1256934987003129 -0.2177971203512636
Ni 7.702759328434171 2.4099812986211098 1.3810163355992422 1.0183358006492396 0.8390337510493808 -0.05449993082009323
Ni 0.05930882361206224 2.301064076711958 13.749254170042654 -1.9453781557991208 -1.2825935264558876 0.4838407344137409
Ni 5.62973271398634 7.867462498419787 0.6228007484483589 1.8033000235477268 -0.37779121365113 1.3004403248293217
Ni 3.487939644661527 1.5260786950766494 0.09514314700729205 -1.100766139331014 -0.8335182205477903 -0.13116765598647734
Ni 8.25769016501528 5.309329593069617 2.361027594007627 -3.126992119816137 1.7895878161679568 1.6955111514965058
Ni 5.640162466175402 6.954764709483783 5.053018433023402 0.1603458202123303 0.772202038136812 0.3578672210336934
Ni 8.069293318861032 7.728909286821241 10.229151399178532 0.29189991300394885 0.8361127207478438 0.9038934278372432
Ni 1.924364856796481 6.650223503354594 8.18982308731982 -0.37307966710807355 -0.6609920562191841 2.3702809782260723
Ni 3.3046443077301917 6.1444466528601644 4.400038478625803 0.7286778896019322 0.02252414924444508 -0.6197127378544232
Ni 3.0765123730730486 4.133856842957185 2.3659911735367336 -0.236740751333302 0.5012190777911883 -0.29357524382384276
Ni 4.798564600223897 0.37369688726540023 9.295539311876453 0.33105909970191366 0.7221480589032144 -0.4704203472427769
Ni 7.954707753370868 0.44682891142369124 9.142336266292782 -0.13231282533451408 0.6487649180253731 -0.5185251731698037
Ni 4.443159457694424 4.948067162173098 10.974592429345673 0.9356689204766272 -2.9839050866842545 -0.4428342100943922
Ni 1.1121762467911287 3.152524860494424 3.8803647391185923 -0.31671131562067395 -1.0057412518136806 0.6826500008085921
Ni 3.417302636402812 6.661919185610083 10.512812317003132 -2.312974174084804 2.5533946882625385 -1.4028067403133906
P 6.7703357038362455 9.296820357525762 4.679163776861664 -0.1500575509124448 0.03336571994463931 0.3444396347738778
P 7.782522369858317 7.007234676565354 1.0473407881875794 -0.2951762697623755 0.5548484330808702 -0.6696978115232983
P 2.299637543577403 3.7920935139793475 5.419668624493673 1.1895255055546095 1.4649783287461287 0.5263171584103968
P 0.27032991844598947 5.066922879827625 7.5458586333878195 0.08611164418810331 -0.744413298059318 0.6958271616204984
P 7.598546831697259 6.43457137181498 4.239590345221668 0.07387087914753729 0.7432753278001328 0.38919739860554264
P 1.6071926917209358 2.4459658331212366 10.310592270302656 -0.4816820361995252 0.2172556460254968 -0.9065131248482774
P 0.400465639826731 4.113006785818361 2.2178074461940485 2.6745463547739097 -1.6137526420707757 -1.6439913863506592
P 6.419049557642308 1.085100458952493 10.715363961803098 1.5928518873623663 -0.7174059162325387 -1.9579184543579764
Ni 7.43298396293519 5.516158003101457 7.08895896486853 -0.3555578561742263 0.5820113666489073 -0.4945781754359031
Ni 3.153507373381799 9.067885407527974 5.0900194904723906 -0.2297568638163011 -0.7339476226413036 0.3712251303978381
Ni 8.880310471192976 4.473966905057226 0.33859283546819086 0.2466029888393624 0.45763733654549577 -0.6293086090729744
Ni 5.279362950004666 1.6910936239592202 12.231050693647889 -0.8182265844960424 1.4826497778839627 1.2967549055579344
Ni 7.029520714078035 0.32561327339160273 13.550228234950078 1.037671010642742 0.6099482022684916 -0.09092114976160472
Ni 1.3238321961061292 4.8790834207921785 10.178088126028982 1.5141169952543085 -0.022322574756600266 -0.9604067895429393
Ni 2.5811841692462854 4.162793736938252 7.478659475510988 -0.3236306684483265 0.06244926757415696 0.6603688208128885
Ni 8.885308060783569 0.5800519906082241 4.457475804132201 -0.04898542875976725 -0.09771220454150913 0.14172691955956238
Ni 5.898875114452108 8.284529771871373 2.9375160859512546 0.2752283658855389 -0.6748469598244055 0.7154017413183164
Ni 1.3705487944529726 1.946480844001731 1.7164547378645996 0.8259105834038616 -0.3937737051223154 1.6425068313853326
Ni 7.859696867713799 2.7503086472250904 5.221057423206443 0.8702109479831336 -1.1415795738029502 0.30793665475183746
Ni 1.320034405906851 8.943512502121262 9.668896098526993 -0.5721254749937631 0.7903388569468388 0.44998084844150255
Ni 1.1984389888548348 6.7273413177742665 0.7536648519792606 -0.9704826857217028 -0.7332110015855953 0.624867542582485
Ni 8.911892592178516 6.9990439200907915 8.138234547665096 1.9755487658452298 0.012819263251855343 0.5004035238684285
Ni 6.4317655417423785 1.2027091410191975 7.197182759412938 1.633328507320174 -1.0944520241875282 0.2580765366966007
Ni 5.169453767968837 4.258295879039009 13.165755826537174 -0.7073639586155044 -0.8070841947259778 -0.48594492524093735
Ni 7.414287876357152 7.470177744065934 12.674648649230404 -0.5292165914453789 0.055694722459142795 -0.07865261680689681
Ni 4.78340178114469 8.925600536405264 12.714000179817653 -1.1336140390989702 0.48578885927904725 -1.272988399265956
Ni 4.818800586808111 6.684800399198769 8.124297035523316 -0.24420723491367619 0.24309960367179423 0.20883656872386613
Ni 3.363944628826882 7.4637347268621825 0.38779405775137793 -0.6554279318678454 1.2656615265872395 3.4786485840534285
Ni 6.24705311891579 1.0346522010814834 2.182452097831414 -0.8930176614650038 -1.6431174683861378 1.3003505933289927
Ni 4.763439764500224 4.968681038329379 6.063743611125502 -0.42265644959493665 -0.39787590021614705 1.0615550163491911
Ni 8.545717596845119 8.021329684926366 3.073352271526634 -0.5453618337466736 -0.24889949818302295 -1.0459982995615147
Ni 0.3495875325674945 3.768097526153062 11.96009725740799 -0.08987856742970327 -0.12964196337057027 -0.10343856550232508
P 0.755672390330869 6.9906925605481 10.171548746984355 0.00446394930862457 -0.8179262796468042 0.4492082319415361
P 3.3710111638245444 7.264303505203565 6.627138229396992 1.528668153595606 -0.33706519668667756 -1.9859231671010185
P 3.3197315488949863 5.2849840573891695 0.36443953747367697 0.05935905868460744 -0.36749343126954775 0.9536843832174414
P 3.852792026492688 7.429753007094014 2.713615569777337 -0.052356659224845316 -0.5797007162378597 0.04051415806396248
P 4.2452208998454735 0.06920575150450978 1.6652677058801977 0.7303588768487809 0.7731962837292813 -0.5646880448791113
P 9.169358204867397 9.216254300760973 12.480573067531914 -0.32050780654862865 -0.011516742390347907 -0.014426202727659026
P 5.341119553319794 3.1463841549483273 4.014763054872255 0.514650777816062 0.21043142401481177 -0.6950154643524805
P 6.650129030961577 4.220998178275948 0.8327873705787514 0.4370430573339118 0.12391380263754144 1.0866435838867028
Ni 8.663505776458555 1.5944389186636583 11.195257266058762 -0.7240658447512176 -0.5614664526180201 0.7221907392156917
Ni 1.5859080615742345 6.208820141461861 6.02515258330204 0.8303009991620732 0.0034565910900327566 -0.5863853273468869
Ni 6.727945941089575 4.594041316581671 4.557514510545627 -0.3623730793238469 0.13830632391378764 0.4608023645370386
Ni 4.687200543335609 2.541571894854311 6.029161991661676 -0.4887173457797519 0.3950394592086164 -0.949964511163693
Ni 6.522638536585308 3.3852670479307903 7.064402755751654 0.07578712233364368 1.6934699526967607 1.2282524898111622
Ni 3.0650623190394035 2.6998887310719852 11.808622111892596 2.6966776394553102 2.7124061059341606 0.29347599924181716
Ni 2.006763677985797 5.746406119362177 12.396780778545597 2.7252377104811902 -1.2097834844726971 -0.15928524015829987
Ni 6.90989977004007 7.827623490284571 8.161173389413522 -2.643301023606383 0.7008752655673671 0.9895114202183797
Ni 9.18711901475457 5.1860620146612035 5.4477231463239635 -2.391220042371585 -1.5159687037510665 -1.1199038886017292
Ni 0.9222640634528915 8.967045575221766 6.915582284480036 -0.6552335564688522 -2.0782923621630593 0.6039840142652566
Ni 4.53602582003001 6.439748458952304 12.794984749283506 1.6757925900216557 -0.11384227733415234 -2.756353200939072
Ni 7.346475592649641 3.207630607341166 12.786522857040984 -0.4431432566943787 -0.05139506664252439 -1.1699046459998885
Ni 6.898600871835253 3.1234273634452276 9.811452105417663 -0.9682386268825325 -0.5920713219880707 0.5969749299372751
Ni 1.390652519686963 1.5408069411479797 12.295028342922846 -0.31830180003624536 -3.521955731481496 -0.25651819107054535
Ni 1.040462253252021 1.6926902074012053 8.189062584556032 1.3922850148464603 -0.5309672555878985 1.0014932751706043
Ni 2.1491619159801285 8.07487663728833 12.425001571787597 -0.6868051606275462 0.6596573965681607 -2.7201158158735925
Ni 1.4930416992386493 8.64672747945876 2.7692692565035766 0.5855530612535785 0.02224492744112943 0.5708988016755135
Ni 9.384519079963326 6.134555393311298 12.614957212426622 -1.6907296709474624 1.007826930698116 -0.16301616795564183
Ni 4.272079401180171 2.9060180453954993 9.81081630621266 0.10501285196798042 -0.7699188985295902 -0.8691017740793548
Ni 5.552019723490661 7.962001022111771 10.556574763620336 0.241389562959223 -0.4288787763555646 0.15386741157683825
Ni 1.643403959964303 9.152646038542713 0.4708617434832534 -0.3317972634195189 1.3331750960581814 -0.250963065580271
Ni 3.81780889935854 1.9222770169108083 3.297944325617435 0.4903314843444071 -0.48838130259657175 -1.0670546060111818
Ni 9.154497697445844 3.1105791179949325 9.477212557819689 0.32602590815338045 1.4072598909887377 -0.9135111534326654
Ni 8.053506981987914 8.517867135383746 6.410510198037512 -0.013179217694435369 0.9386040918455513 -1.5157617299465829
P 4.632208163360487 4.563781809098367 8.47656663932856 0.629462103931703 -0.46475440720625116 -0.3793336184375854
P 9.252881247533615 0.33882996117466324 1.3708700005892298 -1.0390437226205524 0.2555802526373082 0.8508276583605152
P 0.759060170344454 7.59636451941857 4.554126730532043 -0.3900983131532572 2.5354021083398592 1.3897607057627097
P 3.3432929637133944 8.833282113949176 10.6798281711698 0.7877176172739079 0.28121029450058665 -0.00205431142586743
P 8.812876077057533 1.5452943798162813 6.893528649054177 -1.7799461793131346 -0.724402659265346 -0.37136345574791524
P 6.509960341442444 5.295716121235886 11.409727547961735 0.35495030449721454 -0.04052829913134956 3.7013734807236127
P 2.067537768413551 1.0445151189124446 3.9714984777662483 -1.4528571200025624 -0.2670370883239982 -2.647508119709195
P 3.4926727115516725 1.1929595900598562 7.032365277831772 -1.2054853713179754 -1.3399646081761891 0.7820470492516918
