# total energy = -340861.0096247154 ev
CRYSTAL
PRIMVEC
9.37761320419978 0.00000000000000 0.00000000000000

0.00000000000000 9.37761320419978 0.00000000000000

0.00000000000000 0.00000000000000 13.72508482801504

PRIMCOORD
 96 1
Ni 6.259735078886728 0.6623652119759509 5.368210067490465 -0.08994695877379348 -0.6504222511231379 0.31707512671799587
Ni 2.4776029547955774 6.600686344690643 5.127431405142296 0.6164471797292739 -0.47284798284766305 0.4349105843719413
Ni 7.304044855619651 3.7504826790697465 12.274673188109237 0.4965340136106932 -0.03959987377980922 0.21793158904659887
Ni 9.232654192670617 7.809179375774602 2.7446323701654998 1.4702465191236032 1.1690826643192254 0.31782717439267194
Ni 6.835117300569187 6.466014439519566 12.732171308021304 1.5556526526042498 -2.209516839529401 -0.9498696374570416
Ni 5.0197426445948015 2.507836380202691 6.18394708339814 -1.4962902514855327 0.6412544685809407 -0.09258362506569216
Ni 2.5283827310299194 3.800409092490178 9.040466571603307 -0.09313204136999444 2.218682050968437 -1.110013883181527
Ni 4.576528505321726 7.683153630102705 8.214586729107442 0.36152152995682896 0.4011959657283155 -0.5769110693078644
Ni 4.9866584247324255 4.642790721179872 13.122663567337389 -0.015027069536451538 2.8775593748374635 -1.3296537131684842
Ni 7.72170499854211 8.888505160717871 9.406157856919956 0.5880264624947357 0.45791347302501784 -1.1910630252450585
Ni 6.830269074472574 4.522532207711875 3.873301280979474 0.437995136834536 -1.7627778950639643 0.6677041781320371
Ni 1.3127439585811287 8.566018415579777 5.276581407548498 -0.6577735492818865 1.202093057806975 -0.4404199442259447
Ni 4.949119838533706 2.99337168847772 3.5502678209836764 -0.24779392382366996 -0.515544493274925 0.16059804543245246
Ni 1.3446090887093456 5.318232077196666 3.42649457803597 -1.179385074686498 -0.5927575494218179 -0.23257273599854142
Ni 8.945596070729815 3.2835994437273315 0.547175298518049 2.742639965118038 1.6615211677043062 -0.5726952314543041
Ni 5.699375793774429 4.943061900316276 10.96016623822025 -0.371502809539257 0.11493576750864723 -1.0047174385348567
Ni 0.3770138156629706 1.1438531423335763 7.954167593380656 -2.496473292485146 -0.027982858366171162 -0.16101327859300013
Ni 5.712851424143543 7.843567083891191 0.49021192404752534 -0.5407870698917977 -0.24041588619204404 1.3370278941453682
Ni 3.568313162333214 9.45375955999348 13.115292763252405 -0.6481244562278967 -1.609416476589267 -1.9407218879740318
Ni 1.4216180494547592 0.7053278097303394 11.692111465653921 0.18408635836237974 -0.1878262850207862 -0.8748417618869256
Ni 1.7278158802218375 8.884107060061565 7.743528580306203 1.8664990248037143 -2.073476943052287 -1.0391576224905974
Ni 5.8169710650539574 1.3713540419540995 8.24663472269578 1.7404069835679317 0.7184001618250079 -0.29304353969008884
Ni 7.5399668520192025 6.412280715083226 3.085042547679716 -0.5339664474255384 1.3148156197143872 -0.7477500757420348
Ni 6.836692739610252 -0.0432833121306054 3.1975739077558196 -0.3104139126477364 -1.681760891789949 -2.0630539479467505
P 5.727724318900268 8.056016914101535 12.128006377715382 -0.9993358625079692 1.801018940823034 -2.3007125831086315
P 0.25457688261616773 6.47256001363066 5.068303677512975 -0.557711356450962 0.3718385956121209 0.07674820069533234
P 7.374630151227387 -0.1292235118207259 0.8008369260722644 -0.5193756940955572 2.634494223948031 0.9673343699007083
P 6.954531828836612 7.54063266256632 7.565142930552229 -0.8828849439063763 0.36982439339556955 -0.38218214362997405
P 8.964820178076149 4.134242749769279 2.654129023824294 -1.4555441799164224 0.6969774731748577 -1.400222267415666
P 4.646072885848758 0.9254869758672307 3.3989487766120074 0.8660051374319022 -0.11217131738963264 -0.7298526266363237
P 0.4159243466932854 9.003268392768819 9.467014816449113 1.1584174712958952 -0.5466774672343037 1.0862255225126776
P 7.775007352764825 1.429532755113445 6.9756924133375895 -0.048638329832993654 -1.3985371664037591 1.3890485101870336
Ni 1.8477930652896435 7.228151830861659 12.541282486401542 1.4271437743968582 -0.24998656059961463 -0.21007378356507692
Ni 8.030847399897846 5.3886391981509485 10.780066360747782 0.6193103602096818 -0.2495240191408993 -0.9240570472693118
Ni 0.6288627505586267 3.240509310431523 7.217898348436058 -0.4980874741407422 1.0618555783087456 0.5791661838906283
Ni 4.541587518018096 5.3934405361808615 3.9676203781885944 -0.24116279166039756 1.4746569894864732 0.3762657781455391
Ni 0.2680365710426037 2.808332622059247 9.563694258935827 0.9769425824144337 -2.4613849334224445 2.5118554313681707
Ni 9.184228197384533 1.5145408200376018 1.9924980789728393 -1.0133817990780742 0.10673420553446133 2.2619881699552398
Ni 4.570114217797388 8.287372012804665 3.9538671704646267 0.24719279990456133 -0.7615941807139788 0.4140224280690225
Ni 1.9141865677345449 0.23773281353544296 2.212936697987253 0.53143802457673 0.171848164424975 -0.36278934092565907
Ni 7.822298656836808 3.4265986695440405 8.301178672924669 -1.268417492065822 -2.1340781016741115 -0.5094180686622131
Ni 3.978311795157158 5.56910198925966 6.499486892574203 0.7073138221038593 -0.1520964357193445 0.7664296544294091
Ni 1.971943288293605 2.4130943526319513 3.195803414357289 1.445410691026846 0.6229608124780754 1.3627299268971627
Ni 2.434306514006297 8.44116487157534 10.201746132806003 -0.6539973700689059 0.3294128223477424 -0.4937425669084851
Ni 1.4085456564592518 6.3120527837087765 7.301113413689669 1.0622931800667963 -0.8007394834548726 1.362873908674195
Ni 8.382611053882409 4.7775188920309875 6.1132905179290224 1.1242670506664314 1.1922837850260368 -0.3068814740144457
Ni 4.840564586513624 0.6258056486098926 1.0846700867855512 1.3439297634715242 1.7413991722778719 1.8804331183863034
Ni 1.378706090812405 3.3241576214214272 11.775944515626618 -0.5933635584369329 0.7203763117147722 0.6169621716924795
Ni 2.317555227927339 7.469372178798126 3.1697674086810146 0.26493186905553723 0.587549008637685 -2.7303020123779755
Ni 3.584761496131004 6.287183353131958 0.6024422627354256 0.3851353127210271 0.29241619051873513 0.15281043106723358
Ni 0.2800642979120713 0.7235156908026396 13.706706952700372 -0.1338554872312856 -0.6085258679996681 -0.8697314372435536
Ni 7.592659661374838 1.6874640100212146 10.06806356584226 -0.15675450331664617 1.375491340327889 -0.29789366869353856
Ni 2.658075123517629 1.5584280504672823 8.936471652950312 -0.4366923588627124 -1.586776627702564 0.3633750382258
Ni 5.113415624244817 4.670379659625197 8.632900491679676 0.14723730785483027 -0.15213705914929282 -0.8379371755510924
Ni 7.498574066737876 5.544073139256067 8.230329866382089 -0.615989780476881 1.3949764456356941 -0.3057314195704025
Ni 6.381390856742336 7.184424019858752 9.605267094393277 -0.5333691801611717 -1.6353856469595192 1.7741498843463315
P 1.7922588390920864 2.4988057385565834 1.0853949762967083 -0.22580584958835306 0.017552664171782674 -0.8790640274983894
P 5.9607767656178785 4.536092236601046 6.34207333729308 0.8940820981737764 0.9782001089706186 0.4874176531317218
P 3.177304196522112 2.777517784625074 7.171754864236851 -1.0444780062622463 -0.5217027995668371 0.4485919385137758
P 0.5730781420849003 0.8972341023974568 3.9179762309296873 0.06480311251831421 -1.0782628160221752 1.6798706167457713
P 9.056336306658041 2.060092853686553 11.640066649380058 -1.1499055771701423 -0.09600422071146691 1.275849522863835
P 3.349861659585477 6.032984388333379 8.666402953097 -1.1324891814659077 -0.5011697126104917 0.5780734650470818
P 9.798574402493344 4.666019069422248 8.996257689036078 -1.4839574409517926 3.2501595312059575 -1.7369673617587633
P 3.8762552291814716 7.929025274255652 5.967241692254252 0.10414716153357548 0.8117818573119631 1.3195276804780758
Ni 8.092636494192968 8.229830977352417 4.901791024008364 0.3967284168752651 0.6426971145647383 -0.7895261312375564
Ni 3.2526720749330824 2.366515747173784 13.151321553703438 -1.4856926784753446 0.4610255362914383 1.5340517865050225
Ni 1.6756200843732048 1.5845165707782591 6.001567508122799 0.4053277285085019 -0.4082145631379937 -1.1558705365043256
Ni 1.7017367375242005 4.521997683751514 5.763684652773922 -0.12762827537465116 -0.4377179719137494 -0.4610980414005865
Ni 5.26382316459987 2.002823769021156 12.108503755252856 1.4658018530886885 -0.47245331851240574 -1.0974224196697617
Ni 7.636931373951445 0.2641804964373292 11.849991088318028 0.22039007788942042 -1.4440042975976226 1.2275873454233373
Ni 9.218794080154577 7.197965293521243 11.598095265355674 -1.4508961396214497 0.9141174195580968 0.1922634948565334
Ni 7.732086016509131 5.181478341864181 0.9592857698660886 0.1395617935874435 0.7750454211228781 0.05149482544518229
Ni 1.2290112490711678 6.145675167836258 1.0180608992338376 -0.9632185479601217 -0.04855836852467766 0.34241977613037156
Ni 7.368431548809862 1.9374524264302793 13.668386273549125 -2.0311172471391536 -2.2630209820951284 0.6681942303945783
Ni -0.2535941087381698 6.939921507253398 9.18602119705508 0.6687922689898934 -0.25502026636878017 0.17915832493314307
Ni 4.188098383179035 7.107565100926774 10.734525857086318 0.31525761389328283 -1.103821124107254 0.3925984538672916
Ni 8.973241274855178 7.5974516217914125 6.942861389035387 -0.3265910366282311 0.485192620455945 -0.256257738320307
Ni 3.119500587896353 4.315465127558505 2.2150091505353213 -0.3359238839933828 -0.13371639055026002 -0.6952399216584607
Ni 1.5085391475002097 5.799781899802333 10.397781388626582 1.894167180142944 -0.02123705500190536 0.7856622774067759
Ni 3.550401920854434 3.409653322239247 11.044987688638944 1.2901687676999847 0.16081710342179398 -0.7226566231085167
Ni 7.197430769560882 2.851066406048147 5.691284788984958 0.6630360832324065 0.7690565505292949 -1.8041045217268927
Ni 5.675444124531578 0.25332028242865123 10.263508969783773 -1.7269179479425614 -1.088531287827719 1.3027314348563437
Ni 5.453560415301521 4.586037405248157 1.8149095263527382 0.3873631736102812 0.7614879941534176 -0.5044604675466215
Ni 7.14263737481716 2.13672670989838 3.3042733300959797 0.5431355155193162 1.1549778494867269 0.1200394072837997
Ni 6.7774731113702025 6.451132167149502 5.409275574066238 -1.2042365865125388 -0.0879695233324485 0.7522885870423366
Ni 4.0716284255002675 0.40840350079486576 7.300550756889288 -1.4183367176281896 -0.11676330763568925 -1.46650839223741
Ni 0.0971230035976833 3.179395404296859 4.402307453651902 -0.9460816311695189 -0.9590312493516516 1.2114523875346876
Ni 8.509762113155066 7.644302178036431 0.47484295354513145 1.2436135456482649 -1.5662049741987993 -0.8747075503019065
P 2.219671699887808 8.240108841572702 0.6226097579837313 -0.07908147681419929 -0.7677303755187037 0.8700391982919595
P 9.255591834899462 5.401617815013059 12.967075833373501 -0.5360019897983285 0.3355078795018867 -0.16444518709268455
P 5.371393767219286 6.886347202243833 2.4589996454523297 0.14750753079708145 -0.9410607809161599 -0.15633952726641462
P 3.449451913252829 0.9200507734142209 10.85683056578503 1.2312424256774215 0.5106228876035915 0.856997277506337
P 5.112684170404323 2.9868448695933063 0.3606208097838841 1.2444866922818374 -3.938024757666901 2.4804517202459087
P 3.327224100983501 3.749104169908814 4.724613210852541 -0.10660282216291964 -0.17412204806081627 -0.9137898610153488
P 5.894251976586222 2.9481997250205043 9.792093533914294 -0.43548728281101773 0.8244946768929412 0.8616586875377483
P 3.2250550036477383 5.379458514691406 12.0374899027155 -0.18700815999486503 0.7619978439103006 -0.05384532795522985
