# total energy = -381163.3287261976 ev
CRYSTAL
PRIMVEC
9.19251965292337 0.00000000000000 0.00000000000000
0.00000000000000 9.19251965292337 0.00000000000000
0.00000000000000 0.00000000000000 13.45418170618037
PRIMCOORD
 96 1
Ni 8.774572744834929 4.467628995927845 3.9111441793762616 0.07884184999956743 1.5635279415872685 -0.13202331911855328
Ni 5.721580629000037 0.9662257616906252 3.5571650596621582 2.624924063761092 1.759914714583556 -1.2880080126032398
Ni 0.5391927674571463 5.758580521406134 0.9945249340563811 -0.18416966210480537 -0.06158949067702296 3.1501122507733683
Ni 7.391365090117488 2.6788749428800336 5.021854291099696 -0.3551909597531109 -0.5474436559763668 -0.19999917293789427
Ni 3.6349889327329676 0.5042694652857177 3.4124380271052446 -1.9665648171790648 -0.3448885493858383 1.105584900875896
Ni 1.74185381676063 1.2119050472671038 2.2107642544339132 -0.1399610859083912 0.9214226949702582 0.7400876741007706
Ni 5.402839195636316 4.010641256503184 6.633382996156239 -0.9719831815266291 0.03869021748134627 -1.6618158161265895
Ni 2.5288714039278157 1.27156450110948 10.967202915355921 -0.39981579755133717 -1.8690744988403747 0.7495490766239865
Ni 1.9791862943110872 2.2986263591835945 6.487014179553679 -0.8724015278765491 -2.057508078427857 0.38792675942323507
Ni 5.045167440697485 5.812706078297336 8.254773436510488 -2.850473574364265 0.082677935916206 0.03216630031989944
Ni 1.1327758363772464 3.3567129717597153 10.581714595343586 -1.1468248813622894 0.2989300803778529 0.7334881665063819
Ni 0.22688242098219638 7.002392805081078 12.807277887487954 -2.622897777359683 2.251323748262858 0.07579972073913398
Ni 0.6636971755906635 2.509181026403876 4.295422763776013 1.0871287510532375 -0.5724378640278593 0.2260511328299397
Ni 4.798835486211482 4.049544000518736 3.763040734277544 1.3118405962464634 -0.744687377656311 -1.0154867612362188
Ni 5.341341237823451 9.104106196505422 8.059942574497816 -0.9241987150534987 -1.0976021397807356 0.24169860955920955
Ni 9.07918527518544 0.6250095365396582 12.524834038013601 -4.037476056386705 -2.680796963669312 -2.3071457403284845
Ni 9.08012291221039 7.557152185656356 5.48855300849648 0.21294853400971067 -0.008714239944546282 -1.812724145075104
Ni 4.8915236638836985 7.020961695183019 13.490911800134603 -0.2725737018715112 -2.1617403434760707 1.6520649073874127
Ni 8.821822296876503 1.8122593263105158 1.2043552307122898 0.07850040749974868 0.129093547066268 -1.3882468402213446
Ni 2.421796932686522 7.089629818480793 12.387400350707619 1.4481332321643317 0.5616618564582779 0.04956778362579851
Ni 1.1388337069600085 2.1571902487338566 12.892416248605354 2.471894574704517 2.280161755540473 0.4154154517618071
Ni 5.784135726595934 2.501376577049149 8.91936964054272 2.1834209137732974 0.6472821628322594 0.8683360995579239
Ni 7.788132631988773 0.41602035545024846 5.027208933913746 -0.6401100705638524 -2.7135034527633977 0.9491936944359395
Ni 1.5000905446412935 4.352593802494332 13.00377627260186 0.21009178128720593 1.0839863487695138 -0.8128015568257292
P 8.419226697418766 4.960688183253504 11.277080001825928 0.5574277637722723 -0.7959978550048291 -0.4509948915283136
Ni 4.133646364648767 6.351470474329359 10.736073550201894 0.37376538032118856 -1.0176773411296345 0.03959267469095762
P 7.4241364233914595 6.6975964243335175 0.703874002857765 0.024651222889776902 -0.10424692033623335 0.5036734528689519
Ni 7.297987473456339 8.408618529509043 7.094551493609792 2.0221273849357173 0.04408233503119505 -0.6424101794519388
P 2.0866192738266265 2.5736389756092293 8.827867297931471 -0.7537291761436051 -0.4245099578639076 -1.0259238974091427
P 1.2920086652613205 5.968804257911726 4.123746940019668 0.051154411386628025 0.14993259529880631 0.12982039792996353
P 5.9423206082168285 3.558130274246665 1.8272927732772064 -0.4441986945420866 -0.7148656663091882 -0.22114983887358045
Ni 4.384556194021288 8.778056709859005 12.29669224181162 -2.288144002415001 1.2840467139626468 -0.8287130858496631
Ni 8.3594109707389 5.75882871944215 6.5001190358553265 -0.5832979466708148 -0.682743846073979 -0.37170952623342435
Ni 6.5348152827864 8.240036907935032 12.615300383637482 1.0284152963724287 0.969301520929408 -0.04190615331548267
Ni 7.236691751080228 6.521090850646697 8.664803026772898 1.3156977652090245 0.7125236484395728 0.4055802108389402
Ni 1.7350881221492296 7.440885194562616 2.4355838739612206 0.12161575063198411 -0.6054490288465574 0.6059401095503628
Ni 7.213774799088079 4.136679896200074 7.730544252869153 1.5584919218252578 -0.5771527530050254 0.6362233339149366
Ni 1.6557107132233562 6.039081072183678 6.880509184357493 0.43221838225175885 -1.592849059148889 -1.4579998405457664
Ni 3.2401242424711394 3.8782230080286957 7.439234217997117 0.06195741553940296 2.4400136668355206 0.24264914639793694
Ni 6.149354540333624 4.7383578981022385 9.690549435256127 0.5683071296889374 -1.3618197563780674 1.0150920969009616
Ni 0.3989912124235918 3.814261454895375 6.622135028864786 -0.638685422302184 1.072453922649882 -2.184967175214495
Ni 8.052242919869407 3.3388978682856743 12.714524442924786 1.15398411811489 -0.22708857295551857 0.20955596338839394
Ni 8.152946974852956 7.6087957621874 2.83353173538156 1.5649448765394531 -0.28699270551031864 0.2727228258548658
Ni 3.608698325954972 4.410433137405924 11.80691938033321 -0.6070310286216964 -0.0029220587428014193 0.4450684987415496
Ni 7.374404890989725 0.20161861867171835 9.09816231316883 0.9678642742622492 0.8438414568506694 1.6892625994836328
Ni 3.0919959775688204 0.4395826223360386 5.849366766720878 1.0865433108634126 -0.7563738128553039 0.5523668043095972
Ni 3.389934738506456 2.9183033149568485 0.9209746634649734 0.41947239544000015 0.4450690129621819 0.35400388142354516
Ni 4.559260033817028 2.0693097589444704 12.348436936061042 -2.2122720336770354 -0.5354895689382841 0.5437219841504055
Ni 3.713621747550793 2.93003297028857 10.060095168088363 2.027751415990714 1.0055769583216745 -0.15719673306038734
Ni 5.9857644570394895 7.8011952026991 10.200288449854051 -1.037100997071885 -1.1310455070408458 -0.2817905924840889
Ni 3.6460383415956086 8.636969915163661 1.3862788756001418 -0.9409623076650827 0.7685405301248248 -1.7273612061275674
Ni 5.307613882484826 4.697230564282394 -0.07614072268582703 -0.6035104170629476 -1.062130429236687 2.839910197026122
Ni 5.793695947242478 1.1713384571582586 0.7833148401706204 0.18748047164559326 0.7229168187484388 0.335738507455454
Ni 8.096082047045723 7.963866034007988 11.077621625319535 1.4452140016350077 -0.12617765897105365 -1.5129409726683363
Ni 4.080329749504579 2.522767570745791 5.358773932471629 -0.21761122959270263 -0.2509388972105549 -0.4656728052554625
Ni 0.5630161019067459 0.9502215846275164 9.422031334106245 1.2050814510113377 -1.2801149830084082 0.7282282036590232
P 0.06260749495905567 7.070049751195083 7.913238230920641 -1.2523372986745078 0.8121047878690207 0.922332094158405
Ni 5.992410648892808 3.422614146581902 11.624992058437417 0.0338683706126707 1.3394465308891899 -2.2288641337077615
P 1.004475836796654 8.70892896056861 10.79450580264397 -0.28116607152621254 -2.049186960156671 1.9971987400148379
Ni 8.936774757631342 2.409212373008523 8.20831536042821 -0.8530534623672406 1.711705244757865 -0.10063529172557507
P 3.0711105724640624 5.89685440502663 0.5922143027140709 -0.11744413575279773 -0.8934730038348677 0.6256262751253806
P 6.642395342619578 1.4715018079001858 12.098848071791316 1.1640157913192792 -1.9306125674541719 0.8577446971953229
P 2.9888559048243732 2.6708682580885528 3.2961269119162124 -0.3754556235394179 0.11163987036619481 0.7298210020674399
Ni 0.8874035809638396 6.261089619140108 10.856422020110122 -0.018693205534129096 -0.8663946595608369 -1.6896066130866125
Ni 5.466506588134359 0.7003983111015551 5.729853896867239 -0.3765061762911193 -1.4568927235245166 1.03617951369888
Ni 2.6460760320465058 7.683714798984837 4.773207660114848 -0.004938060731565689 -1.4502698188913603 -0.5227883193215319
Ni 2.826663084547812 4.717711498513645 2.539383050379088 0.5054737393024843 1.7892155204302027 0.5731366898670969
Ni 7.790697345027606 2.3404431319923726 10.445867536964137 0.6501309451349642 -0.2235206530986021 -0.48710706386983854
Ni 3.7041534521027737 7.121215316693799 6.856170149544171 0.04481149988773572 1.0515943055920534 0.41028532962409336
Ni 7.657001336293629 8.901622561715588 1.0543048099088244 1.600706864630411 1.1025265736655463 -0.6789877214656564
Ni 2.9344269947780393 0.20813611524710274 8.39663424137741 -1.6008158794044494 -1.3986670071134042 0.8710419285248612
Ni 1.1820845128657682 8.94326467664717 0.6654979902297578 0.20961561298173578 -1.0621620538055707 -0.3819648854128454
Ni 4.383223278642683 6.008975569666917 4.803008890224493 0.34712746601868605 -0.03597950341840255 2.327130668090844
Ni 2.482697376708978 4.289514731266846 5.191336779619248 -0.5407685579490364 0.8728332160973291 -1.2664089462762256
Ni 1.049528376593493 0.06661083735479602 4.401710355317937 -0.3712734671372702 1.1536532171380325 -0.5945341817062665
Ni 6.483300401533291 5.593611560134133 2.677813206837076 -0.20957139000736166 -0.41903762189542665 -2.1353094029780513
Ni 2.4465156185697494 4.963767677404073 9.364971524878142 0.9329839174452965 -0.4214899400906612 0.3327223463369496
Ni 6.874120383060043 6.7208443070403545 4.508052182726992 0.5851396278652439 1.1389387937459932 0.06824170588621796
Ni 4.208684904204286 6.661653671710454 2.705689523289619 -0.6644599601631266 0.061314382638765375 -1.8944350890923505
Ni 5.2225463037702875 0.7395078868137877 10.435669355439833 0.003501328285039131 1.1179189969612167 -0.7215906437378475
Ni 0.11806688648084915 4.944858664067591 8.610030316484082 0.1556548424945642 0.17250199595889 1.9647267355290614
Ni 2.0261968408364974 7.1416778658853435 8.91425676100079 0.07858653945565175 0.8831744501223372 0.6634687998944508
Ni 6.096966369694532 6.716955871142769 6.528817163582678 -1.67478883134749 -0.8878993664018322 0.36596311066795034
Ni 6.422850390983604 5.644749548073292 11.69083623963652 0.8549031139814696 2.8514963592018248 0.6287146842427173
Ni 1.3629565334825007 8.44441420181447 6.9903763431299595 -0.14494876893096975 1.8729494084147487 -0.6343960508982107
Ni 8.094464163551693 1.3094928380206732 3.1467309985262415 -0.04932635703895376 0.13931136813953426 -1.385356406047427
Ni 7.073745144175765 1.5699077329206228 7.153629060945509 -0.3416111641861471 0.5136017677262573 0.0558800989970715
Ni 1.0286705490482926 3.683543822593589 1.9068071507488813 0.21643135035198852 -2.2467304724652206 0.07110437214599367
P 2.9113261923888416 1.088293232811259 13.283193025288801 -0.0006296631641989156 -1.6916087311183061 0.8873013278065169
Ni 5.8332145900881445 8.247666699412562 2.2097953628414655 0.49310030533879595 -0.6821982579831541 -0.022969464311979795
P -0.05660477949540827 1.2897197278180614 6.31998057832282 1.1619046585135473 0.3243431211343188 -0.23383154810630694
Ni 8.094804286786232 4.011064112416396 1.56801775083896 -2.139901393224108 0.7026860935238608 -0.2492082876726934
P 5.028446247085886 8.095236335219298 4.244848277303809 -0.25540104674696656 0.062283174309937905 0.958530398455833
P 3.662143636377094 8.137163418266306 9.915462818485928 1.689176981748362 1.8379183849525442 0.38522324444914297
P 7.036515438773358 4.661839362850476 5.2412788207256025 -1.8572255699215887 1.0792550047321154 -0.035570440905441966
Ni 4.103311049135695 1.8335124322093714 7.847272708459487 0.23247760518157382 1.3333108503050974 -2.4060146841822565
