# total energy = -340866.04563797644 ev
CRYSTAL
PRIMVEC
9.29451707118346 0.00000000000000 0.00000000000000
0.00000000000000 9.29451707118346 0.00000000000000
0.00000000000000 0.00000000000000 13.60346523786028
PRIMCOORD
 96 1
Ni 3.8861212801944816 0.3755784265893983 10.681386468746275 -1.4740872330259323 -0.8821490941816162 0.0187166025728968
Ni 7.730854075422827 1.4587744701178973 3.2846386842921653 0.9196620035254097 0.4034852759831245 -0.4019716675520755
Ni 5.935813268545481 2.6839126620876352 2.409323811828699 -1.410729337594577 -0.4718215984656777 0.1057553865609598
Ni 3.013459062931854 2.3001513425801625 11.77685964000704 -0.33821242291724335 -0.6000103743294892 0.10742069007852467
Ni 1.3476771063630757 1.652165488912055 9.904520051618496 2.2716310923616425 -1.9109428569393863 2.1191073392968924
Ni 4.996286294748748 1.8590986192255616 4.561813160100081 0.5122311126309759 -0.11611873207315486 -0.15543527028459037
Ni 6.953302652379483 2.3536598779383575 12.637374852777809 0.4382303927737936 1.3053812137743646 -0.1406059185812417
Ni 3.659753314474689 2.4988309416450885 9.415189747170002 0.1930242842819579 0.013632246071453942 -0.7581363040723652
Ni 8.026940214448476 0.8361830962666494 6.7886865292975775 0.17397909472504877 -1.5414035988844035 0.09460811169488867
Ni 0.567241594641314 2.769189857139127 11.951202475309257 -0.7936167563671622 0.05625599427925151 -0.48213737856938904
Ni 1.4262529545336824 3.7925998484115806 9.278679314563977 0.9222058529931859 1.254135528225511 0.8867698807830792
Ni 0.46843158258764483 0.13201188629486152 0.6851332504487393 -0.43645967402661606 0.0886593503106215 -1.5697299566329224
Ni 3.94326397176686 8.123742610793032 12.5708400516033 -0.07148078164880592 1.0832119324973344 -0.1857413774672995
Ni 7.801557467548898 7.936123487162577 2.3315119729696163 1.3073486219133805 -0.23801961804572555 -0.03167419117482932
Ni 1.129293130893881 1.799734538049117 2.909291691180345 -1.4727446029551088 0.6831215411283719 0.20800275996866113
Ni 5.923553800395845 8.67648754700145 7.103988153124257 0.15248878606175675 2.0936508468970008 1.1529690465868143
Ni 5.677397807617237 0.43503917074443005 13.005933130547326 -0.5246883645577222 0.07229659268188193 0.14423657335529352
Ni 0.3857187448238591 7.81602903078543 11.822254991325948 2.24780905024138 1.7163309164553344 0.01836436143980063
Ni 6.15512669573186 5.281711622578314 9.890535521081768 -1.70289793087888 -0.21152157175519704 1.2840562270443434
Ni 6.9697353587392685 6.828133389626518 6.254859653340691 3.7816368936610547 2.481046159296798 -0.4038735125604786
Ni 4.0132052134848415 8.200515322632304 2.8391924426704427 -2.952642014904915 -3.7718160509158913 -0.7836776428765794
Ni 6.816571010264768 2.006044935712111 8.691770521587083 0.2559846871645785 1.4912066663150383 -0.08309574017991496
Ni 0.004299643643686137 2.021222882253701 8.219934357359397 -0.5526642809453578 0.6434221656562209 -0.6315498396986671
Ni 1.0784149438953123 6.657774184384142 3.9021812764156776 0.4469739432943786 1.3148210190310259 0.3829280206570631
P 5.721202867048048 5.1863684654297355 1.8461671574844019 -1.7103122210650803 1.2162549511296536 1.1969415955130223
P 1.5740822501515552 0.46865093319289997 12.076721211907882 0.21682884290072332 0.7535563980111667 -0.2700583916488252
P 5.015841958878267 3.7562118136838865 11.4604027076959 1.9555473830226386 -0.4902155275918332 -2.3760199375923787
P 3.7104734946813367 6.324073134364118 9.254287713149958 0.635980107555879 -0.5282179749775354 -0.17067394161121574
P 0.2539680344615258 4.574036379632748 7.726428026345604 -0.7766611023494302 -0.6381560321612751 -1.713055331027856
P 1.9781149116107777 3.9343226462475642 3.120716861642995 0.28169674721870197 -0.2440977059190054 -0.22697930107116393
P 9.412743430250378 9.10658203461047 4.230024921714018 -0.032204352646686474 -0.18487131615752034 -0.8248137507952569
P 7.300276272920873 0.3728950994818925 1.1073320457202935 0.407705227601743 1.0632313756103495 -0.4768596751102175
Ni 7.401540037507904 5.436130730871011 8.018752674271816 2.3838533175938688 2.2125877651452406 -0.7298485128712656
Ni 5.62540427855805 1.7516911787879546 10.791098949442494 0.7252012439072414 1.0377075203076322 0.5298740225237197
Ni 9.086589528173874 6.974698630909024 0.23560020962656575 0.39137023788714537 -0.3692222410351964 0.9906141663642554
Ni 4.763858303832925 6.095325772248338 11.926511590442306 0.9797378857713835 -1.545483939601364 -0.8489731216502799
Ni 5.124950295958317 6.5677474910578475 7.5893329686094715 -1.340414551229414 -0.4151588556663108 1.364217824296599
Ni 6.841861391489304 6.257199083312838 0.1285868567170441 -0.4413630248655044 -0.17161033738255607 -0.3591849114038524
Ni 2.5116666698593786 7.728270199649059 10.21614848225887 -0.7460631749579151 0.07809134498678809 2.096792477849776
Ni 1.7573143616769085 4.702895565702927 5.308670369635191 1.2903014366231067 0.3741322767423041 -0.40280650474854496
Ni 2.4219188120482387 6.417287847080348 12.383983078380936 -1.4013905766921542 -0.5082533589301506 0.1404655363486355
Ni 5.7438814889473 -0.04229284148695424 2.9421031957003208 2.746413059007225 3.7182849117669705 1.45732749706909
Ni 1.6411607805806145 8.946604805049022 2.4436717000371773 1.1834880411112778 -2.0097729771354227 1.826244805269358
Ni 2.6422453416063445 2.535033086029346 4.80634911853564 0.5044429840451248 -0.5771905482214963 -0.6771925772384466
Ni 3.5483306426188537 0.1992939666499838 0.8261710423691598 -0.6599548732039214 0.6141666112252133 -0.10152283653685097
Ni 7.213521249639061 8.999834504892062 4.769333703898847 0.48737985791525096 -0.5888654134562633 0.5674177851054487
Ni 5.77698855911334 5.232515743187846 5.752946431544982 -1.8020011022306446 -2.789663127945112 -0.3964638503599688
Ni 9.108552472250897 3.8451789320525935 2.713142989141307 0.46024906313673 0.41256718367973466 -0.996848320199425
Ni 8.025099900048456 9.421759111907047 12.533457503538221 -0.12083490660190158 -0.0977793103340187 -0.2934523450927333
Ni 6.098300017743322 6.654837116957846 3.540574368038966 -0.042728906327094154 -0.662639104904304 -0.5832809773899503
Ni 8.891627735977679 2.314334775784367 0.45231767816685226 -0.9660459901065879 0.1898191470810989 0.9962780495182519
Ni -0.032752949061793296 7.8016318236862725 6.352682587670712 -0.759637314097924 1.5965738162986438 -0.13645101587260372
Ni 0.4958513376962451 8.753018601394256 9.246846522702194 0.08235680513136139 0.863415779438171 -0.14164027338302704
Ni 3.12559741260992 5.788207041339732 2.9427147749302267 -0.6296292256371866 -0.48024478953236643 -2.3167966331546874
Ni 8.920301321452758 5.509222813910241 5.526870313664385 -1.2889585494419673 -0.31309274503148016 0.7134471886951067
Ni -0.1835741497572766 2.7703981443714647 5.104319256192018 1.1566338970329113 0.11253024339094812 -1.0278442543603075
P 8.909761338979909 4.774296046616884 0.5916824569963444 1.4747570053994474 0.23719892191664313 -0.9219687972817154
P 1.7441254418100893 6.754409279419605 6.18504667595968 0.010322979192562866 -0.8541230412823355 -0.4473392970535974
P 8.506286348550995 1.9094377242281646 10.349910526137187 -0.7721231052697607 0.35398125571572586 0.1827748386398078
P 3.3020259375654977 0.41531527585410066 3.964825392702059 -1.0054532882596168 1.934870571399577 1.3842377190619517
P 0.7369855028469153 5.864226897288088 10.92429030996646 -0.041879413842605295 -0.9964515989816388 0.22615731939050082
P 5.294696063067353 0.43963623893761455 9.006826770160426 -0.9610153696612159 0.9736387148521813 -0.8229828682341053
P 6.210810148108261 7.626365113377173 12.055459074425617 1.2429807971602722 1.3044522742021922 0.5114572105794288
P 4.56330121229929 2.8345767854429145 0.6238266151833832 0.8463068876720263 -2.6922584273416925 1.3360652731217828
Ni 4.021793347351608 6.32617369524495 0.6994412301830464 0.46902680932936 -0.06968255209780257 0.5578918478928843
Ni 1.2173679756140925 0.8846270492179175 5.779731371130746 -0.5215577893485405 -0.3124916211123715 0.511107540549494
Ni 4.97384003577879 1.7680867070790536 7.066102771680183 0.03569282541591918 0.8639243436434735 0.49009725684641403
Ni 7.098668900946822 3.934582892728376 0.9814563996622706 0.0858715031528392 -0.8774208354680115 -1.2478872333229543
Ni 1.98754884654018 4.969834098877734 0.676823952097128 -1.7723866217983215 0.5384093136882405 1.3134439361778412
Ni 0.43757564448062103 6.404340584659996 8.862494071902594 0.06482033890949482 0.24705781698859383 -0.5156841041765828
Ni 3.3852769278735324 2.2234065142924053 2.4032563510189315 0.8228064905572411 -0.0034234238592521686 0.056149807718690395
Ni 3.013617069723775 4.766665248018817 10.791955903925738 0.028713822994924747 -0.25953460929936595 -1.5482098231729595
Ni 4.6171164667241555 4.339312642975485 3.860065030754988 0.5829235940505316 -0.8023849894780954 -0.7402475967174025
Ni 8.370437685567605 4.197394660278893 9.811553502510753 0.9818137944638058 -1.360007385759677 -1.0130205590839134
Ni 7.326486811345419 9.349726603825406 9.873558156015712 0.6329441489430325 -0.201660105580085 1.3799897424188752
Ni 1.8833851925955398 2.657441877182278 0.37440638797403114 1.1308220781761298 -0.9226403694274432 0.42257314585251093
Ni 1.7281574613088941 3.064114181518299 6.997907969738788 0.7350290286309406 -0.5094671767325935 0.006692324418511054
Ni 7.651088529054227 4.929997798279293 11.741232826235716 -0.003215164503188011 -0.17684896007367606 2.7099242200525713
Ni 3.76091483937283 4.153496655676364 12.959232829017493 -1.8492047564996412 1.9755094279668621 1.6702829730573365
Ni 3.34793155787714 6.877654577118001 4.8049205512463296 1.7506260901927786 1.201551583481208 2.0016480340354432
Ni 8.02776742647677 6.9989294371759705 10.634250254361083 -1.974244959432142 -0.013613991239008813 -1.3662541380003372
Ni 3.7571040873323818 4.510136574076452 7.80409022347822 0.08810142092462248 -0.15382061749930284 2.3428619627831715
Ni 3.4879906371393674 0.030351245824593778 6.279005879501375 0.3953726741783191 -0.5280485392792066 -0.952139921548457
Ni 5.3356105276577255 7.811177292821737 10.0018931313174 -0.19572599948383712 -1.257622715443163 -0.037430119822000056
Ni 7.730380055047064 3.3593638139984847 6.8144518603495925 -0.08981994627762596 1.9579140834826019 1.9206801388318082
Ni 7.199374994503543 4.307599750385219 3.9255383980684733 -0.6876309989629512 -0.25338041677251205 0.6201642235695449
Ni 5.655388390954357 8.071228588772222 1.1686628467302964 -0.054447994536235264 -1.0863455930303096 -2.159650807936894
Ni 2.4699714658265726 7.702422147394215 7.956122499761192 -0.052053783272445836 0.25544681238323746 -1.138742104354155
P 1.9205446722484953 7.539331254580206 0.5847385232172742 0.6151690843477986 0.264187534690345 0.6740853990680327
P 8.482445912005264 6.02020748446565 3.327530092684985 -1.2782936135289533 -0.43412176992205886 0.2359254545208582
P 5.417049087117253 7.822293535359239 5.204454666394389 -1.9362563960035104 0.2854490151722826 0.0031058926188333607
P 7.022091373968157 2.1078198987435925 5.436162332229395 -1.5603364312331645 -1.4579561317920247 -2.830142576116397
P 5.961828622109419 4.027648893169857 8.098482901475164 -1.6384959104537267 -1.6270514160622107 -0.08796849489118398
P 7.971312529175106 8.100766564344282 8.271859106991515 -0.0699849138295698 -1.3159340495895466 -1.3754933972104182
P 3.936339556473851 3.9359584812698056 5.888028296861696 -0.2061065713872128 -1.2345894877727834 -1.5000029244504296
P 2.0979398269899425 0.7972241980892288 7.8781889027271585 -0.38783651370227396 0.4220504405798215 0.4436880734542552
