# total energy = -381172.7959870603 ev
CRYSTAL
PRIMVEC
9.20701985289521 0.00000000000000 0.00000000000000
0.00000000000000 9.20701985289521 0.00000000000000
0.00000000000000 0.00000000000000 13.47540421453752
PRIMCOORD
 96 1
Ni 2.274704735001591 4.5345677540257245 12.75076402366325 0.2326948633987025 -1.1576201722055806 -0.4719866632886323
Ni 6.41036914756372 8.460569910856675 11.423032582778166 -1.0986503785395918 2.68076122533537 -0.1720978185419359
Ni 6.97229198226358 3.531555012968527 12.15345400821937 -0.8391815894811548 -1.0174590544712414 -0.13607949146579792
Ni 7.4190810339001025 2.0802708900810303 2.7562861939006518 0.11804011746558381 -0.5207867155104708 -1.0734126870187255
Ni 7.355027796893172 9.01397625220719 1.6779038677547051 0.44709607069453966 0.23708219383312074 -1.0570571284788377
Ni 6.209471974717492 0.16081441198527205 8.392009837639469 0.27069679656377255 0.3852813513805881 0.014266280111027043
Ni 3.5481920978142254 6.841073535544771 5.744080139500044 -0.9094760641313434 1.9694321114245306 -2.241168404996411
Ni 5.990142348157325 4.406461280011865 2.632581596070925 -0.1597143572759185 -0.5444619476402236 1.7947313080421088
Ni 5.824784271882429 6.951695878887915 4.98358214235688 0.6571621409501327 0.2681699163768607 -0.13833692004140694
Ni 8.15374597478424 3.8417303042616786 1.118879402899573 -0.025744455953955664 1.204489068842977 1.250290186337492
Ni 7.026594985262987 7.18336291202984 7.257421417493781 -0.6363362053437169 0.5902980321377318 -0.06140308569782974
Ni 3.883456518163562 3.0875372743029823 10.635920774093787 -0.32918245150449116 1.4176980556029262 -0.4860788797156403
Ni 8.139631613373917 5.302083341688751 11.159898717938875 2.145369101206899 0.49450155656169675 0.12500575015013957
Ni 4.279809515132272 7.972588652468824 7.590102348076819 0.2459599559387248 -0.8017815515661417 1.788914444250016
Ni 2.664078810933755 7.615153728351673 0.8415013576702545 0.7154498209474324 -1.1135594344409403 0.9280093470488404
Ni 8.220552110722473 1.7174958944583416 0.12399922246451468 0.11586830662524561 -1.1619452819434957 0.0907727971091985
Ni 5.001428108907194 1.4928446104323123 11.728062070684345 0.6076853743762437 -0.05438320273657085 -0.026634828978708967
Ni 1.6126831806324269 3.9876063265612034 2.889921483326709 -0.6911937766135451 0.5799249164335238 2.0888272002561123
Ni 1.0179557342528631 5.4961673198555 9.962622461828104 -1.3002834875364833 0.9957638288859948 -1.185657537958771
Ni 5.953562858344398 5.046717439486049 10.467842023457019 -0.5194911366274989 -2.6936722769700836 -1.038436942274489
Ni 2.714164998847755 5.639999383751182 7.609519952913331 0.9587278591786198 0.470320588440119 0.8743882192892747
Ni 8.076968636362393 3.2678383437735454 9.908289075663234 1.8028824763943339 -0.39521198023073867 0.7433290638562037
Ni 2.4145225382482827 6.350118409749525 3.1439597332688973 0.06292055078362066 1.0887107508283764 -0.2655219372310524
Ni 4.808301660803506 6.963968836330813 10.619049830944226 0.23997571333083184 1.305535479964042 -0.9940501886289977
P 7.4677217196996715 8.38359922501825 5.246513452759754 0.7736122882207774 -0.8027161475652691 0.6601633896703017
Ni 3.480133807178143 0.5696640969789221 0.8410198305327724 1.6256537643837359 0.4940582983766911 0.5379236323010737
P 3.2051753667620226 0.20355708087717525 6.2708468896538 0.6618389776005118 -0.9592369376045545 -1.885075245144005
Ni 4.627954556233758 4.520444185595563 12.368831061163457 0.7692491261560751 -1.367056836407291 0.5166572667231296
P 2.564799516029957 2.968739097344464 8.673847763277895 0.06813191978123105 0.6113347982033729 0.5532273525376795
P 7.366030185598546 1.2922236481811986 11.577461005804402 -1.04184185419098 0.7592840445235634 0.5493203041737894
P 0.09842672486687959 1.2613801317268054 2.267614409025015 0.16836997606838747 0.056777928220992535 -1.9220896175848254
Ni 8.828537665667506 9.20821674971117 7.209125994938104 -1.3387443626158428 0.44096681786835024 -0.07786148836416913
Ni 4.629878823379718 6.758633879923088 3.073564700998151 0.6994161645233374 -0.7834231036636121 -1.1268710639481818
Ni 1.7357257937358634 5.58709584776702 5.15771082572863 -0.0834729210136756 -1.1228909962545113 0.641354998714547
Ni 6.187052881414074 5.29765476514709 0.6002304821362178 -0.14518042532580158 -0.011060371579219661 0.47080961226139567
Ni 7.212051985842344 6.7416101002442295 2.520735639791425 -0.6875811195616223 -0.11825171925575763 -0.22778508480191093
Ni 5.547229451872237 9.14692561865538 5.954699925294284 -1.2284954590599038 0.284172205342388 0.6367483531804712
Ni 0.09327815937395519 7.609408547973302 1.537637682641945 0.5368957052571915 -0.9320932873102269 0.2152062196956358
Ni 1.7103236260052155 7.901519666345999 7.052191421112198 1.4298382905098859 -0.24497496631763618 0.7366218270393572
Ni 5.976626443036415 2.7736975891146525 0.6954237016362964 -0.0032084796349686677 0.19189428444257273 0.8400457372536629
Ni 1.352704561491321 6.710297025778143 12.13681139916177 -0.2870086463499186 -1.6682590006487719 0.6446557809530059
Ni 7.875482214246589 3.059262516383149 6.260659322204013 1.3114582732063802 0.6802460193527897 1.5651317957392787
Ni 1.2394398034549188 2.890534670847862 0.9290601163213831 -0.2708880866389721 -1.0725151149051206 -0.025459063503052933
Ni 9.172631618040652 6.830890571604902 5.997929645535572 -1.1087897809664387 0.3990012720698419 -0.930883583272842
Ni 2.5253566430476817 1.8628655306668243 12.538607586258193 -0.7081561154994965 1.098705143036927 0.1080521530149365
Ni 3.2478406966872937 3.37496201957858 6.652726451438538 -1.2098835003856712 -0.3754754210337598 -1.1147498552046158
Ni 3.8064674182854614 1.1347007457877014 8.106304963669448 0.03830609466905016 0.8902169587914152 -0.007154094546278002
Ni 7.273619327493249 5.300941671228946 5.795622877952279 0.7434326793136035 -0.12590872158038316 -0.6902141863090951
Ni 7.201187702434527 6.8809767595189015 9.67503014879147 0.8024448961817535 0.7970718047952983 -0.5244227696011613
Ni 3.9053692253759373 8.815215107963176 3.9435903268258246 -1.345727221691579 0.2603455352364355 0.743697502939216
Ni 0.6407920080287042 1.9671810654215334 8.594545860016707 -0.3045176017679594 -0.0841393509530809 0.5060697210152704
Ni 3.4281417661578564 8.930008231292542 12.048938681134194 0.046753454105454964 -1.905241692789551 0.1265206441327692
Ni 0.34245142003420265 1.1871071027006586 11.389492330213477 0.4978758723505683 1.3174021494946406 0.6167978782004732
Ni 1.4720459526202303 3.332020479058195 10.653762137134184 -0.1382243057229426 -0.059611283904729605 -0.43326070747334416
Ni 4.841244377780765 5.19867009487808 6.212780977646958 0.8188511054539188 -1.5808193816778644 1.304620167238624
Ni 3.8206646428743194 4.11202999264021 3.950678811398433 0.5896719685179587 0.5060450384249221 0.5039264494200225
P 8.236158009346411 5.799326862032758 0.11188554646479966 1.3070334046658072 0.49328491054577633 -0.023518394836914338
Ni 2.78709380297768 7.316339899537542 9.626087472741242 -0.6092648030482217 1.910450747794316 -0.28716214120864736
P 5.567917625446273 5.782606914008524 8.439510694383202 -0.9805950915653563 1.5686593492765628 -0.47070908212778934
Ni 3.8368045486488125 5.415909727935218 1.0996505419697222 -0.24253653207947262 -0.8826319473553057 1.1876144045748256
P 4.584469801542982 9.160137692121666 9.86933233332836 -0.07056366915117525 -0.7298027472349947 0.6737267301770333
P 1.3272931867408357 8.526611864148425 11.282592384990483 0.34268459975598403 0.776470840715495 0.3128364060463
P 9.07093087691969 7.1963816380795445 8.195201502302911 -0.11880244955290509 -0.7668484871343826 1.1198581229654585
Ni 1.3677120038258466 5.523014989700578 1.2580168073803009 -1.3730819595554482 -0.008571543719094915 -1.400564481246433
Ni 6.57244031775676 6.489052339091852 12.210724433712285 -0.5092555749424197 -0.484578898131346 0.7001828674860329
Ni 5.802070553944223 0.4976329772831172 0.10146964492305184 0.4945578637209289 -1.3860413479295937 0.7293404628865955
Ni 0.6414263716954826 4.673851550121863 7.510880545888213 -0.7267030252637484 -0.34907996175936656 -0.00036406820763808267
Ni 6.059323895213538 9.01557827365885 3.5387217572097507 1.1174042621083273 -0.8756503738311499 -0.23294477462597946
Ni 1.4685749061416316 1.3862181136984826 6.355417970367779 -0.5168184748913422 0.41588133565463214 0.8395091480239026
Ni 7.406863318576227 4.744902122205012 8.229375197832397 0.17011138423952638 -0.23094959857282163 -0.16054045272163966
Ni 8.342766092040566 3.894164282234147 3.622714637077958 -0.6977781146992821 0.9585764212024201 1.201674739322634
Ni 3.6156058970617084 6.460197538922279 12.531114913514735 0.4365576330570611 1.4247230807705078 -0.4707173096579054
Ni 5.992324411858725 2.440919064121341 9.792751104429044 0.2266327163650226 -0.8766037388833547 -0.45167391987320926
Ni 8.820684077746431 8.762044568403736 3.590561882402725 -0.638433454192378 -0.30739646597765125 0.32405952845562896
Ni 8.07973994933337 9.18144273602479 10.026320307869321 0.38783625659195786 0.019325954022121557 -1.4452008890088852
Ni 3.2598282365152405 5.283577231816115 10.063094986502794 0.9967092235183995 -2.1597204848325644 1.0283361063950613
Ni 5.625507534527536 2.28022894690387 6.696359439148692 -0.3342179570458696 0.29950240794155514 0.38260354743810887
Ni 0.03748177775696577 3.7158887571277535 12.557527091321516 0.7331894043190404 0.2864334905727389 -0.9809247069906332
Ni 1.9053927552945382 0.22960373999642264 2.6348189018913484 -0.17580894884493592 -0.5610959566524789 -0.01655790435868116
Ni 8.596115656898938 7.8241714926942505 12.794060955149348 -0.7411868207022202 0.9424257795844865 -0.7142239189601312
Ni 5.244143565853677 1.9270476659514735 3.2037501200912346 -0.9294625345555994 0.7573189503773924 0.7372522615345044
Ni 4.637226025209751 3.8355155658716145 8.453538509807057 0.4727289407712955 0.449262225107923 0.13599104551704966
Ni 1.5542001906269625 8.57632977126894 4.754513330212996 1.0769651802566742 -0.5062574115460442 1.000105393684142
Ni 1.1491741809716733 8.834199982867343 9.21484488329192 -0.9582468057771433 0.5828310343367253 -0.8739501033105916
Ni 3.0362910018895044 2.304360545896994 2.481899509416417 0.8277484079435486 0.2914965069179431 -2.0045765205361477
Ni 0.3480216670356677 2.032827116860287 4.328649993262308 0.7980742779178835 -0.918882702157224 0.09836166520004995
Ni 7.238503753834425 1.3258937197255916 5.1201553918129665 0.07557834875694726 -0.9272845530676741 -1.3823263609718517
Ni 0.03617806374802783 5.893928990859291 3.381181361478563 0.34415064277854923 1.1409977331575512 0.36841928551792674
P 3.9361943277906564 2.8178084211543535 0.31828391366371395 -0.8808231762813411 0.5818612142242883 0.4228706224882718
Ni 2.7601356488945563 1.191508058182808 10.337400649212462 -1.1097932825302887 -1.2104044058861476 -1.4371330243990863
P 6.006457187308723 3.733382094818305 5.039626192807488 -0.5296043138021008 -0.6727196290687576 -1.3908271993540113
Ni 3.027102396092046 1.8459614422458492 4.640349967040489 0.2455686340375771 -0.4424295184568058 0.8754832521256664
P 7.65657611059893 1.8678189073392013 8.193584749619513 -0.41416126763973193 0.10152540764001226 -0.40133866195376683
P 5.042592694599013 8.002133979126182 1.3634012771381012 -0.021912740912691294 0.4501821658190311 0.06661316914385947
P 0.5459606244082248 3.8517475418444787 5.504123105696767 0.20997711008621256 -0.1021445292812499 -0.7082972690630511
Ni 1.25725538683977 0.08049421233009695 0.3020353650551428 -1.4758134716884197 1.146947780093399 -1.2136234270440776
