# total energy = -340888.74427301635 ev
CRYSTAL
PRIMVEC
9.13302990533630 0.00000000000000 0.00000000000000

0.00000000000000 9.13302990533630 0.00000000000000

0.00000000000000 0.00000000000000 13.36711244726896

PRIMCOORD
 96 1
Ni 6.480852709263263 1.9124746958525518 11.517478418082575 -0.8180561203564493 0.6858903621227607 0.4119362349639551
Ni 4.406348932603842 0.14456672792356348 5.970808616503637 0.9226403694274432 -0.32635320958581215 0.6637526496834569
Ni 2.8079043316987797 1.5812471058845263 5.046632769517135 -1.0187780303929808 0.15311870633627178 -0.40956979161430757
Ni 3.388746757782726 4.482025217118003 4.971415876399434 -0.4037809528466723 0.9392381258851245 0.7771879213871776
Ni 5.244021288306749 4.797151275635573 2.602215715471744 -0.03881877263941057 -0.6511943534024721 -0.00047411142294111896
Ni 7.4536756392167804 6.066185759492996 2.4638265688715424 0.5587955906540764 -0.7700058018164415 -0.06778327819256068
Ni 4.686714679890313 4.721885977460194 11.101400415215828 1.4430218790796956 0.7912508272381471 1.284283512563801
Ni 5.626284248521592 7.629130273757154 12.825997729461125 -1.2033896651312113 0.596357093847618 0.6532365806434814
Ni 2.2158465450809937 6.443516883642471 0.4480974918696674 -2.02236032688213 -0.026332981467574002 -0.8263348154254736
Ni 2.772714768069397 1.4312644913188075 0.19758031241437887 0.5989765337483363 -0.2736913604157222 1.168094332264027
Ni 0.516755043020428 0.17656795086698215 4.822238795057725 0.7430737533122881 0.5135572876415672 0.4191330098227104
Ni 8.921983699204358 2.012024720134998 1.4083323669178174 -1.0242567941193648 1.5354872333999685 0.25952972420335946
Ni 6.629711961169648 0.6642982253397391 4.77363646393649 1.1893527274221711 -0.2515500484319926 1.958259382637163
Ni 0.9054440029678517 7.26650332750628 2.2675029613508575 -0.5519428293983011 0.33501037104017783 0.11603542833072919
Ni 7.745832127911383 3.912224624002632 3.774939660699288 0.6001047338155084 -0.22861298001984495 0.4389078784567925
Ni 7.8417198072638055 4.056243370141154 12.511443398605948 0.5978272506352414 -0.7217757631654602 -0.18074263870112744
Ni 8.148397813261996 0.005403100400504148 7.000757734244702 -0.6321093117465629 -0.4183367391736602 -0.367341993293348
Ni 6.872869745251836 0.3847882429409069 0.3206734607881362 -0.01287248508729396 1.1310416503861036 -0.29882029427286605
Ni 1.8611836007727152 6.4830081042844245 9.420231570738002 -0.05053169020096459 0.9324817809978972 -0.8617263075508901
Ni 0.2726940022958973 4.824605163066128 1.1944514230044192 -0.725980288165111 -0.18660475390885928 0.16504656812210933
Ni 6.359721335679954 1.755066928099528 7.084181567896367 -0.5057676163938194 0.8263957505703962 -0.1903289968379819
Ni 3.5335326784203063 4.0007784804652555 0.09250845834466959 -0.39348908400236104 -0.4225957715603303 0.7154755319790451
Ni 6.347684002468553 5.786715049122093 4.722053111904632 0.02698655589117288 -0.10945571823068247 0.5080497275597766
Ni 5.21794648836855 3.086306477588854 9.246219041595262 0.5946966754260598 0.19793200599622038 0.22008103128943385
P 0.2034364110905169 5.8020859381924925 12.525157556079575 -0.018368475204858688 -0.8228589410617312 -0.3475046468524467
P 3.997527121874012 6.000665404061595 12.842533079824737 1.3133919998939834 0.9257100094917023 -1.0824889382883809
P 2.5178484398468335 8.560279188958303 1.6596203740840634 0.4633994358402535 0.385957037291374 -1.0957748567640095
P 6.578713123041833 7.599676252811201 5.978775358355159 0.3792971087726951 1.0328915869762276 -0.5951461042586524
P 4.835920986927224 1.127646050287097 12.814582355575748 -0.182207396172112 -0.8185348597650806 -1.1219913672583772
P 4.055576658969355 6.294730695974092 8.339487281432563 -0.31865326983839315 0.5706326924983205 0.25748184053539525
P 4.621450049291932 1.051787105177923 3.7299585758741984 -0.08720796257607562 -0.2593723726898888 0.8283233066104121
P 0.41269512864709434 5.61287696084759 3.5367776438907237 -0.9351271890405444 -1.3744965805147875 0.30468292370123007
Ni 1.779616512069364 1.3128547606012007 2.789957014935712 -0.24762808766976707 -0.6607706842369975 -0.4514540905529193
Ni 1.6338716233079624 7.023436873721598 4.735179102262313 -0.7370820545052273 -2.9397466469994855 0.3758006655836625
Ni 5.9453831749807105 5.97719351760234 9.396786170065024 0.5253699640057791 -0.5026329274195795 -0.4419237824649809
Ni 8.619790010813754 2.5575862522920554 10.496110695095252 0.4455636932104132 0.03309755388491719 -0.4323973310317843
Ni 2.347088182598311 5.489243137112592 7.122278174895392 -0.8918465239750382 -0.7377063183527875 -0.3715894557157923
Ni 0.3652088537613924 0.3893684573608745 9.16812798401502 0.4923945375210229 -0.6458672847626037 0.8820089690593261
Ni 1.3875446779022875 1.0041309559388583 11.499392279267298 0.2924084772092512 0.03617336459676351 -0.41170612123102
Ni 4.096720957996182 6.826062967779585 1.703718294932262 1.226488970152836 1.0468930434616424 0.7795949881667735
Ni 6.055737573458215 8.136424411258849 8.082758728443835 -1.4093219157240888 -0.35250081451545745 -1.518900275575565
Ni 5.041523752674602 2.8012463530105314 5.049881388199452 0.5849892183303086 -0.16834040838203265 0.58639175510479
Ni 0.6446786508293215 7.453264652877999 7.170319737989935 0.3474907628953757 0.7309075502633993 -0.35486005877625343
Ni 4.852159513823938 4.506940122277866 7.272470849145376 1.0420208029710054 0.28946944918558537 -0.513561144296309
Ni 8.317797249077666 7.334042082512581 9.189689240650432 1.009243094319352 -0.4796565211290642 -0.518911352864629
Ni 4.767039676547571 0.23186661940141845 10.369163408166706 -1.0076850058036129 0.2735905731717998 0.7301758143036973
Ni 8.499791132919528 7.398009822886366 4.329928306165001 -2.264935682619338 -0.34611882224851365 0.5689406495078783
Ni 7.1920052038299565 5.707750873897686 7.175839741171248 -0.4656098132280111 2.318845031043284 -1.604459646804624
Ni 2.367884091340616 5.0578992750175775 2.5715250822975486 0.657530580033145 0.7728869800189786 -0.3148881463690061
Ni 2.316163743862498 5.111236168761567 11.538036868051362 -0.8002255199329316 0.6373055112355217 0.4890929839516157
Ni 1.3528665639389437 3.473638269315326 3.9639632375402516 -1.629792469142458 -0.30069745669092085 -0.17493503088041487
Ni 3.6474854906195793 3.0722416117728018 3.154919276893836 0.2620923427242131 -1.3314583704773908 -1.9505838683697763
Ni 1.1313540603658745 3.47810432086341 8.558974992309906 -1.1232231827829495 0.09203366609949311 -1.4884057065311334
Ni 3.443252679334803 2.685412136682617 7.155682231208515 -0.39155510020444184 -0.005181029980307206 0.005558982145016232
Ni 4.265079228420275 6.6647188642040165 6.117218389830889 0.1835857645768774 1.0135291232892156 -0.19185571789515346
Ni 1.166936344274536 7.518711944071394 11.551551012173448 -1.4807314778153273 -0.2615177011676657 0.399779287886447
P 0.1790777074424699 5.619626269833344 8.053458142397693 -0.05388569427486204 -1.2465065509253435 0.6367277843551808
P 8.403191077246554 1.9235621939698813 8.108624382000745 0.29485565319816315 0.12094957780289492 0.4717485791358972
P 1.8378487097597198 3.2315307836544664 10.608568430324338 -0.4306317544909293 -0.5182323245197332 0.5872828994604918
P 4.300232259930654 6.244325504780071 3.950329450728432 -0.6585366527001562 -0.06495095095008815 -0.9240722167779634
P 6.7532909867261415 4.131508668316534 10.451531463579192 0.5986469183230593 0.007574727023464374 1.9090687798451251
P 6.612130878899583 7.9886245908035445 10.16467304544296 -1.5633780462729656 -0.3029433153023041 2.113812152336224
P 2.2837232221880712 8.379244273240262 6.093197608283617 1.0665385856067116 2.4723640581417676 0.40416096189391043
P 7.091048692965907 3.834493407794568 1.6510526788749476 0.5111841594237003 0.6804249681328152 -0.8685579857607428
Ni 5.398104633230525 2.700180245789472 0.8553173691812271 -0.15581347955961553 0.522426565106739 -0.5313074125361366
Ni 1.3684657787531103 1.1782247690463805 7.179837268293122 0.006435728323014723 0.3295089816059744 -1.2538161972128794
Ni 6.823916705788174 0.8636613051614512 9.347715314517579 0.9974209048734435 1.0958705018016095 -0.20594999120469046
Ni 2.660889951802033 1.7285994078820481 9.270600577817685 0.40894064267074093 -1.2681184727681643 0.28350808939582783
Ni 6.490515454739486 1.956194509269072 2.8826846659943977 0.06052453974761835 0.47742171826127444 -1.421732630683616
Ni 4.090190841724444 7.086765302012835 10.611616122352142 -0.056249309411032164 -0.48240837284258853 -0.08180736038579459
Ni 8.30289214452455 7.404676934604365 0.19282748373212336 -0.47338842873216536 -0.6845037661878792 0.10344087949517024
Ni 7.586323763315702 4.056800484955946 8.49934452776472 0.8989124296828841 -2.3269519764211344 0.4149349125809628
Ni 3.1317341675687516 8.379098144764251 12.467879759998164 0.9235441121886352 0.6938438126418824 0.47789840078737694
Ni 0.11617031182273946 4.988086395603355 10.276742626907645 -0.5820864428612168 0.22838929404481315 0.9295478951805539
Ni 8.425320408332459 2.24708150682833 5.8622543381899925 0.5180652028142496 1.2064644474017931 -0.3376454946701798
Ni 3.941048465895788 2.5761537017751945 11.29741532633094 -0.8222588455838871 -1.1074049848037701 0.8063869115486371
Ni 1.2157615213216884 3.025526164598057 12.840434309588032 -1.6645812946868688 0.8747841691761128 -1.325040125655873
Ni 3.1934095174751147 8.536652040993285 8.073495096367717 0.5323929322908315 -0.27629460236652414 0.6436193692686916
Ni 5.843513361141591 8.070739661291936 3.5343044194342386 -0.9374339827968501 -1.000954886168631 0.2595819175975336
Ni 3.136574673336614 8.326263567656548 3.887049427494874 2.087878720299914 1.3584606100978476 -1.4531214294075425
Ni 3.2452485943399925 4.478280674920223 9.267699927568868 -0.0083483719646953 -0.5689085107183621 -0.2605419675179577
Ni 7.055941326604279 6.3194172753901885 11.686077800492086 1.4213320528110878 -0.6388484302426095 -1.82648108964988
Ni 0.6215209405934894 0.05633618071411391 0.46418532377549576 1.588261953998839 -0.3202967189790871 -1.056372186596671
Ni 4.755595990269966 0.46435611143183353 1.6014868131150153 -0.7225668916081879 -1.281367624468587 0.4480327235761961
Ni 5.994555407158389 5.187515233239273 0.13851518241076086 -0.8486663890431384 0.16007842548355658 1.1209099612687403
Ni 8.261473854605203 9.054777951779291 11.238573042253238 -0.21490051552975895 -0.8971219134413645 0.5498826044351627
Ni 0.03692666588796209 4.9756380760531735 5.762201083968283 0.16141899867185105 -0.11955346878631669 -0.02496695435798281
Ni 8.276634683991336 8.922349020394385 2.2427341846670052 -0.6232598317757331 0.36115386220476514 1.9267664542352045
P 8.49752614154136 1.6650426538470442 3.700538347138323 0.4820975264703891 -0.4207587183515915 -0.31462049452991625
P 1.7631405263991318 3.1133493786806263 1.5050968171263053 1.6706038467318647 0.45559202398069276 0.8583725605873088
P 4.712999539512779 1.249024015673676 8.405654255370312 -0.42556590993224774 -1.6359289210574988 -1.0054365760890684
P 8.35209177579148 1.6199346199084201 12.574215625385367 1.425734038533525 0.524265932308323 0.3334671949227741
P 6.516462392261176 7.736260712732667 1.5846847782826834 -0.5597756951791585 0.3172620459178213 -1.8294190892322812
P 1.5567157879741913 3.320093773146841 6.058871115965674 0.7559989460143883 -0.5388561714176721 1.2038912873579781
P 6.680445941434693 3.816592669483229 6.030840021054878 0.8403678964797722 0.6940160765536886 0.0031637424399622934
P 2.35336257403703 8.597843340322864 10.124410997090049 0.4427645331987214 0.7163401939721856 0.4543015873040434
