# total energy = -340868.58673292195 ev
CRYSTAL
PRIMVEC
9.24987816696589 0.00000000000000 0.00000000000000

0.00000000000000 9.24987816696589 0.00000000000000

0.00000000000000 0.00000000000000 13.53813168937184

PRIMCOORD
 96 1
Ni 7.427411456261847 6.055950559897791 0.028805044766013616 0.13883160028963834 1.2954582982336982 -1.1581688456201988
Ni 7.5446259090009775 0.20582273308707988 0.5729485369322125 -0.25405353158013666 -0.38101820522885993 0.23720432123328178
Ni 6.162703400732885 3.827728972994817 5.730230909480802 -1.6185726891672383 -0.15315187356705237 1.6391317442655127
Ni 5.876438179507301 5.503501602365867 1.7127360664441913 -0.03943686583938369 -0.8963616382365723 -0.330335848382644
Ni 7.407311471586805 5.718108019506063 5.2060338540165185 1.3768434834804093 0.15007889106868347 1.459634547935712
Ni 7.962609391511694 4.272648099948111 1.3127260216794816 -0.9934259247814375 -0.6271936196125005 1.824027228792749
Ni 3.722807607983773 5.072762538232102 5.745962176824035 0.08588410155832951 0.6103698631869423 -0.697955777927727
Ni 3.2511655837795828 3.9531295676747717 11.694535529128535 2.462421087996443 2.082304825756562 2.4505387347365604
Ni 1.094584301206198 5.265307996582618 5.731151272331776 -0.930693835859539 0.3756006337577144 0.6494056369331654
Ni 8.407352770784904 6.510424810720997 7.380014156918367 -0.15465134093071428 -1.4812742376926746 2.05586282951495
Ni 3.7368396727569153 5.460184424163741 9.775369937607074 -1.5877112237016915 1.5511671060290704 1.858950008811863
Ni 5.109604801904764 1.1056194055399877 9.435603422612305 0.8892355687147524 -0.2588517242997284 1.2204674465491046
Ni 2.881947457553643 1.373449620112392 10.270893296571513 1.1833641139389037 -0.3523727735780254 -0.4636385484342531
Ni 8.845898731865624 3.9998692006996155 9.891094235016638 -2.1641646366468468 0.3465350838503258 -0.07020525737049199
Ni 0.8373932961934961 5.815453734517632 9.391347381803406 -0.23475740235468603 2.174220221110636 1.3110553813410064
Ni 5.2439500285132805 4.740812170062188 13.186775781174086 -0.825140023786424 0.5153316059331705 -1.0863990719760643
Ni 2.134566573173201 8.110894184114361 4.10308303825046 -0.3467808813125447 -1.3136581090711763 1.1819854884238223
Ni 1.4399562422079053 5.396600763484387 13.303271518400447 0.3492337137284114 0.6203871382136283 0.5542609360085164
Ni 3.597407013303818 7.037214606960438 13.04734682167215 -2.092805725287886 -1.4967206541547322 -0.7336671152864074
Ni 0.6696375106129357 0.3084159038308861 2.9227745686252944 -0.4551971025351193 0.3001446695112444 -0.2006650886566673
Ni 1.5144917583199562 7.875928785717945 8.125261094467456 0.4305438227628133 0.6135305203031112 -0.29425118684494483
Ni 7.589543316079672 7.688267262898227 11.643537252318882 -1.0912977948292626 1.1492242348324013 -0.8523577218517966
Ni 6.631718459613691 7.86604991612156 8.247375207529812 -1.2470742505033556 0.04962820455008872 0.17073976185214465
Ni 8.65794121295313 9.066841315366796 7.6950603732274265 -1.1188826464260666 0.16492932581795466 -0.4740682284080094
P 8.788049995483796 7.89114483486219 1.5483694361259115 -0.2650804788182596 0.5727937047053813 -0.09235942487002805
P 4.6430594604230535 7.390744940269272 9.360535113533258 1.2331910647633602 0.31828534497601313 0.4268704876762841
P 2.0860879631033002 5.925564281030148 11.489324212970596 0.6981558097536751 0.8085913753991235 -3.1953161010035163
P 8.860587537969613 7.836986799762158 9.481525366430857 -1.1513520798086818 -1.208957389026976 0.2481569635900436
P 0.373799590749432 2.4322738933601404 10.959333958978018 -0.826219372893532 -0.8870069364945498 -0.4415368314392073
P 6.3845709720239805 5.671331386969622 7.198102358200815 -0.6233793880727329 0.5464152147118525 0.0012742387267332892
P 4.223762495250645 3.2128525895209434 9.878882546214063 0.1576145373240963 -0.8282626285758058 -0.6817956232280967
P 1.7072037144726577 9.242607495208096 11.925076710925746 0.5638753191698289 0.138922874451864 0.5092398912131358
Ni 5.333618344868483 7.148148392605986 5.420776244361833 -0.5582098933539353 -0.29407275228555163 0.9316060632611635
Ni 2.732339932411385 7.963358631621532 10.304806123913487 -1.5594267749347015 -1.0161058828774565 -0.22391557454417566
Ni 7.027955479183302 5.9863359788281345 9.594784571380272 0.8786637067361772 -0.8520633305398294 0.029950266505187128
Ni 2.88428767666215 1.3338046434362627 3.8983323660119025 -0.5345590867042149 1.0055419913186812 -0.2749090348729072
Ni 1.021020022273567 2.94658560431351 1.778910617923122 0.42490025132379083 -0.28685155194676404 0.7776239804833317
Ni 1.854609768674897 5.643211758155942 3.5792920524259526 0.7056042956119202 -0.39707140203698066 -0.3085398355534751
Ni 4.33714749853949 7.055483115811431 2.252203745332326 -0.4952194085643278 1.5727047229905302 0.49098248766484476
Ni 0.6782260222423772 0.8453167416019824 5.995334260048512 0.7841504687479398 -0.47997739480359275 0.33672992483444586
Ni 2.589309070455485 3.356614191830883 7.270843398000414 0.027559397675507375 -1.2570362468120737 0.33113031925948133
Ni 6.234426953963567 0.017017925359016042 6.268953973198049 0.3460103216951073 -0.6298282290218702 0.04803103526629793
Ni 0.8574183568575541 0.4093061720534428 9.906162286114494 -0.1823781174220214 -1.5391420565437364 0.7514342094618414
Ni 1.9902037287998104 3.3130472669254774 4.954523199021738 1.4458992006274904 1.7205295279177144 0.1700936436277135
Ni 0.40264903492936194 7.4670564329379765 5.920021754192925 0.18243262480904066 2.208269083165229 -2.1120339773898786
Ni 5.20904098932156 3.041443102170185 1.291726023884844 1.5069536447366498 0.7349395542409279 -0.2967364151606438
Ni 0.9492687194091864 0.9049044550288664 0.42373228162509263 -1.4153588659467882 -0.7017203871764818 0.20673237789666976
Ni 9.356343993857113 1.9268420651900378 8.49466329326359 -0.45503589436690667 2.8640554268137577 -1.2002423777514812
Ni 6.292978681065737 2.9044616603603854 10.517652289289456 0.538506501387737 0.7301740145314844 0.2986860826878469
Ni 1.958985390889886 2.2570534563148956 12.24319573667293 -0.25962202680684965 -0.9795951895459323 2.1755227419721437
Ni 8.721561873144083 4.368504584617904 3.728022689143363 3.5735354033310007 0.00891118644670078 0.1452698997158143
Ni 5.426820114581194 6.318656342114019 11.331307623830142 0.0856321334485235 -0.026631486544599292 0.07289565971846156
Ni 8.837971586505978 3.356123948302224 6.116987729191486 -0.02366520482742376 0.07429973915483978 -0.10556358226512788
Ni 8.52629695069119 0.8369104525671559 12.101694804521564 0.5942855560305701 0.7307273159317932 -0.05290224731567018
Ni 4.4137457374230715 8.941847715314408 7.790030719594473 -1.542182900252589 -0.5270424666121956 -0.20730856211511395
Ni 9.04415136487997 6.7786527700430685 3.5026938135423715 0.033744957660928984 0.9050599373415188 -0.46353081921179523
P 3.2464296462951734 8.942902201394922 2.549744567717079 0.5184053597624877 0.07019214474436944 -0.20139990994016282
P 4.6765347685403915 5.237382615204822 3.6603718571517136 0.2815537938829345 1.8486573686366035 0.08670891145247002
P 0.6426861413779291 5.04686288011424 1.7304301578776415 -0.027507204281333273 1.3222160259435163 1.9986401004470546
P 3.4051483011681793 3.532556119352268 0.38688909296464213 -1.3563924147149091 1.1088118924536259 -0.5434008533655609
P 7.564392898071647 8.015130198223561 4.786203170889324 0.3556732987061681 0.8839604363587422 2.1100444577636757
P 8.379103643680635 2.1856258991769884 0.9336262508937869 0.06949254757418354 -0.9948387459685641 -1.3707088313375813
P 4.087151048556815 2.8990874813009286 5.417919882066548 0.22900995834794752 -1.17237110526251 0.35307262785852744
P 2.09396885907345 1.2493902577278269 7.662839348553225 0.4440572838682159 -1.4335651045421696 0.7057045686352105
Ni 7.531324584581875 0.5123387119974626 10.014155535575874 -0.04165212832314762 -0.12655175448102074 -1.6144283279815614
Ni 3.07144045619741 1.6122722175927895 1.3783039560339116 -0.0882474595841835 3.6082926043065275 2.3507197682646934
Ni 2.338739128043057 5.554477679468563 7.767651565005058 1.0898888302968779 1.0714396224527547 -0.22287042110911295
Ni 0.3790350216404001 7.750324693724207 12.876902096586281 0.3000976183233929 1.1469282397093732 1.512072454020454
Ni 6.981095597745768 9.114959180198626 2.950216181388961 0.6733181818847048 0.7653194520843659 0.47798144741948645
Ni 6.548025564381396 6.835622768024469 3.4145739267475017 -0.903960790740069 -0.5204979806254584 -1.8476656941472953
Ni 6.891556779681155 3.7278950408283533 8.22557879524805 1.0085830921378502 -0.05333727797055975 -0.1538067335422319
Ni 6.6320329554622655 4.117971641717072 3.566377372903038 -2.7482688812690412 -0.9309761429866482 -1.6519479221935744
Ni 5.16553881356145 0.16013851113053879 1.4045273598782482 -0.11481569699101515 0.04454744759307167 -0.32968253106936124
Ni 3.806528252849766 -0.008550587130054587 5.436899706527993 0.5049160670268015 -1.0734890487826156 1.4595882680788088
Ni 2.00208982190033 3.658345208903991 9.961289708418366 -1.276859452185588 -0.3780172136190071 -2.3939428406193866
Ni 9.044965354135101 5.880480376149267 11.784510016442203 0.1961854556187589 -1.1518981821201386 -2.113928109088798
Ni 3.474559384924053 3.6133815524358006 2.953884682963798 -0.38859036114916307 -0.1415885942094852 0.0877275825249715
Ni 3.037484154429311 9.155621643443672 0.284343096598122 0.3858665344600968 -2.844911506895455 -3.250139476601299
Ni 4.34078270055389 1.7152788578786915 12.893729474460573 1.3404407764816593 0.00655836994380806 -1.3052680852352683
Ni 4.9862854297521375 2.140939739045775 7.385023890788594 0.009620553808899559 -0.3251969844941819 -1.6191838403886758
Ni 1.7741543307073344 7.635515209238879 1.476698607199254 -0.9068908199026704 -0.28569712662734664 0.70483990664207
Ni 7.264280609630905 1.8249084107404472 5.428885612316093 0.310559179976349 -0.48574797873878284 -0.687306782854313
Ni 2.8270031828321756 5.57596514582849 1.3988007604708306 2.0105939303748213 -2.428772546704062 0.9062231044116845
Ni 6.796930528771962 3.005969820426611 12.946759024456897 0.5434041957996706 -1.2663904343334642 -0.18211072269324766
Ni -0.017049374943873447 3.7458583037086712 12.978356607360691 -0.73032108163231 -1.8818775641423138 -1.1254726409387585
Ni 8.030716242483775 2.1688003712782766 3.0674694836152674 -0.14248308099929655 -0.38517773592318827 -0.13945020771024372
Ni 4.62394921268323 4.445768814710229 8.087368044665443 0.9916829739484019 -0.2800597258359112 -1.9447837167482314
Ni 4.610407391438747 8.59441305154117 11.357327530360694 1.5695507507425808 1.6082682219174367 0.7506525941008104
P 6.224289087786003 0.9711816801524787 11.706990489719859 -0.23591234189473562 0.009076765490287594 0.2838595591979757
P 0.49496096638816633 4.258958280657241 7.792900031718815 0.3065240906750269 0.4710438397593888 0.6372995976982508
P 2.5839996405413235 7.168248377281028 6.226524783274249 0.8087770090473684 0.3879789528174092 -0.7107120491521308
P 7.190438834361298 4.833477446856744 11.583712742017777 -0.9321171985696269 -0.5394081872664 -0.11124546314125357
P 7.148129892850188 1.5811741280955551 7.912916272473624 -0.3346185349183979 -0.9899729332358306 -0.2858287671092045
P 0.5675059087763015 2.115021581172113 4.348962367580186 -2.3557059086253753 -1.1594307430517579 -2.266843184054696
P 5.742222451189374 1.8753294951691877 2.8225919160620294 0.9521232093779086 -1.9513492857808907 2.108081420500034
P 5.565503533924453 7.3043973300798966 13.362460562089874 2.0332803162287436 0.38066956364018956 0.9918212992984791
