# total energy = -340896.52777657623 ev
CRYSTAL
PRIMVEC
8.99735687785205 0.00000000000000 0.00000000000000
0.00000000000000 8.99735687785205 0.00000000000000
0.00000000000000 0.00000000000000 13.16854125751354
PRIMCOORD
 96 1
Ni 6.213628488093584 2.074106644873177 11.291576429601378 0.6720755677268554 0.24024670760403136 0.24536346000530648
Ni 4.7107820117767725 0.3121344975039965 5.793630979836984 -0.8821593785942613 -0.6429290280698863 0.047407542749686095
Ni 2.659816568212847 1.599361121124096 4.794639175245856 0.3999106712579887 -0.9266574610066365 -0.15316858573760075
Ni 3.355159282358592 4.458334178831606 4.826178509254196 0.6488430795614761 -0.5909757749310467 0.260684406633093
Ni 5.310365859074011 4.192957144377345 2.862024061348244 -0.8286477798293664 1.4101091875120746 -0.0793766394571149
Ni 7.442811364479531 6.121180648493057 2.6604931694330864 -0.6778600356191165 -0.37939352514124336 -0.7967745852698536
Ni 5.036180412457324 4.4178820633236775 11.53755156417101 0.6413699111128824 1.4387811015254706 -0.2808022604288906
Ni 5.525897537675531 7.838308170836744 12.341306127825137 -0.053289712562075965 0.13449517769781352 -0.1051097825571609
Ni 1.8709643263816247 6.458671496514056 0.23869537330240215 0.17874386310354376 0.40175286667305005 0.2931782654957402
Ni 2.6238361389610216 1.532105880149503 0.43279444862290917 0.3203972491126934 1.2418142876559966 0.3752784745316053
Ni 0.5980488982523865 9.110993266635687 4.842506912106462 -0.11925393526802687 -1.1022563507232952 0.33500342906164243
Ni 8.555163564737706 2.363551608371859 1.6219300905502723 0.35866220613116295 0.6642483583729528 -1.1058589804728889
Ni 6.859035872820066 0.5975612415218416 4.741873277423837 0.04734275095002169 -0.017353917897415274 -0.28230275623381706
Ni 0.7774750843446172 7.375016282105811 2.6196577665317773 0.266988751584566 -0.08441805853576428 -0.01151982771414145
Ni 7.663966390988626 3.614157190946502 3.861213807785719 -0.4986076083102703 0.4822402226958405 -0.18261517313349193
Ni 7.708116420080576 3.8317582615780097 12.431023269681745 -0.904360854391965 0.2956447247583618 0.521866835948527
Ni 8.016518814045273 8.863439995709275 6.9073741714335775 -0.7330572496165505 -0.3225495195690058 -0.028920796799408257
Ni 6.796990101347051 0.7498244078813239 0.43729042774197324 -0.09581061664342208 -0.6874283960338419 -0.32697901609526914
Ni 1.8074519857743139 6.382751801083473 9.250795094031986 1.0212241779406284 0.8873810320045168 -1.569341205834936
Ni 0.20840667186870732 4.888488803012783 1.3919540555794392 -0.15075483408978552 -0.6700150856534008 0.18026184240996698
Ni 6.43011388650023 1.8648551212148359 6.8333007335880085 -0.268938162001453 0.004370618263869893 0.5922605551807413
Ni 3.708467483374018 4.268993805444405 0.5579233867909296 -0.9187744587141338 0.12669213671362697 -0.14471145610918304
Ni 6.056912529926968 5.504717760116443 4.703644408744647 -0.06020289474214147 0.7042655221958387 1.1003485921776213
Ni 5.077523266273813 2.9636932917815284 9.114592209296537 1.015797093387786 0.20741269179314603 0.830574307428118
P 0.17976898538067643 5.528200860978474 12.402947917984472 0.2766499288234139 1.0173693229709124 -0.23373256063459746
P 3.9362805538056813 6.20588176401611 12.467724387201406 -0.33135426234482934 -0.78649017262471 -0.7428235849746948
P 2.216489813892967 8.450380349167125 1.2766520303468634 1.3649806706045524 -0.6685428719832486 0.7879240768577592
P 6.278175524715889 7.670300530071718 5.887548987514467 0.5086264259988531 -0.09708074160509732 -0.6793841855731267
P 4.565600664838174 1.2375774101423742 12.532276822237701 0.9121880637458677 0.04112016707907756 0.9947510713507642
P 3.847215720306351 6.234448371386588 8.186342121382697 0.22032811430323346 -1.2937284600267849 -0.49141983231257946
P 4.5720337748444395 1.0974255855723098 3.5740739670613095 0.3928653343754331 -1.0444628367535946 0.5394133294727227
P 0.27759724425917087 5.446774783276794 3.6994773246072197 0.38447402498794436 0.25846734437711616 -0.5397082350053222
Ni 1.3544350783401011 0.962951093049733 2.6760972850748574 0.8951380502421165 0.371664789038418 -0.6075802162569471
Ni 1.9887037355312596 6.383021721783036 4.716919108749184 -0.7962745057049835 1.3839304722341779 0.4788553653840076
Ni 5.72168001842565 5.5864317532309915 9.174140314562923 0.8262751658321317 -0.5719992338285439 0.34984615050142975
Ni 8.482195002289018 2.224623424306483 10.08682587520426 0.401055069275077 1.2249483651385935 1.0038738595876386
Ni 2.2222751142202797 5.249426762469207 6.9153935154176125 0.22020495846180785 -0.2814640623826056 0.4809729259476426
Ni 0.4577027307786366 0.0013819939817655428 9.136623136794915 0.5683991751821114 0.6418501931834107 0.09874141713697189
Ni 1.4074924905176491 1.1640780036512104 11.29984590010034 -0.1366919282388162 -0.15670950901132366 -0.06977614025287338
Ni 3.9634795629650386 6.776134228627439 1.415170834684568 0.5328516170948049 0.38301955192960485 0.15401190757450248
Ni 5.585262096866216 7.718517364370426 8.083798347882826 0.26873864439613715 1.0497207427184243 -0.2510260576077225
Ni 5.122006197561891 2.835004099586264 4.923968079499087 0.3966823941286781 -0.4922173885132103 -0.2534873746640215
Ni 0.7967807125130699 7.381809286378161 6.942336099912384 0.39416194169966956 -0.11061811396989982 -0.28877730821456715
Ni 4.8654735646966625 4.42226377601326 7.07625995420785 0.4683534374114192 0.9349438693851446 -0.5323474237648768
Ni 8.145459932226798 7.151989805413074 9.016052259506859 -0.9879841849405758 -0.39055005597869513 0.43903411962201166
Ni 4.524356781944859 0.46859852968435317 10.489059002486917 0.09363109249360003 -0.13494409230977406 -1.1432561901744245
Ni 8.244349879190242 7.1230992932031185 4.6748978542411255 -0.6542251698089958 0.37688412845582836 1.0859756112854007
Ni 7.259976079951811 5.98475372957697 6.956768759718049 -0.15371751626253527 -0.2859673495695978 0.021453541888085632
Ni 2.391461408706733 5.254051403788396 2.651287973842303 -0.4664222818269774 -0.5083112087512794 -0.9373835891748888
Ni 2.313814220798943 5.213851214266726 11.269663367475141 0.22058471039872976 -0.45586250403326006 0.866554839287785
Ni 1.0700196372099542 3.3596129739013914 3.876963680605254 1.0390519501506685 -0.17516668727524673 -0.9143814718527609
Ni 3.521997266758843 2.8483291847880534 2.804583137009783 -0.6919211416978728 -0.5916892560583036 -0.21082968789449497
Ni 0.9238845704662305 3.3354640686471027 8.216023501242374 0.3469868266757637 0.4038776263255367 -0.9142963683381221
Ni 3.8154370566110654 2.3517740685142345 6.963340429016756 -0.8580442307136125 0.2652645698046077 -0.384601294594428
Ni 4.10777916895173 6.759228195478105 5.945293122772105 0.6081761979697333 0.172617952711464 -0.22599662544292046
Ni 0.8877070991037236 7.3855611841020945 11.122373939872949 -1.2374506113706623 0.16690496148708675 1.4827659917468528
P 0.2597563857536833 5.539843440486317 7.9804124218003185 -0.9409882758070117 -0.6080155040221528 -0.6126509459116353
P 8.414058020362518 1.73331376696085 7.926197049821642 0.3619982124829314 -0.950116206250209 -0.032374302565647474
P 1.5154697676997344 3.228575471619924 10.377785093827494 1.5739193121239217 -0.19891005363877357 -0.19979374179530754
P 4.194171787525381 6.102718072642908 3.5564805358637552 -0.17931464800534924 -0.47911684657551035 0.7043871353753676
P 6.862112968795092 4.160404708009976 10.43099906001079 -0.22047903805880092 -0.643696245253214 -1.0888483048475053
P 6.362381785623074 7.808104044555579 10.233444100000202 -0.44716137671483636 -0.2634825382035204 -0.5705599302788561
P 2.4308248440597557 8.389342281639145 5.710445918909814 0.40039943796894917 0.25833416123336156 -0.6573673149824034
P 7.019764652053527 4.133655566683225 1.738234421313894 1.5313305309191176 -0.8135412632052311 -0.9276987577869572
Ni 5.699492536921524 2.9577730311044337 0.4363223121662052 -0.7909317533358314 -0.43269840721197095 -0.3756615689026369
Ni 1.4756834565840624 1.0041679838730921 7.1144231421834805 -0.17891689834629831 0.5980961880259119 -0.8147332266308033
Ni 6.804340941731833 0.8609246675573596 9.159338763134521 -0.9752770217865525 -1.1925383242390042 0.06238473288480869
Ni 2.598157683075873 1.6595444397701227 9.200675318801354 0.7704886549901311 -0.5933129077046556 -0.23157231975848502
Ni 6.293893906787141 1.9858965602557983 2.584273862025987 0.021717337072433566 -0.9176598854937164 0.5130893468662131
Ni 4.109533653498893 7.0198636229767 10.284459112217721 -0.033145119293400985 -0.09019095646379952 0.5117179204399832
Ni 8.355413249704004 7.273634067349729 0.5689154574128238 -0.7099281197982548 -0.8030509051968686 -0.7284968839393776
Ni 7.459933334188514 3.7286125649181128 8.271594774868523 -0.35020456228211305 0.7576336534043339 -0.10394918659015645
Ni 3.1407612706952386 8.56956833273775 12.311308041011305 -0.7087263861806697 -1.3332339743205748 0.11407727616309385
Ni 0.07885283369917459 4.936075822345844 10.171460410288088 -0.85956658089541 -0.6397920251028013 0.09961096422611877
Ni 8.73606441758522 2.2590113214308833 5.6779987516152755 0.01931772649200544 0.020745460077467498 1.2862064406181268
Ni 3.568135711670911 2.8130685440683973 11.405444276183603 -1.6295800960213356 -0.9035728112730308 -0.35184081233395537
Ni 0.9703109307911667 3.3379833285096963 12.53606920806657 1.1825457318026666 -0.058594155494124896 0.5469764865319612
Ni 3.172809855090088 8.273753240729366 7.720413107417028 -0.2209804031752517 0.7481385694297051 1.5375078633744228
Ni 5.630518800826377 7.765411587241272 3.4848300861646027 0.20779552905386148 0.3827367305818634 0.10666324308720986
Ni 3.218075556406901 8.175960971277481 3.3312191157786333 -0.7555523453952728 0.6246788236104468 0.8975309759543252
Ni 3.175320117596029 4.276893484584966 9.112801735322764 -0.069041576079694 0.016987535696932034 0.06978411067267337
Ni 7.2221062058030405 6.13813166842565 11.478029551238913 0.204241493154016 0.13818831027868458 -0.26488841741211155
Ni 0.6030910169202343 0.20545913782947303 0.1945102545195089 -1.0760272418234371 -0.051197348809421506 -0.031103149162707722
Ni 4.607537344193703 0.17843827633182796 1.4426397645434885 -0.13944352284202438 0.5116790967822478 -0.0687088753306236
Ni 5.877523232997011 5.449231061642822 0.4218941510388665 0.4671799859286083 0.9886639846164198 -0.03870975786537204
Ni 7.857427553722498 -0.16125242539061466 11.423893355998775 0.2878504255249236 -0.16851087252162592 -0.29573059960394876
Ni 0.021412809096379007 4.6724262803687875 5.715963098008894 0.0782767215247168 0.5272638385943822 1.2278369995402985
Ni 7.717941533544691 8.744566919621473 2.513597826052259 0.39905397968464823 0.12641240068967907 0.06368262576062582
P 8.5131099197457 1.5202023772987492 3.6313439416233804 -0.9221870839401086 0.3598184312227932 -0.49703126496208583
P 1.918299419728425 3.3486272014291534 1.489822802562868 -1.0546312926461643 -0.2259202636790303 0.052751580670418824
P 4.733725271239678 1.0605544180119246 8.288503507224853 0.48240271641563376 -1.7159143977432063 -0.20918752430538168
P 8.30670156078943 1.7042163155478955 12.381786135138688 0.26775468321631307 0.48010723551323775 0.026845145217302153
P 6.228959983828795 7.5019779818238685 1.2023338644003572 0.8103746925517915 0.7946086879667864 1.323000983738657
P 1.9910340509041584 3.179881777418654 6.113363745033696 -1.1706890895743969 0.1919405642994759 -0.16550576714671494
P 6.843533427308464 3.8288071285961145 6.004789043369909 -0.04856196806910346 0.9286114994092137 -0.13185851140591484
P 2.411039656781745 8.461222163932929 10.059303860941093 0.008731723446043027 1.166162919569269 0.17610436859816767
