# total energy = -340890.53986094345 ev
CRYSTAL
PRIMVEC
9.09621255120398 0.00000000000000 0.00000000000000
0.00000000000000 9.09621255120398 0.00000000000000
0.00000000000000 0.00000000000000 13.31322652794537
PRIMCOORD
 96 1
Ni 6.584393292899998 2.102507594847904 11.447763217111913 -1.6087315347071005 -1.517011543193284 0.4460252062278641
Ni 4.713120509568132 0.27755545313844165 6.100040002445504 -1.0535324031550308 0.19069049394245868 -0.5300547710759581
Ni 2.842211574726123 1.6329702149003653 4.72120249414907 0.03853517996072073 -0.1059001396689402 0.17115268101984718
Ni 3.530121722073273 4.435749709538293 4.635318786982122 -0.4006200386201875 0.31223759612003643 0.7825350446317039
Ni 5.079397688094402 4.81354269276852 2.789653660366355 -0.9460908871408997 -1.184941742838669 -0.9461806186412284
Ni 7.080109571692709 5.818146565686749 2.556233029047504 2.0887318123288288 0.6339473933965662 0.3186501845145996
Ni 5.000751837011924 4.441143763400415 11.483709628667285 1.035486087176281 0.9503378353427117 -0.26811952275489953
Ni 5.563770990215839 8.005585494279401 12.670956347281217 0.19659657501424854 -0.29937205301127795 -0.48197334218769894
Ni 1.9240217181488086 6.341833697137177 0.4116254350595319 -0.2381689991393963 0.5669701560450687 -1.5428763267751882
Ni 2.8638787522970763 1.7753168403444661 0.33952157982467374 0.14754121224849429 -0.6451188366323535 0.3716095103204503
Ni 0.4584336336583432 0.34719878296064544 4.985257349071386 0.0757279869609341 -0.11953855638798122 -0.9034805086695408
Ni 8.506040899652493 2.5125284580671683 1.434459936562019 2.193308348090339 0.31836762027717425 -0.5689509339205234
Ni 7.086667940722372 0.9130141118091063 5.13248864049181 -0.3402595352542591 -0.3680043094676953 -1.977220754231014
Ni 0.8886126128368815 7.212577710637206 2.5410550892931414 -0.4833573670194192 0.4476264892767129 -0.47184859504887117
Ni 7.489821163695597 3.9720884827019365 4.067829755080321 1.6125948743172487 -1.3018300060879966 -0.47986272360259935
Ni 7.666187622941278 3.863543381965503 12.647977495904332 0.5418471357251958 0.20458679230857668 -0.17484787048324726
Ni 7.776197213849383 8.76577414413654 7.104083548689353 1.2591201259242961 1.032042351602055 0.34520865172941834
Ni 6.867731208163483 0.5508274999300479 0.7938118888047763 -0.11917860194540121 0.18464711596185618 -0.9064940986848838
Ni 1.810491893101341 6.317528618014764 9.409375732010194 0.6102122545631555 1.1641787992597048 -1.8988365605941555
Ni 9.028017943200597 5.0831999048134024 1.0753915062410306 0.06418270532549591 -0.30052596411006305 0.5054680828755294
Ni 6.221827368970264 2.004714216986729 7.0102925042166 0.8269883898490725 0.9931683002446766 0.6190131406842372
Ni 3.329886801893007 4.27992249754501 0.44977403959975903 0.6992636981058732 0.12646202298069187 -1.3925557520093437
Ni 6.0636442380051605 5.585056126872443 4.8122783192662695 -0.9831371412609197 1.5737033394583737 0.7851578269665316
Ni 5.261367414083873 2.7676226343055452 9.274925528417201 -0.08014822751581681 0.5280053447460972 0.2766260175640139
P 0.5275002636241245 5.310323228394062 12.227612420118447 -0.9443577064998768 0.5978069389202673 1.154871662926166
P 4.074184368955664 6.122342095631257 12.518733054579965 -1.0376918365783483 0.8598398891614546 1.1016649969961996
P 2.3495243346114667 8.606481275277375 1.5642374159240275 1.2388058398469761 -0.9669721014652831 -0.6831642214408493
P 6.221918331092728 7.891846456350265 5.871811489076905 1.47242707171469 -1.3682300307797854 -0.4569747632608323
P 4.832753893032942 1.0124448078746353 12.612684192388254 -0.2913394125147886 -1.168554045509265 0.3947021304738557
P 4.056655967956829 6.1491759217581725 8.230875021471183 -0.15721395945156794 0.9497035441928225 -0.7628146833846411
P 4.915584001748769 0.9671456708875038 3.7916732993853777 -0.4040192941097236 2.2960858829698974 0.10918678084001196
P 9.164615762504964 5.579252743459231 3.636068034970907 -0.6346379917056877 0.059181909676794854 -0.056216913511199965
Ni 1.6233373261314152 1.1875287011935725 2.603574265683955 -1.082301504867923 1.2063258649413997 0.47637347950241826
Ni 1.8438204147721944 6.426091911175691 4.784680411310656 0.16412996984511088 0.2639653913772099 -0.5409292518966168
Ni 5.967606429107543 5.502880945438356 9.141246683622708 0.642348730086384 -0.13827058557984576 -0.056358067074754555
Ni 8.730171569404083 2.2956383732637224 10.5220280524762 0.16445161485058774 0.9184741538648955 -0.4111841872892789
Ni 2.3687901121493673 5.443746469624433 6.891138491137175 -0.7701348711951382 -0.43003757255035613 0.7435645769057775
Ni 0.21313062028200438 0.14165076520725003 9.738052807594695 1.2955567714847753 -0.9316438584776342 -0.9173626659682718
Ni 1.6103206464067996 1.1076639576700755 11.476626408191002 1.0160549750348629 -1.1808174362576502 -0.867672497831996
Ni 4.052044188347898 7.010277950277005 1.5277588759522418 0.8703937534179012 0.5825914075220935 -0.1049172069303806
Ni 5.9120194760697204 7.759696684834393 8.128310680286766 -2.191223954757484 0.49192788229724954 0.744257489207744
Ni 5.364563942019417 2.9062943900020954 4.808617093837088 -0.07720071485171866 -0.44267583013965695 -0.016407494823745934
Ni 0.7026141744434748 7.5146993041895325 6.943526306327936 0.2592744136594438 -0.6066535906776197 -0.06246417997249243
Ni 4.791620821254667 4.430264693553706 6.969553298428595 0.8701674963397078 0.4047106637497933 -0.6829379643626561
Ni 8.149160108376767 7.216034271290844 9.14671896491015 0.4197989255414835 -0.43848081822170293 -0.17964246365841322
Ni 4.385957043701434 0.37298745430044794 10.52969706902115 0.21166709619412577 -1.137826277408105 -0.1900603165576275
Ni 8.183944024007046 7.435607738706982 4.778170252205898 -0.32890605791465294 -0.7567072849353226 -0.06753645228907725
Ni 7.200516133198465 6.123761104741696 6.988485244977052 0.37989051938231994 0.05189231799391708 -0.32613646558931575
Ni 2.5743463164937843 5.3098866102062345 2.3807243426166593 -1.0179120828482597 -0.2506519620977554 1.9028809058668585
Ni 2.475315853767097 5.156478990670497 11.254562397861797 0.08724781467507554 -1.0952385246445653 1.009015037468946
Ni 1.254731517270064 3.6778078241060173 3.930836250543234 -0.8105065901439654 -0.4317175313559403 -0.12369114510377408
Ni 3.801070596257146 2.6970815083346205 2.6309202085603434 1.1755474461079627 -0.391953364084125 0.3106198580109554
Ni 1.1660889289287795 3.182600933199105 8.231394415190454 -0.5359464539700447 0.7652729151171466 -0.7261088433231753
Ni 3.59236710247547 2.3347702783477864 6.879769135450386 0.38780797445718374 0.19406995193765286 0.6037706127028699
Ni 4.17040410209821 6.8943103403474995 5.938564042647199 0.08934506352373646 0.20695760653359843 0.2698604167054062
Ni 0.9019503888537954 7.399950586701046 11.495771206106026 -0.44985923526197363 0.20975085300801943 0.36119834228945535
P 0.16175157502937115 5.57897985709184 7.9655430583494695 0.4951741571486891 0.8948200047810654 0.035381207712771326
P 8.643803034124401 1.5905909620443321 8.257049372210234 -0.47037920959219637 -0.11692862956895993 -0.3303762147022762
P 1.758225057533458 3.1442694947927246 10.333153391770479 0.8946770514452979 -0.10792745451161413 0.9153659472532171
P 3.947865269489742 6.484435016524176 3.7030343495289917 -0.47391396221833215 -2.0796974700407023 0.40699766001175713
P 6.786001741129473 3.9204583819913026 10.36027283896193 1.936329415333291 0.6082273629226428 0.16720706610853783
P 6.44857774784882 7.735628107230387 10.426159433126365 -0.67644721443199 -0.09398590472985749 -0.3457807221828045
P 2.4155901241571565 8.410567055914154 5.748158489420405 -0.812831124512084 0.7344870400845415 1.782876208475736
P 6.649458499098583 4.04230214503199 1.3167276614567092 1.4437901247042877 -0.419807924402548 0.6834678687241971
Ni 5.2678893982645505 2.8677628349262942 0.13491229117510806 0.16946089513972104 0.40343668213337613 0.9430909239723113
Ni 1.3448840768442527 0.8501974892778347 7.081424883983542 0.42572171878382165 0.475671054118755 0.7935830749157493
Ni 6.8512670639974775 0.7769966308460592 9.274632630382868 0.034929464887333395 -0.5739162483455987 0.3537585981819585
Ni 2.8519263294052912 1.6841727936354183 9.085278599291758 0.007075933010174911 -0.9812188411922842 0.684031454537151
Ni 6.60502350227486 2.2592262356413353 2.523562163522066 -2.0933613406810396 -0.7534273286324702 1.704268843084478
Ni 4.453050705230968 6.696704225506446 10.413712176288374 -0.9353624449798019 1.5699991511339089 0.3493352723032822
Ni 8.218482341906672 7.459649027674248 0.33152964774497623 -0.13616356653917194 -0.5737277864838765 0.269707950287942
Ni 7.6815966064867 4.000186682331103 8.171432184062107 0.38361810474555225 -1.2518791280911665 0.6050579640557256
Ni 3.115589137579788 8.284511746603377 12.821249423743783 0.40913013297372763 0.6454708206551335 -1.025030953281228
Ni 0.08298838280891475 4.761375915535347 10.020958652776475 -0.2536866351590212 -0.60859348801281 0.7690190124231401
Ni 8.76831198735329 2.5660141860760706 6.276094461611133 -0.16972803275817863 -0.30664930339898155 -0.8349498107879942
Ni 3.7921926931046475 2.601043699437003 11.462354451176383 -1.704601543833548 -0.7370283184491565 -0.5801516877323493
Ni 1.1385001171854119 3.071317872576501 12.626037431965985 -0.9051612388060734 1.3211253639824991 0.46945052713033986
Ni 3.1105680284197685 8.3831965532647 8.038379158670164 0.5691563650631101 -0.5622490964203156 0.1837480011863545
Ni 5.470180062412506 8.029981535524277 3.665171366053302 1.0615624725483588 -0.4607532564666581 0.6426693466505965
Ni 2.93183655399002 8.438838083576002 3.6962176480715305 0.7062681544481644 0.23815177274821567 -0.7388134353740373
Ni 3.4571973884937885 4.258300801035289 8.91822393252273 -1.0958108522082675 -0.7126784288498823 1.3334869708716455
Ni 7.642773972619014 6.069620449451053 11.415571721971862 -0.7018923939779719 0.23624787085728344 0.18893211649045527
Ni 0.8742842593063335 0.09491624592763473 0.22843863587149105 -1.4027422056240424 0.04048124794349803 -0.3378840930435471
Ni 4.5419934685763845 0.49345768929192774 1.586231147514627 -0.13733933201482798 -0.636820086958671 0.45964048301845356
Ni 5.906934693423975 5.703334174712537 0.2072908520198079 0.6495375345253394 0.35563858881349075 0.39951292159893775
Ni 7.8021487073883975 8.907011031686578 11.585196068700503 0.6465069752291317 -0.30546556750352555 0.45460677724928805
Ni 9.075763961282012 4.960128153119449 5.79664493917868 0.36035579178350197 0.12464939525198535 0.4147883597007695
Ni 8.2498460817323 8.906747241531432 2.76556961920153 0.019417228184347206 1.0130681244923974 0.15720701747303248
P 8.72815221028538 2.013110020890167 3.7272102624375054 -0.7426284382447532 -1.1556033988858678 -0.10689567081299009
P 1.9579869746769107 3.270142879858573 1.8367190018714206 -1.528884126261154 -0.07909407521968959 -1.5075907641000166
P 4.869911920059535 0.9037632639545053 8.30489726786881 -0.8647067303354528 -0.7912891366752501 -0.26724277657690104
P 8.332039455590879 1.5047681994994353 12.789270779970296 1.0435423818218545 1.3037585905692772 -0.5982710230408794
P 6.617003213803385 7.720391951717646 1.8450529515315832 -0.35886660883248517 0.9306861225500552 -1.9990833586320604
P 1.9295704076191198 3.4116253651392645 6.055321203799694 -0.1483336262428026 -0.1874871565138126 -0.24865755737554596
P 6.855915228455395 4.029767564556435 6.190716503845086 -0.3729248866977642 -0.21915877658548066 -0.6564188350262049
P 2.440904882838921 8.286467432236355 10.210499156218633 -0.4190648755889363 1.1126122400363225 0.3824253699890317
