# total energy = -340860.2293042689 ev
CRYSTAL
PRIMVEC
9.32686180299405 0.00000000000000 0.00000000000000

0.00000000000000 9.32686180299405 0.00000000000000

0.00000000000000 0.00000000000000 13.65080502232249

PRIMCOORD
 96 1
Ni 7.492547681855045 3.469974894632384 13.029188143185513 1.5576830527707175 0.14829994479138975 -1.1963556411025655
Ni 4.045097157844547 4.745525805862112 9.810068516564002 2.646523901419055 -0.15672185030649785 1.2456611722059128
Ni 7.213665194913007 0.5945734329562401 9.573391010781837 0.9523494664561017 0.16947657886900488 0.3758132639891527
Ni 3.1544471686951523 1.6324992292712237 7.782542191637214 -0.7699772625713514 -2.899336875723871 0.7131507405006104
Ni 9.76587691389586 9.326404524938237 10.333031239293419 -4.9281722688073835 -0.6706455201485482 -0.9852906972688128
Ni 1.0616579955064496 3.772995299242928 7.054312967423932 -0.41067073798797016 -0.7478776024588345 0.8706986862528295
Ni 8.47471283644624 3.0503780476189584 10.559948184472763 0.34736966393647917 -0.3151203169844702 0.0697375737054541
Ni 2.117486702549678 5.448929722711306 1.2335007559714368 0.4575864287029022 0.26299171461003096 1.6899778803831023
Ni 4.30453313847328 2.200924805896839 10.49618602823282 -1.147341673097708 1.5530401546820674 -5.082979161479355
Ni 6.625802438835627 7.073491792811007 10.865084853966996 1.4022202716823011 -0.47291508864017257 0.8035000769191454
Ni 5.729547005899998 8.457840543918294 12.849037947145822 -0.707827014294852 -0.22465579514430983 -1.1220232489375772
Ni 1.1954984586220057 6.803385882579194 13.259941226516736 0.2683745761884991 0.6100389622100849 -0.06977614025287338
Ni 8.961938756494572 5.339124581787302 3.354876759783776 0.3547096492413181 1.194119552683195 -0.17762877566249408
Ni 5.07282403106428 2.497658905828646 12.384665635931778 1.376322320869617 0.04985960383460445 3.978309059108245
Ni 7.989072482859907 7.357961069816197 8.71856456412586 -0.27387776539491543 0.714467659539821 -0.3691818747155642
Ni 3.874014536595164 7.463774314000585 8.076593886189785 -0.4977732853344331 0.30479013870305577 0.22073383438208435
Ni 0.8811142059097198 7.300367699799572 7.527900217840634 0.12096963240755294 -1.5314711702620398 -0.3276210205546422
Ni 4.383839442157711 4.963821000232816 4.921797892872993 -0.40397532824566557 0.3380710122433726 -0.6522083964892832
Ni 1.5854638665191856 8.944049836058639 3.836558793332045 1.347350359117299 0.3420441379585077 -0.6174673934636721
Ni 4.961685148939892 0.16725487727289381 6.598375869787709 -1.5408873213696173 0.8630751082693007 -0.7573806568532634
Ni 6.1948174938804526 2.7542035593796212 6.245161094421139 -3.1826955840260283 1.476663992614173 0.571661390873151
Ni 4.097682003213572 0.1746501457888746 3.671752217213704 0.6013190658385837 1.9457771910097525 0.8432788994789799
Ni 7.469351777202196 2.19882626205008 4.787337193464951 2.4096607655752758 -0.8630344848393523 -1.7611033355750187
Ni 2.4203112430678577 5.249633345299931 8.580745261876848 -1.5564036718376615 1.3419888376950695 -2.2821638735721663
P 9.458463557499433 -0.038061989263294356 7.957873198318593 -0.8097422011741151 0.6127185659247771 -0.11187281231260733
P 3.98812868755118 4.857942468017638 12.647688727509241 0.17876803147325987 0.01978978103241753 0.9938154469103724
P 4.2021894867822 0.5604800232787067 11.60045379069003 -0.3952256070774935 -3.3255486467702338 1.9446695597678705
P 5.115093367568789 7.533716448697698 4.099513798820255 1.000999109143005 -0.4294724440755055 -0.5182863176861202
P 2.7340388847276467 1.7331453921618138 2.8587380908467184 -0.07101875441072285 0.14193337914341364 -0.5745142869409139
P 8.944478871689533 5.197934551777316 7.815481868542107 1.2736687131624322 1.3393552567269642 -1.0310262516327147
P 7.129798055934953 7.161705249267239 1.3700898451831713 -0.3128454049073644 -0.10171309817078612 1.2157610422123708
P 7.636227983896519 9.199475266224676 11.636423764909646 0.2513528448195219 -1.2753566423878164 0.22721944210642803
Ni 8.01698777945258 7.042657188555953 13.05841386382472 0.17588479638819388 0.4827027641545558 0.1544011725931212
Ni 5.723829639775271 4.645784348541014 11.476681674608148 1.4605192645335106 0.23882180223204677 -0.474883268110137
Ni 6.894901048020995 0.9908018283783044 -0.25074894178930224 0.7194864529106512 1.4294022314137318 0.833609751820332
Ni 5.8014571083822934 4.916850925511565 7.227186346089217 -0.5078216707093706 1.6733626404239246 -0.8753647242699311
Ni 7.054642205636336 0.9400263941482634 7.165471435957557 1.71128718338384 -1.279290944445216 0.33768020456285713
Ni 4.931969768069776 0.705015598523504 8.930861653839449 -0.39226626733885345 -0.4481970170682023 0.4412774071302336
Ni 5.785330964777639 3.5947589751914797 0.7546372999809043 -0.6869949080408491 0.3643559140818306 1.5327322963626506
Ni 7.494095940870877 4.93677310176347 9.233608781406836 -1.177371643800895 -1.24611959989957 1.125577799058055
Ni 9.283127887387284 7.033171770368599 11.230639999838667 0.26038770132828054 0.3355575017928995 -1.3910256885180623
Ni 5.075901895372861 5.495144321647722 2.212904226860297 -0.4269823306638001 0.39406603955175357 0.7485046945198722
Ni 0.9230748232972165 1.9457791815770373 8.985150516812041 -1.2531731643122417 -0.24820915698421772 -1.2155792652188677
Ni 0.5603335915525106 7.08693180029181 4.456264387397078 0.39086373056437196 0.17205179579534885 1.2646665096638219
Ni 9.747782802506022 1.793135765594515 5.790275134080604 -1.1713976856056472 -0.4277893999461278 1.6088616325270613
Ni 4.4327495040795215 1.5071835176042818 1.3377219048907512 -0.18290725045261402 0.8636394654132029 0.46740881410996277
Ni 0.5637239057227199 5.075109112141863 9.843731957924488 -0.9202662127683119 -0.41980406774780604 0.8409291682998806
Ni 2.1327454480310055 8.992997205426613 8.87636759991295 1.419747481932787 -0.15460994616981757 -0.7540179110286175
Ni 6.4401326061358795 -0.01003756839058967 4.701295963061653 -0.3157854613722949 0.6397004938302595 0.1021815531667724
Ni 2.1688963633645173 8.812317243651384 11.420099336382586 2.8876689524676395 -0.8954075018534192 1.812602274785259
Ni 2.5854060192078205 3.3275723726220483 11.362657061522928 -1.6022590396088792 1.3592728215864978 2.4137112814955657
Ni 4.578509696244672 2.5083754697394314 4.208133495642377 -1.245501506699597 -0.9322915193639622 1.2535405749539896
Ni 7.9202682252708145 9.156198628673723 1.695716696797164 -0.014127954760949864 0.7034144870494531 -0.04282609402659076
Ni 3.9041496262346325 7.077950032627679 0.07960196519528494 -0.6165158281836801 -0.47559700634770985 0.24554035190280293
Ni 7.823604632258298 7.84197854949437 3.669486722545358 -0.6155490933950366 -2.243537676559536 -1.3514528113214468
Ni 0.20234812650763892 9.20549109191872 13.050824596588681 -0.3644541302225917 0.06261896038280183 -0.29380330067424887
P 2.6522236552886462 3.0921344067387038 9.260500921288445 0.4425791566607926 1.0605119197966575 -0.8473510126658246
P 0.9681562085563832 1.7969131445186821 11.162167778520443 0.2037452702438878 1.0442075262096788 1.46028220882204
P 2.7010964097642916 4.407809476318476 3.18678059959987 0.38200242351900016 1.0264658859555418 -0.024107177460848804
P 1.6484761430912203 7.077931378904596 9.814328094229845 0.626105014534012 -0.2131660493371555 0.2330915846164889
P 8.945868574059164 4.312339721583227 5.16807180649485 0.9978104270023782 -1.528386360689129 0.5499859627822464
P 5.832590172206665 3.6267034759699315 3.136271913609906 2.3590547704929503 2.2226307512035395 -1.4149297488291694
P 1.0935465351156541 4.185093349577266 13.401772944600753 0.04982103728718516 0.6724869442326612 -0.2191970860225838
P 5.851281202735136 8.33024907803531 8.231435643437557 2.2623275555725297 0.1847589589493721 -0.06290255306149167
Ni 3.5335467828968876 3.433040522929415 6.839544259401939 1.1808153793751213 3.271196297271598 -1.3376357029326964
Ni 6.862630107088603 4.77299341310081 5.0773345013055815 0.23799442123474499 0.37152055015106983 -1.1101306112650495
Ni 5.578843577118036 3.0583618410981863 8.327263549655987 -0.09228691976087977 -1.7490479470723812 2.7055368896181533
Ni 1.8297063896973786 5.3465953978817655 5.617387765123008 0.26724637612132685 1.9109580264480384 -0.8042588094620408
Ni 1.2768007106762431 3.182203908641626 1.7152098374181755 -0.4945424371019613 0.18324766451116828 0.7862505458100782
Ni 3.3484458887511503 3.419199460402343 0.4417649315244393 -0.3484220164603935 0.22392431629492401 -0.23318851520566938
Ni 8.722331683502333 5.031795167144744 1.0180801003277167 0.005641257446177381 -0.465549649414037 -0.9049280397493448
Ni 3.4004897761507884 7.873708532457376 5.406250936985139 0.3658435543709506 -2.5106475271029987 -0.13911673563022492
Ni 1.906205308057922 -0.13956155998490008 6.238526897806915 -1.9243732714126793 0.8653513058979871 1.6434103170362082
Ni 8.229565607698555 3.029476550905233 7.788439566189686 -0.9214556050907228 -0.039923318557498984 0.11389678472117158
Ni 5.98533618366614 6.1022297393614195 13.63630713760076 -0.6831760485153912 -1.9949734502287448 -0.4752180257417364
Ni 7.9388286797377114 7.481215545082543 6.115478546180628 2.4475601117242105 0.3823724052639092 -0.07359114312358939
Ni 4.560163759593222 7.961390357805762 10.4257887426925 -1.2762501007363631 0.8636242959045513 0.18502969611225553
Ni 6.611019363292898 1.699251577321261 2.4756419164745984 -0.7521114380345241 -0.8301642164738928 -0.3056540293652478
Ni 2.0602570801331583 3.195308149106947 4.926916474486779 0.8169713719327026 -1.2542152324235107 -1.7783788348260146
Ni 2.926909054537165 6.339747595368441 11.582625494854115 -0.3367772331326136 0.25179867410768897 -1.0942766749519284
Ni 5.410381803961716 8.857412619202861 1.5940725597216705 1.0160907133688049 -1.5935936506243973 0.2502621828585045
Ni -0.057743532487437 7.243175384829217 1.7041798909596069 1.5624385651778319 -0.14435021611502236 0.48786425375083714
Ni 5.781525605268848 7.324179177314138 6.193847500280173 -1.5429999968372459 -1.4021228268724886 -0.10227436999089483
Ni 2.6239259573727858 0.9645653668630388 13.579001034919605 0.9698298826290521 0.5527025903824611 -2.491669700448915
Ni 8.322666339602353 3.247193479860385 2.8757055173623853 -0.8257750862672617 0.548723551130055 -1.2954883801406851
Ni 1.17111804255343 0.8165116994449183 1.6091158547013973 0.9021162813321625 -2.765142259985612 -0.23497157524802115
Ni 3.4446711192712334 7.668993248490592 2.7054389964978527 -1.1827197954866857 -2.3368026439629688 -1.5060984958252062
Ni 0.20732867057061505 1.42042505154847 3.5325142993242817 -0.3833072583733528 1.306143802972002 -0.6471831753605499
P 7.914914606746193 5.162865552382579 11.394954117667636 1.2957076952403426 0.505273193255904 1.3197230843183336
P 2.4187723109135675 8.378935295280133 0.8062791996481186 -1.1387225639701293 -0.635258398898506 0.34498625130596716
P 3.592054185344545 5.7901716059174975 6.850711310725162 0.6287051711610205 -0.5137154104859862 -1.4694530766880305
P 5.844286056579272 6.186255434985674 9.004643657433054 -1.9364312310184781 0.42131664773759053 0.5128317223294522
P 6.362439849498068 2.6698047892937207 10.424859787283 0.6382635042734169 -0.4962560773589582 -0.25611581342580403
P 8.813949444421086 9.297062218529769 4.796947591596956 -0.3518449260990134 -0.5000631098098742 1.4407189419781319
P 8.765393803237838 1.7285006151143194 1.0968930130366201 -2.486698472486569 2.0230748364506512 -0.617876970197265
P 3.3302118744381946 1.2411534458659534 5.566880011819198 -0.05204092775663941 0.7183417977832467 0.5007459948095118
