# total energy = -340871.5284614803 ev
CRYSTAL
PRIMVEC
9.19487834206257 0.00000000000000 0.00000000000000
0.00000000000000 9.19487834206257 0.00000000000000
0.00000000000000 0.00000000000000 13.45763388615542
PRIMCOORD
 96 1
Ni 0.43756127563461983 3.46447386640271 7.3658341043658275 -0.5252326670969664 0.33545979987277064 -0.07157154159039932
Ni 4.595223231938681 2.5710627020052907 11.781176091282283 -0.7599296485273622 0.4458094906726322 -0.7110663471677561
Ni 0.5628543665998436 0.7448329633840296 2.836599756206437 -0.20407848521359048 -0.025654724453626786 -1.4101390123087456
Ni 4.370408455174479 5.130264010880691 11.736739082973653 -0.2589604819634508 0.32684300473803707 -0.10829357960178124
Ni 6.465599420711283 1.6876371755451278 9.754361919444019 0.5384257687484728 0.16429606310932995 -1.3397805171898411
Ni 5.387325226177083 4.04830267010999 8.68204416713427 0.033924934882218996 1.0841182463616876 0.8448727263286611
Ni 2.392397019906918 8.579373235484915 2.2200785623647965 0.6431138903871828 -0.6954394392637765 -0.633045193297271
Ni 2.669880060119192 1.6714909690830444 12.868162433095995 -1.251537685591348 -0.0780139547816334 -0.34408790786141386
Ni 7.172078707332989 4.716089908444425 6.825846480847166 1.0031228403542272 1.3768283139717579 -0.15557719517909335
Ni 6.3420662294709125 6.275899884538594 2.9433054004956354 0.7434684176475453 1.871384377920474 -0.5006318378291508
Ni 1.4532045559794797 1.793258743671524 6.027297037878005 1.0599192805179811 -0.7963948333329316 -0.2675749631053392
Ni 6.199775486304204 8.536230866054337 3.9108015390993747 -1.6347349007493976 -2.0104028974099375 -0.2960278191293934
Ni 3.5346215936801784 3.066574698726061 4.894716052565698 0.21260143508293705 0.39329188038989044 -1.2281583874354591
Ni 1.4536275203856621 6.735413932341906 3.5262634492188836 -1.8395026987205285 -0.46751294378799485 -0.4994938675699655
Ni 6.127089972589644 2.7884112375125385 6.902339593705206 -0.1879054749981538 -1.9070581771729997 -0.6014489065482286
Ni 8.364709604469086 8.330918426366491 3.4706298374883398 0.20764383396734562 -1.8752340906838674 0.36489121776001027
Ni 8.549517465335494 6.97334980057615 7.096102346640762 -0.4085783742353157 0.36311818501998755 -0.12774448923754128
Ni 7.4339764286652885 2.4863962617417013 0.7338027872610711 0.17328026888581124 -0.39359527056292215 0.3211971193061694
Ni 7.481431196063246 1.8961126534009458 11.986203489739877 0.28903107609658607 0.273802946292922 -1.330295203407225
Ni 0.7779869364138327 8.3972962535019 8.570225250969468 0.371540861866044 0.10879905848329005 -0.1442741114614483
Ni 4.3637237785811225 7.565417215325587 11.741273996998196 0.7046072218059736 0.3628993841409621 -0.613486297328737
Ni 2.9126800190245294 4.026363690258891 6.897912259757886 -2.4650394994558966 2.2808055597720593 -0.22015739305332407
Ni 8.51593776943599 1.3596006939156935 7.889174400549865 -0.12374076739478689 0.6071361867409931 -0.17115370946111166
Ni 0.1508401410986249 7.725086278659344 1.3441413448697364 -0.2680321052474158 -0.042105156700166194 0.7673359682937623
P 7.754371966348259 3.297402925960766 8.678505058439935 -0.890754319352124 -1.401088472070703 -0.2788667339690746
P 1.049255158318747 5.601621062057103 7.067828095575326 -0.1324400949409977 -0.0011909349843076263 -1.1712971554720408
P 5.962133854178609 6.5974080025073905 5.093592996864699 -0.011434724199502888 0.35504749219671106 1.1040304119045823
P 2.993144399861484 8.069811464576182 9.344765946960756 -0.5625825685003344 0.47972208425967705 0.7244695079475394
P 5.699739609412965 4.051861088048957 13.309182821982914 0.4057905270775334 -0.18477952777466242 -0.39083416287801725
P 2.2671903607986104 5.7289701278315075 12.89296469807938 1.5167019823726653 -0.20613279663945788 -0.7795883032985541
P 0.5875803140925477 2.8148740975341076 1.6504843499012245 0.2469696281501618 0.20520694239107884 0.09371131091223216
P 7.4082583537937365 0.6388601509029344 2.0078791587588967 0.8850454418928048 -0.8438933931345273 0.6506842465352729
Ni 3.6490058809172607 7.508105538287906 3.7634545323031108 3.1026468582025535 -2.3182829878922266 -0.203257789084508
Ni 8.74766709475343 3.8314322682792965 10.555750740861638 0.9766175949748469 -0.7801238640870499 0.6654878872070088
Ni 2.175967972239197 3.8993180554715297 11.654338260746654 0.07670654882411951 0.43137686018706994 -1.8732461137195608
Ni 8.570941531996459 1.494884939745211 4.881379800941207 -0.4484217314844987 1.559976219680268 -0.28328234653826695
Ni 2.6527040272768385 4.117935484197324 2.5295239193668464 -0.3620303512724474 -0.5092491471845165 3.145225869215345
Ni 0.8175626125148878 5.177562465345929 0.9375539365974024 -1.0553537726344855 -0.08886838099763404 0.8514534648699724
Ni 7.451915636414449 6.1052061620089155 11.140189165006523 -0.8578799372216065 0.5915712424232006 0.6816236164266067
Ni 5.386736753959786 0.6175501007340708 7.569178840077089 0.36968195428043427 -1.1779144036782423 0.15062730737298574
Ni 6.93238661732525 2.3965439100631825 3.1229512566309428 -1.2028404774959607 0.4449090903455499 0.11599094824603895
Ni 4.748262787949453 0.5089162904453862 2.557488303030363 -0.3413972484031282 1.0653250249145847 -0.05791692692144219
Ni 2.849456035178695 3.734867655372235 0.4151505985218432 0.6191918323539465 0.8208521950443476 -1.0560546553562522
Ni 4.897808290170025 4.66870870007363 1.8421617044167349 0.07280232867370687 -1.819438580980802 -0.47995245510292817
Ni 9.039843550641335 0.6798913762539599 13.261892642908231 0.7692010465269592 -0.8554723562213784 0.48970233540084046
Ni 4.865019353812515 4.774679673579046 6.244449722475434 0.5519525995903138 1.550896368866187 -0.11620743513221923
Ni 2.4566508301330225 6.350920897365553 10.59154824143008 -0.6873075541852615 0.21560756889911256 0.9297396994763858
Ni 8.720128433959614 9.254920951184952 10.457079581314222 2.253844972022815 1.5896871164811395 -1.896586331107398
Ni 5.832155053183159 6.67595984863813 7.703755080270171 0.7863359064350328 -0.009389411634699958 0.22647690751344868
Ni 0.3973640257540447 3.14301172282589 12.98393882492212 0.8185220042492741 -1.2089669021086729 0.5535070885616273
Ni 5.9604052170403 8.19435609244003 9.772530079665222 0.9997724358247557 0.5327199766129471 -0.40207759700232043
Ni 1.4244429763590944 2.5354601328588293 3.873752615581338 0.6738365162820201 -0.49984250915863593 -0.12570894686475123
Ni 5.8567697426472805 1.2573628410387545 4.9391135228972285 -1.354956710709647 1.9650303828124094 0.2877246985803367
Ni 3.083539249365323 6.126933659656924 1.5736418316641647 0.30376709675518004 2.06564536282301 -0.9001843544167721
Ni 4.092603594218372 9.116133456686839 0.137603194160803 -1.6178065004251752 -0.972406385106977 0.05566309789025897
Ni 4.219069951666831 0.5851124087312589 9.91388938165049 0.6458107204930555 -0.8696172802631927 -0.19959345285904337
P 0.7083384910332272 8.876174715205638 4.9635654630137545 0.18932780926697718 0.34385882256974326 0.05499898194369883
P 1.4987375937928267 1.4630338809840169 8.128894994680628 -0.8476454039777919 0.13283861593099705 1.6218868411421359
P 5.643347420214811 0.7544121876962154 11.566540044901638 0.17268223029049615 -1.889778049936313 0.6720241456636298
P 8.619518074558638 5.9946285544274724 2.7770500457673504 0.857983038458374 1.383328834094437 -0.43214099204660417
P 3.9541563102208834 1.3651360107096422 6.053351645298824 0.6123902360510808 -0.7155017572312903 0.005182829752520107
P -0.272766067595503 6.863866383523743 9.936996111057788 2.909599948212776 2.0689787980716177 0.010027045218698861
P 3.113018029500539 5.454355889678557 4.28768305374013 -0.10856020299960659 -0.6487258372573215 0.46063370016965827
P 3.543356728155679 3.8279841888810724 9.828339313573114 -0.32011648464748094 0.672964398089712 0.13565834476797925
Ni 5.541321049540962 6.290593300214225 13.814799990060079 1.1912748841455483 0.7945955753406638 -1.186987312513788
Ni 2.8654091491944778 -0.02004483490167526 7.347531698920055 -0.19747563518509217 -0.5589650263524051 0.1810210891734947
Ni 5.643329030458021 4.45843102605234 4.015704067735261 -0.0028932623873950173 -1.7883768265789908 1.408556241202658
Ni 7.449911152924282 4.624527309384387 1.6404049242043364 -1.040932197892517 0.06981187858681526 -0.14556763346189122
Ni 1.9004618308819055 7.254979730944687 5.896044746224811 -0.7692974628955074 -0.02395702503622971 0.28494225073919316
Ni 4.805730777919853 2.207156999755932 0.6956854188735045 0.22764290279709182 0.5749421185069518 0.7288095300837899
Ni 7.95490306927057 4.547354695012937 12.835097650386627 -1.0887842843787894 1.4262287187817566 0.3623771930889049
Ni 6.404435089625988 3.96623838043226 11.162770866857452 -0.04334057176916407 -0.022439045729806515 -1.150155231287103
Ni 2.5427240867910874 1.9400825618870974 10.262697093574825 -0.559474618998972 0.47242529348794765 -1.3299249645519997
Ni 1.1392638229299852 4.537038041453451 4.968087504208546 1.3270792675730887 1.0811653343809509 1.6408325290067032
Ni 7.397344033138558 8.433137889486638 11.780005583262566 -2.1228634639052144 -1.0149535144405681 1.9451516416106114
Ni 7.411035207069106 9.011771586900595 5.786594430734627 0.6417445208434819 -1.7629969530533056 2.0277925536412944
Ni 3.5426671122760345 2.342082645328034 8.00551535790946 1.1141536163815133 -1.5041897088382676 1.6597291088008899
Ni 4.20299730423191 7.556939537445153 6.22280957617218 1.8220963303186233 0.5964820494612566 -2.043430260178552
Ni 7.944126671791319 5.3812290218010235 8.875874962169952 -0.26094228828016997 0.3956094727794735 -0.3843704095305445
Ni 2.307896087454443 8.895171333970254 11.569555045527444 -0.3764372707263969 -0.22925061360384386 -0.8077495962241186
Ni 2.897609613334692 0.2293919872293642 4.31276760149025 -1.0875992629317528 2.7359787510477784 2.0166594198426107
Ni 3.371881440962403 6.5183412431865175 7.9759492264294884 -0.7675200592801105 -1.31168607294647 0.7635371633729624
Ni 2.5267801676537003 1.7624099266554136 1.8660224138524446 0.9063298051928779 -0.27064408894896613 -0.0009891033861466837
Ni 6.29858364953971 0.13596742529428557 0.2512592470289808 1.1376655834605245 -0.1163087365967739 0.0197913236943143
Ni 0.7362578197926065 7.205502090299772 12.628724121731965 0.983121971752268 0.24213672553789267 -2.252530881197082
Ni 1.6489635170146477 4.89119717260383 8.907123756396256 0.2639191115203067 -0.6692923485547634 1.8605001269078023
Ni 8.129945969281207 5.724253155214738 4.859538286801097 -0.3486786125558898 0.716898894689133 0.05042344675787445
Ni 8.84788207438341 3.817207791401823 3.3719853430882694 -0.18123243385335241 0.631473477934777 -0.6827603011342113
P 5.027915819463009 7.7064666499089345 1.887150405429082 -1.0028004240178021 -0.0838930392702297 -0.109888692003043
P 7.974598498793225 6.8994965373053905 13.22126415323092 -2.1011024180790394 -0.7798274158925538 0.9484912690522762
P 4.613199219201422 2.6710294199185998 2.9858583782210766 -0.3692885754967576 0.5586647215031669 -0.4762379823658185
P 1.7986009680191724 8.862998454465226 0.305644194273448 0.05938862637096224 0.5525928042774741 -1.409255838372844
P 0.8725948791983817 1.7580055799040821 11.405479796466679 -2.1900852131673507 -0.36833109667949465 0.5251815021440568
P 7.490157135660351 3.5443405801439725 5.0403822355913075 -0.29069200873877676 -1.1471488403606114 0.40515752147922485
P 5.616378841881502 6.0866508974072735 9.860193130797828 -0.23280002151799908 -0.8706431504245457 0.37687615803602836
P 7.377657798494298 8.823782298109425 8.06210523699311 -0.7092385499303979 -1.5041629693653902 0.20999485069802543
