# total energy = -340866.0706551704 ev
CRYSTAL
PRIMVEC
9.30085543931617 0.00000000000000 0.00000000000000
0.00000000000000 9.30085543931617 0.00000000000000
0.00000000000000 0.00000000000000 13.61274208031080
PRIMCOORD
 96 1
Ni 4.342095162347022 6.99089514559636 12.246894244914975 -0.0778054383152531 0.4549068249882101 -0.19774971478208522
Ni 2.0010883953358025 6.685901486910826 12.397423943286409 -0.6080371012887077 -0.3491702074803277 -0.3357806735472991
Ni 1.584986714978597 8.521908995200715 0.20198482211948146 2.6420843775904626 3.1498474271477557 0.6793525610042429
Ni 6.945134935766743 7.330041546252294 11.96411661005038 0.9462089007760028 -1.5142704901130373 -0.014287620267265716
Ni 6.924877672147046 8.698560146683223 9.760757856326443 0.4073961810017564 0.6032779893371675 -0.17163990506891086
Ni 6.670955011870948 5.135104717325252 6.131178923764675 0.11751535531036535 1.3380290817163731 -3.117963948175598
Ni 0.020127051640506793 7.3353337331208 9.006666801756964 0.7674935769175492 2.348609663900226 0.6184534115260252
Ni 5.631630896543577 5.238660444203903 11.33900610138196 1.2079068362752745 -0.9422964530954739 1.0027991384662214
Ni 1.0414447104170366 4.965047872503152 8.652313502102773 -0.32632775566451544 1.2555048977692118 1.2423601328571379
Ni 3.423663568841881 2.4024575203332286 9.204664347056536 -1.1166409015797414 0.22903129850418621 -0.5728243008330005
Ni 8.216766522824676 0.1024377640287494 12.47961746489338 0.5572056204591371 -0.9901310560802494 -1.4368440324037577
Ni 5.259745483977023 5.698624959836816 0.43876321516408856 -1.430768258523323 0.11828051561116405 -0.41494905364834983
Ni 0.7935136613548084 6.181674199208979 5.831957376099518 -0.31353754587838256 -0.22973552366006242 -0.8188899291116543
Ni 5.575974576295521 9.097232023540284 12.001838090336147 -0.8790190331930668 0.9920123322633625 1.201401688166905
Ni 4.797576665553536 3.302975665844092 5.664738222338192 -0.19111009797838055 -0.6785971708954571 -0.5999532958393087
Ni 3.5859541991908657 7.9202552444978025 8.122042888477367 1.5338337569569453 0.6217305396154003 0.07256193052812664
Ni 5.668573895210902 1.5943247740576492 0.8028331187225477 -1.5756311526087057 -0.0023813557479829954 -1.381417476004337
Ni 3.1724102541391774 7.513770648889341 3.1142687452597246 0.772063969897051 0.07611031000101731 1.0190510815487097
Ni 4.405536298779506 0.6204656613536008 2.4533425016295376 -1.4989665127661151 -0.5942590736680089 1.1707870486048417
Ni 2.2286710323929007 1.9582207516153332 13.314011177114878 -0.6641820239113916 -0.5194973072750859 -0.8203482588247356
Ni 2.2629911897651143 3.616470306599601 7.468372242344758 1.0601355102938452 -1.742293401957367 -0.9792730303198232
Ni 6.440721630951768 5.429718621098215 3.5146054752792875 0.445505072058336 0.6978639895448691 0.5553639392647081
Ni 9.161872970352448 0.7212664747868193 9.991398614723373 -0.2024851725845416 0.05439605825237729 0.4114760074980849
Ni 7.045974812793718 1.6694105817719798 8.78216553817884 -0.33320314262811 -0.6088184595394224 -0.5323525659711993
P 3.533795000669626 8.038896959251177 10.499345314602223 -0.9803117559969826 -1.542442581671879 0.2647475209588731
P 5.557800704342864 9.185329728317955 7.869907852658435 0.39043049968169535 -0.9178642881950385 2.922723887189244
P 0.18661143780497422 2.451789258734914 0.25481182207685227 -0.4939719093104718 -0.15363292696852895 0.15002386946103194
P 3.816057368130856 0.9039027268842368 4.6364458519049085 0.0781489376976009 0.6198310085998423 0.326684881893618
P 1.451398525185344 8.485477543594492 2.3370353016459253 -1.4082937315698907 0.6893533809706966 1.0736769964237056
P 7.354484194917382 6.39844924199331 9.351885731070977 0.17315916992691466 1.236000252077381 2.1518657646748363
P 4.599914881143162 3.698634065468472 7.730744729984719 -1.2365137013786898 -1.6579684173560414 0.6328927268798068
P 7.579276575277553 1.0950641432763348 4.671335221643295 -0.5624635264239668 -1.0364170836309827 -0.9569810516908421
Ni 4.421552372219872 0.4693574497603376 9.928235573875016 1.9123870455850807 0.5031119239385271 -1.2881355393200395
Ni 5.288113093729123 7.043482183477796 9.887302508131084 0.1000123134295955 -0.14112630986108599 -0.5743417659187916
Ni 5.644428873926819 7.271948401822255 2.194509919652412 -2.1531885972513174 0.8688577763893488 0.6125928389801902
Ni 2.28200213872685 4.127384909518417 5.195792800483434 0.5714312771402159 0.5922788100131865 -0.8003936700796795
Ni 6.674805566112709 0.04379586911498076 2.4338767408262028 0.29358398557459114 1.8169196712136901 -1.5824324918012553
Ni 9.271251032872023 5.94985037197255 10.961620162780195 -0.12033148460292178 -0.417786523097145 -0.3021545008524216
Ni 8.211390628255263 7.765461103807897 2.9855876869108022 1.578500760847017 -0.5819193211557333 0.5800884385945816
Ni 5.358920507841497 3.4490363030726123 9.886730505508215 -0.14222802756569697 -0.7090714282249143 -0.09634540610096956
Ni 7.70288494695146 3.2613264342146144 10.303212590861767 1.2398005996600778 0.9449112650105016 0.7709360269401949
Ni 3.902397211189462 1.0200899458298813 7.089965069791918 -1.0068321708850143 0.7956003624560943 0.027595650230081505
Ni 0.8347220324261714 3.6009843819316507 11.821890715609003 -1.0229002800914706 -0.000912484511940364 0.132136704767966
Ni 8.286615948804439 7.8372637094755095 5.443994504445263 0.3081027480160565 -0.4502220179180311 -0.5270535223557891
Ni 4.0574889792603726 5.570273151778131 6.704888253647854 0.21272819046878846 0.8336352057416289 -4.051459772260306
Ni 3.697834191882019 8.31287226432253 5.646796871776945 1.2127515659620856 -0.978407082775102 0.04920628652132171
Ni 6.242855227716952 1.0332878600063504 6.374275388056692 -0.02352842213924335 0.06833812225476618 -2.09019811246171
Ni 7.0444401716104075 3.1765677366175997 4.321977411562171 0.10609734328141081 0.5372818849520166 0.5550430655901797
Ni 6.189338104269875 8.525592134040659 4.38361604216844 -0.8817698564653266 -0.5479789596545466 1.35392646967292
Ni 0.15798526426562495 0.6141708422453315 3.674596004024438 -0.21641206707827892 0.8624986669405403 -0.4226446225203947
Ni 0.9577556112205114 8.631798604781393 7.0548720113146555 0.487567805556341 -1.0683280734069667 -0.7912675394086953
Ni 7.423580251588975 2.0916415260067702 13.131068926866364 0.5585904166218056 1.2737936687760707 -1.1148524422207509
Ni 4.171247744794124 1.9619038904552777 11.853962856169058 0.7693874515061523 0.2344748381172607 0.1392172657638312
Ni 8.3629759737437 5.892157164335738 7.656677365964768 -0.6290710391408715 -1.50906092088764 -2.6697430198479957
Ni 3.3409975637675626 7.096543564997708 0.8544863506960776 0.18764990734392198 -0.4877809500084116 -0.13027574029982725
Ni 4.053712831863864 5.15611535025312 2.977596391730801 -1.1302286675665052 0.687706589395893 -0.7766027383076689
P 1.363691456345243 1.2906890402979518 7.757289372028161 0.6503014092745576 1.6349369894578745 0.24548404474357075
P 4.754420695307718 6.546314245219177 4.506688684556537 0.20973131262399364 0.7819804576798145 1.0726709237566945
P 0.8110197318713342 2.8172291783315653 4.010191337990747 -0.2974871772837393 -1.1852896130963908 0.6016782489502154
P 5.389817950332146 3.5960177250111194 12.780622916673439 -0.8700584815656692 -0.20072859490475106 -0.030771219744585715
P 3.8776104308650856 0.4573677167336383 0.32914891091084053 -1.1832700115632009 -0.18951344291522199 -0.9426440662428798
P 7.8694539709024 5.420501473142696 12.4812925489971 -1.4931151961916609 -0.032100737189286646 -0.4738944218343064
P 5.43238796667161 3.595403868537795 2.817102686694638 0.9613537268372411 -1.6173650420123822 -0.1727220823894961
P 2.0964128649585168 6.698048404398118 7.315460594839713 0.08561670682955576 -0.8345983409858464 0.941440789963398
Ni 1.6835013780914656 8.553922540370134 4.789970425797711 -1.2322155882239683 -0.396716075580091 -0.8298397432549386
Ni 1.9047129290239118 1.623920096756398 5.647586514422176 0.26473749365654403 0.20032364615684856 -0.8638569807406478
Ni 7.103500605028715 3.058391064647046 6.726722942386881 -2.079654789728225 -0.29550305697417495 -1.189940481604841
Ni 3.6080065279522526 5.610778378161868 8.767518550691099 -1.7426320162437083 -0.8603880483554407 3.771872100964807
Ni 2.3709183188022864 0.06457770099369997 11.75291463997538 -0.06826895957972759 -0.11591458648214877 -0.6038636866373084
Ni 5.9513850131558605 5.208432663320518 8.215998272147456 0.7548679177337387 0.6454402245275142 1.6608123145627396
Ni 7.284830086906405 2.3835302790724007 2.127127080592734 1.061514650029559 -0.3763405972475325 0.7095139150789717
Ni 0.9466410887110818 6.306975326612356 1.8871073393518623 -0.3465857345826031 1.1562783134657055 0.9502874417207504
Ni 3.117395692931415 4.191932847774017 12.316768783205008 1.2395301196075104 0.3454547063019534 1.228669779854239
Ni 8.634049411850249 0.48042918833374765 1.2102533804100448 0.9689739623866603 0.2002593685778164 -0.020498377063667923
Ni 3.6284591095407346 3.18846353100217 1.11517445337666 1.253899758065621 1.3751977203468704 -0.9576279412462217
Ni 6.84621103500499 4.163993077382112 0.6522680770996198 -0.14597438198200666 -0.9337135965224694 0.223250430156351
Ni 8.900937464911404 1.4781663877645395 6.471987387326411 -0.3109312186037871 -0.8349423545888265 0.15641023260334996
Ni 3.365700636391032 2.823637467878843 3.3157513211737593 2.319195215293851 -1.0697678911772868 3.2461334407657
Ni 1.9968100017338462 1.6356298740278388 2.051875717647719 -1.943157236888402 -1.7465853444645014 -0.41785440022060294
Ni 5.775040789910015 7.502256189586686 6.601785478439671 0.7756488590348319 -0.8243604653079222 0.08909001009013688
Ni 1.9800870632635916 9.196565161950918 9.202513059143204 0.16175529896534724 0.18975049862669255 1.572980088139104
Ni 0.10402076966147317 3.613828863593176 5.976864707226641 -0.10035606992225943 1.8841144238926326 -0.18988265332918267
Ni 7.962722951425045 8.920850596871814 7.427030869037509 -1.201733103364395 -0.9677349477732368 1.5034695428427913
Ni 9.048114204818695 4.729996648353942 0.3804180175457599 2.8615033498158655 -0.579237660558512 0.037178665932826295
Ni 1.659821399590204 4.146944608963882 2.695499579500256 -0.473871539016171 1.1851276335972298 -1.04936773025438
Ni 8.439661528630936 4.484184334210248 2.5577799496244187 0.7981794360371802 -0.3586897169349887 1.1780123627086874
Ni 9.144898908779469 7.467591900555184 0.12614099466915213 -3.145154906768093 -1.4604537014028978 -1.2633063960915016
Ni 7.463220498396664 6.379019754527035 1.3323038587615006 0.3660592699261825 -1.1980397136732077 -1.0169224652414808
P 0.5658073229174797 8.09208855275028 11.055397900107245 -0.3960247059400212 1.0903935378474383 0.6517674522971226
P 2.2663487986570843 5.085168423305897 0.8051146186150692 1.4975290089886404 -0.1811283041753203 -1.404754865178697
P 6.644056937312563 1.395649196380724 11.006364719172131 0.5819956829196234 0.268128521615964 -0.48446371270972044
P 8.423040899572902 3.5807550208789234 8.062827130769596 1.8484768771946811 1.0368351450050082 2.873770597218993
P 2.1854592570131435 5.27492448040831 10.76204333219016 -0.9098722711284974 -0.4233802151348386 -1.6485517520278319
P 8.58815899004144 5.6888311588306 4.355178675998917 -0.9100849013599358 0.644908006173128 0.33635737198637555
P 6.667309076453628 8.286141605165962 0.3981947429618878 0.8051658946573423 0.3171625442254796 -0.11010157934479749
P 2.0484204497713563 2.1171072687940655 10.862437698231194 -0.027506947171017142 -0.4056244338133143 0.47220546416765774
