# total energy = -340864.91849157144 ev
CRYSTAL
PRIMVEC
9.32502887266773 0.00000000000000 0.00000000000000
0.00000000000000 9.32502887266773 0.00000000000000
0.00000000000000 0.00000000000000 13.64812234351074
PRIMCOORD
 96 1
Ni 1.4772244691112333 5.095400996500952 7.067762125468137 0.01865952408271625 -0.08225010435016801 1.3011059834377785
Ni 5.882964970794594 4.123527824012798 5.0306162900230085 0.6033852043389931 0.13146693239445098 -0.48125703284696475
Ni 3.502807268595765 4.886716172499183 8.637104826063524 1.1233016014293689 -0.8905398893484727 -0.666064328535769
Ni 0.7910589951630231 3.156587591865898 11.729059709424186 -0.4336327461007822 0.37679851072055753 0.9757948419632357
Ni 2.481781868246074 6.715736685682571 4.214799342863707 -0.27953984877669924 -0.36554813461771885 0.0905164581240183
Ni 8.823762066560356 1.6886042264941414 10.547787415712826 1.8755685912051505 0.19496546716872873 1.0165442559664557
Ni 2.5828465325532894 1.2679055431374313 11.635065282105137 1.6872972482271458 0.42411066554295995 0.08282885967177347
Ni 9.46695594186855 0.31590773746090267 7.326666893151998 -0.37351444065264705 0.20531312895163994 -1.06300820385595
Ni 1.9364355222399312 6.100956173738844 12.646391719791426 0.08789264734792605 0.25908595179772154 -0.6031859438439935
Ni 2.702402729368459 -0.11095012755062565 9.377406755874027 -0.7995948283274682 1.2083189841120285 -0.20172129783532358
Ni 0.7040574070914334 0.13110617773516584 2.0158549292312298 1.0115737993350578 -0.6098134764628401 0.8957098635851863
Ni 2.844245745494779 0.7635389695768029 6.553459733507496 -0.5290844367428889 -1.0113627117655164 0.2558021388401272
Ni 0.7063411066936512 2.289555720430154 1.5208105871623823 -1.5611121330569242 1.136996582417958 -0.2660744673004127
Ni 8.310391244996863 1.3682148800956075 -0.10551363564334511 -0.24565296622126723 0.4094085834460949 1.3242873066502485
Ni 6.748756613373274 1.749981567375309 11.968680317135052 0.1819626271511576 0.30234450537604063 -0.608747497092171
Ni 6.684758939342972 7.046019887850615 0.8099356513686974 -0.22705694838663476 0.4836252759688251 -0.3966474271256846
Ni 3.1689432552915355 6.289843961172592 10.589223182076465 0.041530000922986546 -0.9926831330781422 0.43554821795594023
Ni 3.7732424346387208 2.3998148633318444 8.42136934763449 0.31469119986685157 0.6120140836585847 -1.490288525376143
Ni 7.8050026482577834 8.937434170076223 1.6842876705698189 -1.8835019871196141 -2.7900089413203046 -1.380653601255119
Ni 9.311293232763516 7.219512052404568 2.9853352992778603 -0.9630416560626253 -1.7115365803904847 -0.42913434400979644
Ni 2.939323741183686 2.048279920071703 1.7124576506773725 1.608656715605107 2.0594222647314333 1.4377842848298399
Ni 7.215837990978378 7.304686867294963 7.730310098466829 -1.5488142895261778 -0.01637407048264922 -0.40552596056223705
Ni 5.7251575050194505 8.749283059933513 12.672145584884953 1.4130217331731796 0.27644809722525293 0.6980604218263913
Ni 2.6482429609336644 0.9933114141602606 4.065393728217997 -0.7241902861442238 0.8946300002574463 0.07899354508608332
P 6.390535624319788 5.462527388249898 9.418009797147922 1.8709992266669133 1.6222100288095096 -1.5392826958866588
P 9.21291417680844 4.612718845378042 2.9105989218506036 -1.2447476592527078 1.91673246703797 -1.3647446433343464
P 0.6562237383305649 5.869219878047885 10.831190899586751 -0.15327734340132312 -2.542557231327402 -0.41318553399002383
P 4.477151573769047 5.1327570626768795 12.003633323337557 -0.5499090867977239 -0.08998475399026439 0.7514635200378801
P 6.066602766901072 8.02857021854432 10.671139831834092 1.280622518772446 -0.6050960163825129 -1.249882666486428
P 7.752791810884088 5.569765221755432 6.174847703538657 0.005617603297093551 -0.6068824188589741 0.2368356250399534
P 5.307470806029896 8.879096788649212 1.1097707688443705 -0.5185465133260424 -1.1024011038312755 1.0281643567038872
P 2.0348239032240083 7.038960840897251 6.270875919682712 0.058909115631382424 0.3728115010483515 0.5522001968247457
Ni 4.1022108077176975 8.394922632886226 11.119849037302446 -2.550469801306259 0.6227234996562888 -0.23586889025130994
Ni 2.893845574748339 3.749873911963515 10.916737783134264 2.077446469222996 0.012805379294784399 0.43478434320672216
Ni 7.817432911915423 3.0601388169139208 3.8475153581246535 0.5923520864532831 -0.12979005891266035 -1.2670406663229532
Ni 4.192850089602374 6.87113829397559 0.13430652768813098 -0.061773324553054905 -0.2232990240060993 -0.09698123991275555
Ni 8.621250411756906 5.579976128510959 13.716227119438337 -0.7980061436841095 1.9311470998014033 -0.5445352240803203
Ni 8.439878597697547 5.129129626395692 8.389241825219132 -0.7163926444766759 -0.47394481545626754 -1.5713914034957455
Ni 7.936905183469589 3.5937542764374584 1.3420320636680565 0.8496567779808658 -0.4335394150560275 1.0841164465894748
Ni 1.166094876510177 4.491008566863761 0.40484333654719223 -0.033967358084380214 -1.922674800664334 0.4799344573807992
Ni 4.171430497988269 8.503913571843851 5.048563240837335 -0.25288599363459674 0.593743567484171 -0.42668819646214906
Ni 4.7278363283889835 1.4098324845247552 3.3296228299988275 1.3699058758203115 -0.640974989667309 -1.05177582547524
Ni 1.3442215804773696 7.543295709359278 0.8998401209681368 -0.42012854096676033 -1.2531482246115773 -0.19491198822297398
Ni 5.065467653409407 7.513586166963744 2.829323834088209 -0.7756948817814189 -0.24781423553864415 -0.4914072339070892
Ni 4.816619929502566 2.7104036042508723 12.435036207483918 -1.7974373941193624 0.46017784357916225 1.0436984477837445
Ni 8.069413845566427 9.113136366503289 11.178781355579687 0.1895412108293639 -2.310575077725008 3.5676984849342492
Ni 8.390372018733991 2.651115069865813 8.70348970751795 0.7842913652011783 1.0657292023315388 -2.539985356835168
Ni 2.8253998618848066 7.095964743177193 8.425258817230592 -1.896857325380598 0.5757170489997633 -1.9804405467198927
Ni 2.528500263538485 3.857932348021091 5.531706980895767 -1.1129616529559412 -1.5449512070263458 -0.6972075869077927
Ni 8.297522704976199 4.349109600563438 10.629307751737933 -0.20456108127696385 0.3294513888951616 0.9689598213192732
Ni 0.26889187374337636 7.073398172996027 7.527212831842148 1.2739551340545994 0.8111946173499255 1.9422290686471777
Ni 6.887233294030421 0.49881258628794156 6.954605696055997 -0.17957304387305847 0.11377774264480406 -1.2055136534527497
Ni 6.950419690537681 6.288874158156542 11.84403172198272 -0.29931523163141355 0.19192873722493398 -0.2073371013602042
Ni 1.2720738311006463 4.304069710491114 9.322514040159794 -1.132140025656605 -0.1669568977709447 0.42163854985338356
Ni 6.036818624273534 4.855020398926547 13.599371451021705 -0.36030282705837946 -0.6608493599937327 0.1761676177359353
Ni 5.707980801600565 3.9604423918233813 10.533566746487091 -0.8883449385796829 -1.6475953016518334 0.7225946595223297
P 5.6122407288526235 1.6293623172540843 0.5646416960139388 0.3174160549971824 1.2466698159760854 -0.02323557348917289
P 2.034963778659016 2.040456220740299 9.683493372791624 -0.4484901228285889 0.6102189394313748 -0.01789384956128531
P 1.1270603051141628 1.5987016219005021 5.633453304822918 -1.0352716571726301 0.2642939783612222 -1.3328012576585304
P 0.17784788560007797 8.886286386008583 9.281242394306565 0.009998763083924715 0.14249387963257396 -0.2637679306544231
P 7.193178170507209 7.495337085209802 3.559922138720812 1.186631471836266 -0.6346122806740748 -0.6046699845886877
P 4.367190831795372 5.062455669042251 2.12108228648426 0.23707216653079172 0.7984491447587991 -0.021276649990589164
P 5.184921274905571 7.5925132124238175 6.6805235111709536 0.2795635029257831 0.5877858072388392 2.0501899474998884
P 8.332678064308013 1.1974549490387956 2.6704188123997086 0.15513830786946187 3.5073994309338756 1.7906501959941998
Ni 6.548865291718959 0.12338691872856747 4.175629558547186 0.5688300920719429 0.465779763146972 0.4489953445997816
Ni 4.794146609611405 1.6753720103424588 5.772446592086691 0.3471215524814151 0.6939821379919596 -0.21866101101345567
Ni 1.7186960950786945 5.645559057471343 2.3090030684106577 0.5368874777270753 -0.7329495203940926 -0.10520954135981882
Ni 5.827704848937743 6.526531847262806 4.949791601161337 2.25805386789784 0.4017464389151468 -0.5517515393231014
Ni 3.5104724424341605 4.138923446892592 0.28580281383574907 0.4113127424473433 0.8903735389739375 -0.24223674145086665
Ni 4.6534132719361425 1.5561981397163087 10.347555730499993 0.750825886453881 -1.039648703194403 0.013660271095911957
Ni 2.6273175958565846 0.1611738012443175 0.7630661906064785 1.37564072142156 -0.605950393963008 0.09245172747351821
Ni 3.697308723487802 3.421791416639584 3.554080008052011 -0.06902254991630048 1.3953736810741129 -0.12579122216591238
Ni 0.7117757335951317 8.843680328505384 4.287434791257156 0.507528564948984 0.9995315234585431 2.1345480993319947
Ni 6.188825922010379 3.749305085194486 7.907626457413879 -0.23311215344177916 -0.44224851279425126 -0.021177405408563527
Ni 1.5078198892618122 2.4693143044724306 7.534678450059933 -0.3379326868932954 1.0955041196011264 1.1295758644738547
Ni 5.000901152610075 7.022231738870388 8.893662483947963 0.8813286551628499 0.7181695338714407 0.18105862727964947
Ni 0.31209286809680575 5.061868192215221 5.0040977725514395 -0.33942804049189934 1.082598981503684 -0.29331324841170775
Ni 7.202148848405671 -0.0016626526707858023 9.231767520441611 -0.8867318284562922 -0.11783442921268093 -2.532210083765123
Ni 4.53806266320019 0.09587435316554765 7.898400273720802 1.3822314872652002 -0.9126770875671443 0.17010007138561672
Ni 8.764855858364317 3.25119933610478 6.473631890245977 -0.6547023665557306 0.10693937956673194 -1.0963207019651506
Ni 3.9738890836420753 5.808952215617775 5.884879399248394 -1.5410351598013912 0.6133610846047823 1.1763570864934514
Ni 8.280308701441312 7.0996854297483845 9.83128855492895 0.29013305091151326 -0.8862417761937511 0.6323322263906465
Ni 1.156191695711666 3.1864463347254386 3.6097103335601814 1.3743618547091363 -1.609161166045351 1.5234482999575634
Ni 1.1659736511331709 7.834824091001321 10.842041503331712 1.1545214786755988 1.2801278385242147 0.4898969679101499
Ni 5.7226117721023195 3.3461094812716783 2.069069139725376 -1.3019259082359127 -1.7884354477310684 -0.2421750349749958
Ni 6.730880532779352 5.321178598660603 2.551693475668482 0.12599845308071203 1.5508290059633614 0.9268443802064619
Ni 0.7501081303074099 0.38040150303403086 12.437125013980026 -1.8104170942084818 -0.5006192394236604 1.130870414915562
Ni 8.413563365858188 7.666870993673654 5.818113124107848 -1.007367474563194 0.6610424498411455 -3.1017235750573358
P 1.9559714579959393 2.434438696010631 13.459355208076579 0.6518931792417095 0.054863484807099065 -0.8136937296226954
P 2.7095736766698293 8.420519837492547 2.996704374635247 -0.371555002933431 0.4311495746676123 -0.8676781542589509
P 7.903344404096858 3.674499702552625 12.908721570627163 0.1805274373665278 -0.4478023527329449 -1.9172878253208074
P 4.378334241450947 3.8377809603510515 6.433861574061824 0.0749132043691226 -1.2238844426504534 2.754882787041133
P 8.118901774471981 7.9649735207610375 13.012542713506921 0.23886782497863376 -0.42645654006731715 1.4414429646283498
P 6.866485104504349 2.2362725047214043 5.519969566892862 0.8110208107762226 -1.4533068059454715 1.2119743214764287
P 2.355604900840562 8.345723779879687 12.752806153236218 1.1704276083828942 -1.9886886456612978 -1.921577710945413
P 6.776955501070729 2.0110917044177836 9.78457109213944 -2.046062555595076 0.6898863706560313 0.08219945361789069
