# total energy = -381168.29139988107 ev
CRYSTAL
PRIMVEC
9.17778053504491 0.00000000000000 0.00000000000000
0.00000000000000 9.17778053504491 0.00000000000000
0.00000000000000 0.00000000000000 13.43260951730977
PRIMCOORD
 96 1
Ni 1.2166892069221087 3.9477214037691235 8.914390305270564 1.3864923194240832 -1.8603260632237832 0.6414071921087211
Ni 2.28723143430128 9.24643047914585 12.890281989057842 -0.32004783619307464 0.9817335760451738 -0.03447309407620515
Ni 7.38653486885099 1.8565916092501809 6.095543267324406 0.9828088113872234 -1.6320198158110797 -2.2890392605357612
Ni 7.261689518265548 8.684998101628889 2.645942238831665 -0.4818327028447766 -0.4640923481422201 1.2356796355131685
Ni 2.451908353036455 3.874473536164741 11.235088516820232 1.0781450594973883 -2.7673822050597243 0.41265820073164416
Ni 6.748394600413413 0.9577564806068055 10.570764957881645 -1.4998656275416167 1.3328254260282464 -1.9147923125924637
Ni 3.8550166411238584 6.380659284140718 10.869641221270975 1.073893740420202 -0.8335261909675903 -1.3957012396168607
Ni 1.4417651003101393 4.678520545948569 13.333879922650556 0.028196002818241764 -1.9344666510929396 -0.4450453588130981
Ni 2.326255357751203 5.6099000848820255 4.866258474197529 0.7478482918827959 -0.27076158836343694 2.6605256150147856
Ni 5.202792089493579 8.363234288780617 9.916919671145031 0.4350460815085411 -0.5421785509226856 0.017610513992911605
Ni 0.6302427881627278 3.545018743106916 4.338034060513788 -1.636137694634195 0.41322358631681094 0.05935828735365906
Ni 0.887038927135806 8.708630886879018 4.685294665868227 1.3957230939937317 -1.6194486640142882 2.3860780931593295
Ni 1.7492207530788155 1.49469336148975 3.8859595286853383 1.3064518211307241 0.25075300645199394 0.23440721810411888
Ni 8.78978082364859 8.197162347382134 0.21692602414449053 1.1429599990902444 -2.855371782996831 0.0702970457533499
Ni 6.278960296429383 6.192762580285998 4.354637583541365 -0.509358161958555 1.8362206855351473 0.42533219665488686
Ni 0.46414882009061326 8.493044818713757 2.548568739154655 -0.4253152273740223 0.0730434981502355 -2.043277536650771
Ni 4.919611666622609 0.1662343881165135 11.9623973490072 -0.4048389617975415 0.20300453542312136 0.3647690903598492
Ni 2.322180423129433 7.994315038800246 9.07944993746008 0.740136525060835 -0.010981438712168185 1.609753033993079
Ni 2.119379003450942 6.739850086600648 12.72896964471983 -0.93531410824037 0.09956674125174465 0.7401470665837963
Ni 6.864328325958904 2.0974349298458703 12.512690654113257 -0.5397339460369349 -0.27310180646083937 0.658136331937944
Ni 4.68309108072704 8.138580573303852 0.8516466515008255 1.6538698218066357 -1.116456553483077 -1.3988984063979197
Ni 0.45926991188130495 7.874893756596484 10.957570784628613 1.601136753078978 -2.1951669985656324 -0.6464707226745575
Ni 3.8400752141773684 3.9685824992539955 9.210297556610021 0.3544677084338411 -0.048657355996387174 -0.14567330580182009
Ni 7.184036315934929 7.262653185236913 8.452227556919029 -1.5468147425976457 -1.9041880547140562 -1.0568131307888315
P 2.9916995237107744 8.599488719036477 3.932651487893119 -2.1970068799878484 -1.7536057416463926 -2.5945773331484348
Ni 8.13051330408643 5.994449095359862 10.278458149902821 0.5162890847504334 0.5093116249913359 0.7995104961437779
P 2.471144981341027 5.858700541326981 8.304133052315867 -0.028540530641854075 -0.6668865673267482 0.11471362419551212
Ni 1.8415675822775743 7.321418514928789 6.566960889713312 -0.009731368355150982 -2.4465062165383995 -0.5903977909403896
P 1.0122266089405993 1.2665704449160715 8.380847367682957 -1.0722011832091278 1.3660664474695636 0.7112645792214912
P 2.6568390178326275 8.004401419767195 11.297818647765721 0.8764026786161423 2.5479429211193474 -3.1356436248435484
P 5.17805797056189 6.081968411921119 0.4667378720203459 -2.307753292005496 -0.3099315736946791 0.6653220510531058
Ni 6.904857405440292 6.704056741949966 1.208703619952735 2.433428814529151 0.9973663974864242 1.3205872320908418
Ni 0.3890130830004245 6.868082038256885 8.369093383966515 -0.793334192129737 -0.7904733256421741 0.09750574495765787
Ni 5.873228968142886 9.135379332921941 4.941158342324251 0.683411561564965 0.2887094310911092 -1.4348475707990191
Ni 8.593348783761783 1.0590791793102736 3.9373798804992806 -1.0904837835683994 0.9497495669394095 1.0463713666302172
Ni 6.108730820383013 4.654346271638339 2.3467713686825196 -0.7082291348292771 -0.13982456033052693 -0.5671881855931458
Ni 4.461108099428055 2.6362532557681457 12.439630931012807 -0.507872578551964 0.0883976120088026 -0.44937561075733573
Ni 4.547727993482705 0.19594469973271528 7.760179758103321 -2.0645837543277152 -0.36250523402633694 -1.2779460003815475
Ni 1.6575439018696718 1.1052525939096531 10.516416894030893 -0.8407587041602876 -1.1449618600116216 1.9141541647878324
Ni 4.980671441484399 0.5774237425732052 2.6606101679139007 -0.3207636313131766 -1.0527320187409224 0.37955550464040444
Ni 5.17643350338159 2.479148006093692 1.4684256354064893 0.4596875342063051 2.3184930470205036 -0.44642964075513436
Ni 8.190288189653067 6.574879478883725 6.00537065436866 -0.2548397749268579 -1.225205218344406 2.8827283206329124
Ni 8.58311555830396 6.172103395976079 3.851169315462944 0.13419075908351727 -0.1401300073860877 -1.388873675172066
Ni 8.655849470190281 0.4351598820358329 11.629120928074363 -0.09885094613164266 2.3218411375571306 2.7751034849633816
Ni 4.075558710856136 7.59780738009681 5.61771863624303 0.600189837330147 -1.6914164126018418 0.36193727733800896
Ni 6.56630743172892 2.1926268710553245 3.4361821953610083 0.0053684634007649485 0.20007450626051995 1.08994513745611
Ni 6.492683275116672 4.560182241865006 13.374096957588833 -1.5305586857500995 -0.5153400905736027 -1.1560104045162993
Ni 8.905879749246312 8.739449874401322 6.822691488349482 0.6126432326021514 0.585823798416462 -0.33925474813882867
Ni 5.2155583824189895 2.316435132423965 6.085724877553305 -1.2005300841952293 -1.4300290663644535 0.9944327687793971
Ni 2.123077649064846 0.16166752445031374 7.218872418060721 1.9712090008192955 -0.303143090017936 -1.5940160828737968
Ni 8.45145111667353 3.717469242077764 13.103080765230688 2.8836690872796273 -0.23188136635847165 -1.233341474298295
Ni 0.41986511053317616 1.956968996543644 2.063100852323255 0.6685906945020484 -0.7204704140904753 -0.10439758698148474
Ni 4.205708818674422 5.1729826578460365 3.656813289565878 -0.7987905872586178 -0.4235362810967286 -0.2162148634658083
Ni 3.165205467459784 6.416085517564213 1.3935523828437388 -0.20033470190044209 -1.2675646571472234 -0.02490653343369259
Ni 8.373788736562231 9.014342761318558 9.044270586336868 1.4626630503493907 1.6483571195185227 -0.04527584111866396
Ni 2.620036117307183 3.4501663797826088 5.373782403558294 1.448957784948156 -0.3539779132816162 -0.398727449583165
P 5.165521122153472 4.299505737220568 11.165373176999452 -0.493596528248924 -0.341232954911122 -0.07108020377627759
Ni 6.701275874404029 0.08629224728438582 0.5108086570660147 -0.948058809500548 0.6183780782033995 -0.5790605115506995
P 0.29461593759782917 3.714670018970467 11.154815058105568 0.680884167157421 0.6063527716077493 -0.009052597120571505
Ni 4.414943862609356 7.151198216663099 8.115983041714388 -0.9559384693589408 -1.4357415433681984 0.5268321503736024
P 7.623156410334036 4.180102810578165 3.692328547461966 1.7861019145018855 -0.21519002174571972 0.6584348370149692
P 5.112234927527354 2.024288017828965 8.454524755423149 1.6085903811435458 2.6145681744480647 -0.11640926673038016
P 4.279819397662693 0.9465412326162586 0.4156424136424637 -1.2910707106889636 0.14949576487170382 -0.2508720485283615
Ni 6.592197951026247 9.110278102763065 7.111720910847601 1.0702407170486472 -0.07468129086397461 0.3272214711233784
Ni 8.640164643008738 6.106399664090379 12.574037693510322 0.18424936630280528 -0.5719213294027569 0.29470010145690534
Ni 0.9762680642376836 1.8601250548118509 6.094106026869972 -1.5115975712665644 0.5439451559048052 0.5866871748580219
Ni 1.1194047317176918 4.684100636601802 6.785092874239111 0.3586889456040403 0.9012292507415188 -0.8408695187065389
Ni 4.124724081957085 2.48057056209904 3.859685378155602 0.7344914109599157 1.3371952729611678 0.04152228761350268
Ni 1.7725414937858366 2.2775305201228777 13.581980114429653 -0.5326613554608697 0.7562784249280201 -1.5449311524216878
Ni 7.484195633063274 2.700020475930437 1.3327918036321047 -0.3028309580941559 -0.49522172255717295 1.2950831742824664
Ni 3.65485842228111 0.6618639137164353 5.238032931747345 -0.014877945553096959 3.052810137186084 3.252330313605031
Ni 8.283745530314066 4.6045751670125314 8.467044166048275 -0.4910197686606834 0.316151586462462 -0.007669600730115822
Ni 3.563466082273036 1.2485452836612154 9.67777882886542 2.197881312173002 0.050257353493655385 0.12166228759920338
Ni 3.1259337439315105 2.2931327472783027 7.223090526061094 -0.07628231680250734 0.45920082437787363 1.5728037104622397
Ni 6.329447267948203 7.087541129868963 12.325763123898309 0.12492733150372033 0.5737473268679022 -0.9910983050895253
Ni 1.4511998588488317 5.622244199896171 10.48060611159692 -1.0348692795278889 2.578542134062443 -0.3736471095757694
Ni 2.6819953146755813 8.645974178178966 1.6393287605547469 -1.33633575317435 0.8608557320204787 1.772121026841761
Ni 8.924868577472532 2.022865461823617 9.89900097214606 -0.029818626023329287 1.7134014015133654 1.0464402721949397
Ni 3.035293981939169 4.088884848403005 1.805678788707824 -0.06200395250662225 0.4926272223571194 0.0948420820825657
Ni 2.955410578903391 1.9049768689933588 2.0030845911247415 -0.3608844105934624 -1.453388309915684 -0.4935265942429372
Ni 5.835462400646077 4.067794308401141 4.938714299329257 0.36629041210038205 0.09742784053187092 0.2354156047639752
Ni 3.787165308559117 4.989849222164061 12.791121575482501 0.6223175224671219 -1.019554246437373 0.663025027488813
Ni 8.194482435423675 3.852593707024427 6.283412437837088 0.9109637044204634 0.9832726383975195 -1.573665801352219
Ni 4.440990404178237 7.454808379326996 3.04530694066068 1.490628168103749 -0.9524517963619209 1.1566336399225952
Ni 4.128734772114097 4.940188250906411 6.877146932234187 -1.5711977994277004 -0.2965086154205539 -0.5319473601129807
Ni 7.523449001030188 2.0919833281221516 8.287033929131589 -2.143169265342103 0.3445453071138066 -0.23011553270730042
Ni 0.3347329347266996 4.230020759694846 2.1596951584205613 -0.30689381530961984 1.7437733289370032 -0.8924844146693532
Ni 1.5410870428254413 6.469692934514118 3.214705827555541 -0.06110560906206895 1.160892158088633 -2.910911725045664
P 7.3914358037339305 8.102934073144045 10.661247779824365 -1.4284843475851527 -1.7878299529365855 0.3433960240007118
Ni 6.274582495045185 4.0405730109052636 7.454722108188608 -1.3790469188896315 -0.03848555766970792 0.42009768772882494
P 8.631913818177724 0.9674665725658878 0.46503539370426855 0.4882805153526493 2.927250571415004 -0.3871569711367462
Ni 7.316278957748178 3.652784243847506 10.72885406564496 -0.3840814175352159 0.3125540989191907 0.05001746956870741
P 0.8145317064322724 6.279905607839389 1.0283813384929403 -0.9611102433678675 1.355834228218594 1.7298351215893564
P 7.866505265055274 8.254165543183516 4.845666287686572 -0.6041156547471145 0.5136405913839929 -0.942024687491326
P 5.75096257392843 6.33850573747903 6.796081431046869 2.2475282857761676 -0.6723789578998871 -1.3416383963341862
Ni 6.041925754815754 5.336998776372275 9.53153823595955 -0.9504684473833049 0.5761006575914273 -0.40262215665188084
