# total energy = -340890.71757903567 ev
CRYSTAL
PRIMVEC
9.07342187570725 0.00000000000000 0.00000000000000

0.00000000000000 9.07342187570725 0.00000000000000

0.00000000000000 0.00000000000000 13.27987007063827

PRIMCOORD
 96 1
Ni 6.0014695706209045 2.0017147687953596 11.36410220695435 2.376182431312172 1.283593171364996 -0.6440834533893036
Ni 4.775242002758409 0.7237569021230335 6.2726668847750044 -0.6982126311335395 -2.2447257833303667 -0.303685078564335
Ni 2.679100134930566 1.502885267160993 4.808255647404291 0.5780760361502432 -0.06054639412448928 -0.46458188618412893
Ni 3.7059574090445504 4.414791254592324 5.151194691800539 -1.0488038873311099 0.09334261471890376 0.2985693546043245
Ni 5.355278628092278 4.3844406591984875 3.1649119985345773 -0.38830496869826026 -0.25523418215179916 -1.1693765414105604
Ni 7.248901724861695 5.980210543712755 2.7252947391963662 0.8892129430069331 0.4660875241953779 -0.46088952493420626
Ni 5.14266113874586 4.535957727204968 11.884235195262914 1.3795272009601596 -0.9068846492550833 -1.5371761910666173
Ni 5.732270223912463 7.828711514654505 12.313945185509786 -0.5379943376380089 0.5555151201305917 0.0197211325780112
Ni 2.073757736636036 6.3209901137581115 0.35764706087858233 -0.48137761758522907 1.1390357243351739 0.26602073124434183
Ni 2.7631109459175716 1.5888377903794724 0.25914599552865997 -1.527670565569027 0.3753607498327664 -0.9058698348373236
Ni 0.635096869886461 -0.14770441623234304 4.5801870283430235 -0.09271166600312421 0.8224028273609192 -0.22834455684980676
Ni 8.472135063582199 2.309585038543721 1.3126337621630957 0.17865670270637618 0.7678244778944067 0.6677903100879401
Ni 6.768799765497248 0.7701601950866087 4.843885159509677 0.1839413481440832 -0.31357302710200835 -1.0874820206275981
Ni 0.8635157230231246 7.181840065502699 2.568831749052612 -0.2923321154453611 0.35037296953917724 -0.3955482805242349
Ni 7.6869030078053955 3.566235789173193 3.840737643489455 0.6007953321246299 0.1504290753192506 -0.07372381204671173
Ni 7.562397516028347 3.8150290106078715 12.82000076014016 -0.2414859793277712 0.3309066332844494 -0.8509320451488634
Ni 7.95581200502128 8.928083574534572 6.736971109717864 -0.7581481311469073 0.9281499863917628 0.5924893833620957
Ni 6.754772255638095 0.6131001737987845 0.5952101083464593 -1.5043732856039835 0.18906735651673892 -1.326204321167303
Ni 1.9997549097206004 6.490463483194907 9.119871209816527 -0.12932906011584178 0.6840445671632734 0.3220077881329228
Ni 0.3988621713470318 4.783017925105948 1.3345742030365895 -0.8656919770668575 -0.057671643679855514 0.442150039543174
Ni 6.5812067730405746 2.004654557407498 7.051491290187943 -0.8577315845692003 -0.015774489225437352 1.200843758780906
Ni 3.685660164830496 4.496415755687378 0.5342004212229443 0.6196122077208167 -0.5635523886127713 -0.8018602273228771
Ni 6.194588276857802 5.75442751956321 4.909647504889483 -0.4531399628957744 -1.082960735718477 1.0733561227491772
Ni 5.459396141438848 3.245626435438898 9.028996355357044 0.48063071211687547 -0.47073376471813766 1.8062207967389472
P 0.23144120988574793 5.685369707442884 12.503939912675204 -0.41469014356000844 -0.47020797412165477 0.5284213492375931
P 4.073948170595472 6.252186357443772 12.431299006348292 -0.48171391787872525 0.21769684732797348 1.1093806204729024
P 2.0834481509501215 8.380829221594702 1.0696593260276899 -0.04210952757554038 1.0004941444821287 0.7826499729430134
P 6.215339192153976 7.937701455423045 5.807844567456362 -0.6386332289080099 -0.36778987946404396 1.0137751778617508
P 4.613517335404225 1.0734765145126486 12.525347743698289 0.029283579455465693 -0.32435391976759625 1.3370826586427038
P 4.163067317967149 6.106975317478763 8.32637235958133 -0.24189555606136404 0.9351894097370476 0.05360492980964962
P 4.531520824021833 1.1279261177887066 3.6601311856974315 0.4019971214733722 -1.6054986295920997 0.15566178447309967
P 0.17508709540694978 5.4696218876298355 3.7329717073004756 -0.1597305552258346 0.25347966135453764 -0.9355989864706403
Ni 1.6254399732849245 1.147361386946733 2.4175469606401765 0.2368698207119985 -0.3406099766151424 -0.3140754206597236
Ni 1.7855949386949723 6.5375182478324065 4.91602158359327 0.21228287540125373 -0.907681691235082 -0.7705387915017762
Ni 6.156380098321644 5.729548197419743 9.355880887499223 -0.45599594428733076 0.14324078510092753 -0.24299316000091697
Ni 8.439552406464331 2.394593925911391 10.159219863505607 1.0362530472492928 0.35608493232229 0.7837000114740826
Ni 2.507258602445104 5.317451533265102 7.2040236740762085 -0.4925434043940614 -1.4119899494745554 -1.4665438734610354
Ni 0.6699841761014989 9.038879126209949 8.92461662012501 1.4421281636208325 -0.22464756761419372 1.770711290978428
Ni 1.0523354420858506 0.733581603077427 11.660774967053822 1.3787658973141028 0.4752028562330849 -0.643810145123259
Ni 4.077976769804699 6.818603776892396 1.5812079501203764 0.3603984720959793 0.812799242832884 0.3968238048025488
Ni 5.789042623128975 7.865150375970394 8.055050739550731 -1.0761856217781722 0.35958934593112263 0.15588187090370573
Ni 5.239882851644202 2.7443471099610828 4.862981990040441 0.45522615600084176 -0.2803044948568656 0.7369930943358469
Ni 0.6244483022469373 7.616937853520828 6.9292895401659 1.7717857549895293 -1.6395953141654924 -0.2839999414305818
Ni 5.313422934055875 4.60730204157918 7.2486839627422786 -0.5993735120764387 0.707119446704866 -1.2767694635749431
Ni 8.341940536435365 7.321144307978505 8.893489339838583 -0.7312924444066438 -0.964674820790674 1.3639190621092574
Ni 4.430261438492621 0.3927004107096762 10.430620422304496 0.2695238593015939 0.24234729888680195 -1.017728506082544
Ni 8.018817844906124 7.336378582916099 4.808242037271827 0.8546791708961216 -0.6164461512880094 -1.0362265648867315
Ni 7.422494427724142 6.295883956073584 6.997933604259333 -0.22425624571304603 -0.8134823849428379 -0.47349924327841675
Ni 2.6074110305339433 5.083783705708308 2.5152069198038483 -1.9090155580096864 0.3019791516168218 0.013613991239008813
Ni 2.2032626837380476 5.272928253265833 11.56918331228459 0.6343304877675978 -0.6957240603837309 -0.8027601134293272
Ni 1.3071443420694422 3.4214058329171633 3.6203179188727335 -0.9863782739060367 -0.15339638547769063 0.7822031152135819
Ni 3.7076450654700372 2.721736143228216 2.4402159972715554 1.6614674316482356 0.004971742182978534 1.2461591948882538
Ni 0.917041651975986 3.4188471280140056 8.244462045704541 0.8089063355363811 -0.493346359911331 -0.8419316414224661
Ni 3.7698796645152766 2.628679130863735 7.053576362481367 -0.44311523166992073 1.3337926750375222 -0.36888028431474534
Ni 4.052616556314184 6.891926097184652 5.884243685027556 0.7883611643951778 0.48566287522414425 0.5407644441839784
Ni 0.9081587721880737 7.27055998232211 11.070577924164791 -0.8200194147304072 0.5228022032786029 0.5227222419702868
P 0.28598699143121525 5.519407752181698 7.846503587153093 0.35305231614355326 1.0039250245405484 0.7039240796960199
P 8.73710619580528 1.5098899486689277 8.056551483490384 -1.4820877347329056 1.7259208741366148 -0.5606347007453442
P 1.7153031412312796 3.276975107213399 10.406053225865525 -0.17621646869599975 0.1442442866647774 -0.1892157091691451
P 3.9354968297540505 5.958343597554565 3.7103952195698495 1.5368218930509918 2.584222215166356 1.6653711375780158
P 7.071008220140751 4.069202771076495 10.508015801572025 -1.043743184978751 0.3614634230253839 -0.03026368398054788
P 6.609860638587282 7.792871499167015 10.235725140110016 -1.3825963268037866 0.3110798283665094 -1.0731527484891195
P 2.430025637424973 8.415616720171673 5.809465080561695 0.11280740831173475 0.8000357725196287 0.34624634896531337
P 6.92534350909362 4.046065545888369 1.6960121394773675 0.20549516305545898 -0.38332808430895915 -0.625853046424206
Ni 5.400319093125165 2.7230154956797947 0.5115495314348506 -0.34227707990492023 0.49941724869575915 -0.07214824002947574
Ni 1.5138641073483001 1.1017583697720175 6.879809449923386 -0.128001856663986 0.2942866680685706 0.16723817645678937
Ni 7.010570158580708 0.6922884611828529 9.325961279633402 -0.6113980473411406 -0.46716353086837603 -0.3512769694106853
Ni 2.6348490575805683 1.7910480651020562 8.996899126297045 0.41892089381190434 -0.41708718303727527 1.5153583238605772
Ni 6.334963183087411 1.815446495898477 2.6735163512518314 0.019930934595972127 0.43089272146179985 -0.37455496610201944
Ni 4.119696362516465 7.053378561889563 10.400182722062892 0.22974349407986241 -0.3148284967756642 -0.47982338572423167
Ni 7.991661093930413 7.201420509407003 0.39848743903320055 -0.07250639469984287 -1.6579812728718477 -0.11836664756706711
Ni 7.63087462916356 3.9492884306505025 8.20664039493035 0.4313244096825797 0.44594215959575456 -0.227405332864989
Ni 3.261259940928758 8.46855106203345 12.447620277198645 -0.6879469875414733 -1.0180889747457562 0.006623675964104722
Ni 9.270133423609863 4.960140188987289 10.115489600557884 -0.5184680946796233 -0.33236727699037605 0.10176452023401183
Ni 8.490118585277441 2.1440495340997288 5.882742941087903 1.834260990705615 0.768013196866445 -1.149597301901104
Ni 3.4688507546852865 2.8629004371407145 11.581838920791412 0.1062158711371461 -0.6946470252694681 0.3669025917630842
Ni 0.9113253963412723 3.3019360901516484 12.588785478453309 0.6519235182590127 -0.0054103723822939076 -0.2460340037097698
Ni 3.0710356561957877 8.559693582431384 7.994149933486924 0.7257180356426599 -0.43136529022284426 0.25137341364481225
Ni 5.499046994016147 7.699505990466693 3.794404215872526 -0.7716592782594646 0.7876543681361402 -1.5346338842607377
Ni 3.032999872670836 8.49649720069205 3.625098704736115 0.30683390860596194 -1.0909622658667146 -0.3089111028499647
Ni 3.5596484850608086 4.392615812098293 9.793837710676875 -0.053804961635597656 0.9294892740284766 -1.3766439658750937
Ni 7.425479583444493 6.201901454701578 11.359786887621224 0.6249320772718333 -1.4842029813036957 1.1367392149915132
Ni -0.08667930429203605 0.010861793048120122 0.5252875991436123 3.371092396838304 1.5562956855048873 0.42075768991032697
Ni 4.158984278228068 0.3799096082203813 1.5337058657959062 1.4562226940406857 -1.3264966555967412 0.5126183207670655
Ni 6.117799909498149 5.798805624816201 0.37658510653060495 -0.6398979545530464 -0.7474574842022804 0.8281597844493545
Ni 8.009726276420437 8.671832000509838 11.559913904734712 -0.14568101911130396 0.8983650418198464 0.30354058256667077
Ni 0.000606104565712492 4.741833664271083 5.7497855570509575 0.3001701234325411 -0.7520636155157242 0.745898881465909
Ni 7.74160666688744 8.728486445244998 2.590597072888407 0.5212880806269216 -0.11211758133356174 1.0871578045189598
P 8.865168468866152 1.5885020737787037 3.404387723284673 -1.5320103305949615 -0.30870670014864254 1.1360321616221596
P 2.0497857566568083 3.2394928024086336 1.4266966529719027 -2.7569275853853035 0.25744455953955664 -1.2588015662426126
P 4.918992221838993 1.3289749945410627 8.435187183312172 -0.4044041882529681 -1.7498043656224318 -0.06114571827138502
P 8.392361540502195 1.7074364846673165 12.387582353533034 -1.381535232529124 -0.34630574144833903 0.6562038908019215
P 6.0571077921321175 7.800828889947402 1.492232162810648 0.46613663226575847 -0.27937015596805437 0.2209778320720904
P 1.8944941452470883 3.1157766983144746 5.963139808234739 -0.5410565215031005 1.33055719881936 0.3165030562646098
P 6.879822152713686 3.906752229990919 5.979752335919815 0.9389455343453699 0.13488829937117414 -0.7158452566136381
P 2.4019706177066644 8.67440885225628 10.300597382826703 0.025744713064271795 -0.3515621047512719 -0.9932076381230442
