# total energy = -340891.7527315071 ev
CRYSTAL
PRIMVEC
9.08839833280066 0.00000000000000 0.00000000000000

0.00000000000000 9.08839833280066 0.00000000000000

0.00000000000000 0.00000000000000 13.30178962943776

PRIMCOORD
 96 1
Ni 6.483054507104617 1.9170431430301111 11.455993457205432 -0.4907570019175999 0.5804656194283422 -0.16831135491631014
Ni 4.809471380835708 0.24891578233017875 6.101358132760123 -1.081947206852298 -0.3020683688965185 0.07337748445088654
Ni 2.7512581452136993 1.629395333171516 4.842184162093371 0.9300510600692176 -0.24056912394045665 0.4820329917810408
Ni 3.3895727195457237 4.482443540641654 4.954650365968794 -0.4089804947697408 0.37602486577932664 -0.5958480154216834
Ni 5.110133777225663 4.510263128192275 2.8767516593782636 -0.16501082978816745 -0.7665998614586862 -0.466075697120836
Ni 7.12665852931461 6.05719942253766 2.2863647540917156 0.32400630662019037 1.4715485257644785 0.8785436362185449
Ni 5.250376853179152 4.403119999268958 11.460994802853621 -0.5555434022653658 0.17296736563108275 0.4458431721240451
Ni 5.615694115898776 7.828719130134727 12.659352846681518 -0.33928662981802854 0.665114305917674 -0.3086701904837522
Ni 1.91287156815728 6.466304588824383 0.1969701323450986 0.3976486146966894 -0.7738028069650287 0.1653648706934765
Ni 3.0523931383212726 1.6382656100252915 0.4781842649651818 -1.2452464532659973 -0.6586490099083043 -0.3404138014439363
Ni 0.8607703935145783 9.233176602516348 4.951178597773977 -1.2958226235516523 -0.9769281842367304 0.1422982186820001
Ni 8.692671371934662 2.4730713581059036 1.537407108606468 0.16215073463155302 -0.43944163947307546 -0.08774455180583599
Ni 6.8337667135701246 0.9034795041897282 4.86446437080959 0.918229127733625 -0.8051175579179103 -0.13076065035604578
Ni 0.602239994500374 7.100165847932688 2.0835126102919412 -0.009585586805906073 0.9966179493561741 0.6465547977479317
Ni 7.749959069463809 3.9895342525632684 3.3992991235302625 0.1967259015032612 -0.5775656721727279 1.8812468725368505
Ni 7.7739433528829816 3.8899435827234425 12.594360800770623 -0.020038663818430003 -0.3428483790273579 0.12531711074297128
Ni 7.7412160301878545 8.608376476628548 7.021908375694161 1.6473610741538403 1.1363923731750558 0.21881013499681026
Ni 6.812581656863004 1.0392947124350638 0.682031588391481 0.009700000896583294 -0.9195694438116034 -1.1934718917968672
Ni 2.0594310810097194 6.657724436256982 9.292191208789202 -0.26870162051061464 -0.7276612754119597 0.00808586233192801
Ni 0.09394041254475183 4.827320995324247 1.3798615397490661 0.3649860914666617 0.09277234403773055 -0.5572832677746079
Ni 6.180910701772896 2.002019668217405 6.951036136008274 1.9650627787122414 0.37212270251144297 1.435888353358708
Ni 3.3763763650460494 4.12827774277816 0.367730232499006 -0.26349102284395265 1.0304644655919737 -0.36733145177038673
Ni 6.203486283437627 5.723846057046242 4.70266179613425 -0.18762702452578653 -0.10005267974922769 0.42554714087917034
Ni 5.105753169189269 3.285256082529706 9.337604117993036 1.3094268445986479 -1.207218294848682 -0.18904781613271313
P 0.11382855479794499 5.586902069717669 12.342717590075877 0.24946539798882195 -0.8745838802398487 1.1202682139196833
P 4.042365112554043 6.047229449475579 12.625845739402319 0.2856261641800952 -0.004002950511806009 0.7582679445542231
P 2.386204446048133 8.383084168300439 1.4753678833408521 0.04734043695717653 0.5023704177868122 -0.5762667508556463
P 6.326797673142569 7.631628122090699 5.851643480209199 -0.36644956338606566 -0.015861649622604942 -0.9565221097765526
P 4.84013563709046 0.9788205093766408 12.588361548976385 -0.015689642821114916 -0.37848026929835465 1.1921403174696372
P 4.112318515160097 6.144993351233838 8.058929170845603 -0.4152447305118978 -0.19412625909688502 0.7175419275897708
P 4.813715662895865 1.0351140491638173 3.9867195755739093 -0.12217830800367346 -0.10379209218700189 -0.5268704598107055
P 0.07914904412311316 5.653529118503557 3.554078183909909 0.4976843251650525 0.07083080676963284 -0.5194080899953893
Ni 1.526242011152715 1.098105738583404 2.8366063858961983 -0.18859967285170098 0.6919653646722469 -1.4470667385730305
Ni 1.6389654167033043 6.626387638519463 4.8489413863154835 0.6743126845874903 0.5495535032305181 -0.28760617072460143
Ni 6.133841886377708 5.696280944651261 9.110954911781455 -1.6879909318600606 -0.3618660577804413 0.05552631520207856
Ni 8.71195695337289 2.372590025221334 10.418759993531062 0.05312001975343109 0.4633927509720342 0.08645488646013498
Ni 2.2286570595110478 5.25528458832366 6.84962324228609 -0.6368396273426967 0.5118472469289959 1.0000087202052779
Ni 0.3504268307552531 9.150744828885465 9.517922486760792 -0.5962971871439602 0.0857141516393685 -0.8077560239820218
Ni 1.4042847928117204 1.0405579998148535 11.56381821600993 -0.487893821437192 0.27166841644842243 0.7408857445220337
Ni 4.505628045000241 6.597522885151031 1.4816061600134254 -1.1369212490953322 1.1609955164357166 0.8761178003858717
Ni 5.684475115109199 7.997517953910516 8.02958545888066 -0.2861666100645975 -0.7382426504722318 0.4409968997753373
Ni 5.030310373940099 2.956565065425569 5.113327440428958 0.9914991400723699 -0.8412492706434609 -1.1801188675287289
Ni 1.0355866458814365 7.905679687919328 7.37295594406121 -0.08375677080268157 -0.869430103953051 -0.8022890873301796
Ni 5.455565624211617 4.535174428249855 6.981231430904773 -1.3095535999844994 0.235901029040826 0.34193795139794664
Ni 7.911668942475309 7.24059978025291 9.221718858633608 1.4211690448706622 0.35291553345537285 -0.2693438820803039
Ni 4.493694977880357 0.4200939488112108 10.484922625157903 0.35956517756140655 -0.9828522630306493 -0.22969258623726893
Ni 8.19523606144523 7.293466993837347 4.610652668252846 -0.09757310786048357 0.8505998586204253 -0.03779290247805749
Ni 7.429565760113255 6.08119279435525 7.0208841131927056 -0.014989788540612895 0.9838529363810217 -0.21730963919188379
Ni 2.6060437153267917 5.084722615255216 2.528404254180535 -0.4849828184379841 0.428101788980224 0.07239686570517209
Ni 2.5661819998752975 5.111569744175351 11.320541784896726 -0.6562671399396891 -0.1352989045460315 0.3148729768603545
Ni 1.1319963762757486 3.5616070131575195 3.847249922325599 0.02551151400754316 -0.5310353898216725 0.2792377441552481
Ni 3.7931612279940845 2.376570743727434 2.666676056517649 -0.27295293958780087 0.9210046335962332 -0.27262178150062727
Ni 0.835042046439422 2.932962494739857 8.359496139052192 0.5768853582762516 1.9976769652028368 0.06221195475237028
Ni 3.635513869074426 2.5493321092124903 7.158185274579017 0.5856955003687139 0.12813966779343092 0.07428611230808498
Ni 4.106583735759756 6.887151965864261 5.873950954120666 0.34958518353055923 -0.16849724567487112 0.5651912097677749
Ni 0.6341548143771337 7.451059822366512 11.577744368902389 0.626658830154953 0.7582224360282684 -1.1170821028822182
P 0.35869091143469767 5.952119360054719 8.049338183997458 -0.5386687379972143 -0.7957831678908618 -1.0618833462228874
P 8.473786384489657 1.448890652236238 7.852338968777429 -1.152823779258202 -0.742681917190508 1.4256461068054094
P 1.808100511220475 3.2718234296712225 10.477407428507917 -0.7590585587763184 -0.7755275029656192 -0.11980209446201304
P 4.062077848717812 6.223926091474657 3.787910860229304 -0.5792078357618412 -0.5061579098537026 -0.9451840590559142
P 7.0962487482154994 3.8718940234697565 10.254243623088776 -0.565999050381051 0.6285365067936401 -0.03693184002934285
P 6.168250562779751 7.789393630189763 10.406947802110105 -0.6437564090671881 -0.7038412901742266 -0.01570738343292779
P 2.6926288870336745 8.538423074022495 5.9198819020342 -1.3944874218144179 0.5907970832613374 0.6825199029886311
P 6.802875247354979 3.98400850632649 1.5011598492049187 0.5414383303225514 -0.25993493006157814 -0.9383510952944808
Ni 5.299663237787783 2.8999261664985934 0.3939538972878209 0.2216722870359537 -0.13249794476212665 -0.18442471553840495
Ni 1.4881434449938769 1.1017047443560424 7.196334735768983 0.7907026680441608 -0.5693024037226712 -1.1975900277302989
Ni 6.947817025289415 0.5193910633822076 9.430077663033487 -0.4765074339771213 1.319398096878747 -1.4642471070070588
Ni 2.491929784818592 1.4833629474271905 9.3308332611733 1.1348024029801165 0.5027182880445342 0.04600449175457238
Ni 6.342838696346374 2.0930308899527597 2.7575536787962918 0.02434654716516452 0.19535576062861193 -0.012225081311282172
Ni 3.9804822077411774 7.0165525825077575 10.692378042755257 1.2206235125109945 0.16131229789065765 -0.9801636604548926
Ni 8.002034887923145 7.330211388632239 0.06101314508447728 0.4947090445868125 -0.5770864185434642 0.5423389877599498
Ni 7.7018996186413045 4.009310607515947 8.075024724439903 0.38185741330070366 -0.8980719360594598 0.3163451905305068
Ni 3.0273727774827033 8.420228452625622 12.525657052946736 0.5109090513854426 0.3929666358399877 0.41747361984241654
Ni 0.3284765309015255 5.095174273433332 10.019586629033073 -0.6580573990708924 -0.9898505487253534 0.6919293692279891
Ni 8.82179024822727 2.463401302191542 5.954134257983492 -0.1880432861275987 0.3297087563216064 -0.0640171262819091
Ni 3.6496917706030017 2.4515227654621525 11.481931746283992 -0.2746735218233334 1.3333586728238973 -0.10537537751372175
Ni 1.2093931771843043 3.09554485399927 12.757307604806508 -0.7434360217477132 0.7794317231160318 0.01661138330443591
Ni 3.3694782706484925 8.365579912951697 8.353776809929158 0.13265863870970704 0.7456708246155028 -0.9387287903488736
Ni 5.378023408928409 7.94051551904691 3.6856336598177815 2.4918100826815213 0.20365631007450732 -0.05941202340972993
Ni 3.1501479516811157 8.466279367398245 3.5385551994158027 -0.8564648020416347 -0.12239119534542792 0.2921122861250711
Ni 3.094872312516504 4.168521170963116 8.917719202345388 -0.7445873617433371 1.0724711490410626 0.13084601098100046
Ni 7.183351958632079 5.933924386426382 11.242047105459548 0.8253845356970625 0.43087652351188377 0.8878104062324516
Ni 0.552201090502919 0.15206253809317793 0.5623292016974346 0.22347205924885385 -0.06416136516925725 -0.8691125727126323
Ni 4.655432116087104 0.19676291686121944 1.4654451699505329 -0.24971633765736345 -0.7698911306154482 0.6858057728287544
Ni 6.114838045290369 5.6241190612301795 0.2005418729224897 0.3180943120111296 -1.2853422928456186 -0.9733929173899624
Ni 7.754303323906539 8.818981933116802 11.492773296754144 0.6310549023401196 0.38942879789005835 0.6909775468376809
Ni -0.10084214230167496 4.991902802235126 5.609497645858915 0.3651151608453583 -0.6541806897243057 0.5909330946185694
Ni 8.281739437566372 9.20727466703145 2.5190795574059726 -0.4674406957891627 -0.4420726493380193 0.9550416685762841
P 8.678675238374401 1.7754004537205943 3.912934504195774 -0.3795650177221011 -0.2968323173085598 -1.55796047480182
P 1.8387465906783955 3.148612012348854 1.6338986345865218 -0.2935965839800815 -0.06821470930302445 0.3242870710854028
P 4.859266715755621 1.2276335928047215 8.496770944083098 -0.5660723268211476 -0.5002636558564546 -0.5005151097456283
P 8.342368143397863 1.6418282622042668 12.604736116402046 1.9678061457853337 0.1701682056193908 -0.23307410111499213
P 6.606956642706583 8.113713127655922 1.536290144441172 -0.7786012567949364 -0.8069816077098424 0.5842405130897422
P 1.868683775059887 3.1785673735271773 6.104896246263376 -0.4649829782772895 0.7276335074978179 0.20725379761777854
P 7.037428633668743 3.839984656632046 5.67274744579351 -0.41999767181585085 0.22610486888601058 0.5433386326690578
P 2.251859740666466 8.627107665763416 10.332284791445009 1.1422066658639878 -1.0603584249379285 0.25203444426757887
