# total energy = -340857.5542550277 ev
CRYSTAL
PRIMVEC
9.35398626256135 0.00000000000000 0.00000000000000
0.00000000000000 9.35398626256135 0.00000000000000
0.00000000000000 0.00000000000000 13.69050441068180
PRIMCOORD
 96 1
Ni 1.2665858427366765 1.0189016446226753 9.684060214239588 1.0055579321582813 -0.5012905544590721 -0.44374438061348737
Ni 4.8183504912911905 5.905480110574674 11.304783293975284 -1.9843817907558279 -0.07107351890805824 -0.33788897813955354
Ni 3.6890343946673947 3.1919916349263286 7.263989445577142 0.7291399168400152 1.1700758814704302 0.314500166901968
Ni 0.4333776595030088 5.530516223509532 6.206234148863899 -0.10559726371654071 -0.07542433967758623 -2.045395868545355
Ni 0.4679481213554098 3.0245646376060935 3.3065714169406735 0.5026334416402118 -1.167894557548395 -0.38730738067168136
Ni 1.9334315122690287 9.123765800446373 6.876671749061147 0.8329062979954042 0.48257060945206565 1.613823347407711
Ni 7.815199268063726 0.3043057468138643 10.499219881280766 0.7251274532465125 0.6709525098660059 -0.1975615100306791
Ni 1.6430744295371766 4.189528775281759 1.0917140078742784 -0.425708349047383 0.6059053996576854 0.6980421669939462
Ni 2.26395461134219 1.7558554400232413 1.6877378423984906 2.561195672364195 0.9980461971622684 1.529642344583417
Ni 6.600153888773861 8.760110882583989 4.234801132638606 2.8981893923829896 -2.5326415148755865 1.9988838410267444
Ni 5.778499749178942 5.9348890428935075 3.2218682665504885 2.116492527381865 -2.7838976862162443 0.6419412102353202
Ni 2.1995898329433667 5.222199487453201 12.042852084519744 -0.577241970284722 -0.6815035459089747 0.7884557809915131
Ni 4.726466285767045 6.99631390835633 5.241286296103514 0.24545164884373852 0.0014264480338814142 0.3773901215579694
Ni 7.859696179972344 7.653992671504312 6.2574500289928165 0.32525971941131726 3.034186608547626 -1.7762993265891667
Ni 7.746737443750256 6.360224145142149 2.0716609773564363 0.31993059388892003 0.9185296896931794 -0.354517330724854
Ni 1.9282587579521344 6.815043011598475 10.44233642096992 -1.5796945240448022 -3.355969425153936 -0.5096150151643675
Ni 5.708475809185687 2.175596858580195 13.637426096094721 1.187727276003606 -1.702427933220997 -0.06927914601179683
Ni 6.492077933299366 -0.3448356332147161 13.030690076681346 0.5542768768481164 1.576097036501531 -0.5140432261390502
Ni 2.871365053153844 0.3682748516003827 3.618852372308939 -0.714455318244647 -1.088483465308919 -0.39265193281304633
Ni 8.311297275208036 7.56295967871586 11.447246373174492 -0.38303163611446295 0.3699596334218532 1.4461491118547674
Ni 6.361430809349887 8.394491627639242 9.025040089483934 0.6160021217720553 2.3229446550339543 1.940971799201309
Ni 6.43063159856577 6.276169225989143 9.780058302853373 -0.4943550036815034 0.18043976274872794 0.03549587891376468
Ni 8.054221675043108 2.8081788770044396 13.403866417001534 -0.24963869034189265 0.2580924775362007 -0.6128664043565509
Ni 8.437435777854182 3.6140996119682267 5.908369556882971 -0.04744019575983443 -1.4023943353663204 -0.22073409149240047
P 4.366206864861322 0.9607572669846741 1.363412694519496 -0.164936010686174 -0.8043876217304211 -0.389957930920651
P 5.014961925263704 3.9583263006874096 12.644440605378714 0.28963862777359795 0.28039808301193647 -0.6209514953575306
P 8.44385261232324 6.809486743851215 4.27291581982676 -0.45420671359739195 -0.25987939423329437 0.9617368212082726
P 3.623434890102513 5.389748086592821 1.756505542057643 -2.1640293966205633 0.6392410376953378 1.079041860280045
P 3.7851559558977836 6.868725537863677 9.111523303430186 -0.06558472787934512 -0.31115798990261245 -0.7424867704605664
P 8.554987321254561 0.8915976353076591 12.598001805954386 -2.05207199501395 -0.6666096595162777 -0.5715068675731577
P 2.820900298109279 7.645078322744818 4.295135278424139 -2.153996952085226 0.2182581191480822 2.2686439847088606
P 8.860909436867628 4.194448971973777 1.9197513075882733 0.07111671344116784 0.8909576936121817 -1.7939746323817425
Ni 0.8782158227837009 8.447659684668587 5.166372092173781 -1.3394992385039965 -1.375504967174644 -2.3728798493015004
Ni 2.7537386778646122 4.077570915573066 3.379473578458899 0.6313598351750481 1.7141372512381252 -3.254874420183123
Ni 4.377534542036293 3.443361303566291 1.139750468125596 -0.7181597636794277 0.916495175761654 2.6054021916780803
Ni 4.390564644682647 1.2745741468716272 9.705307793680502 -0.006912667959433256 0.5588680957632246 0.0568954276354633
Ni 5.106528095260228 1.4758438659251778 6.018222769717701 -1.472767228662928 0.7961644624896804 -0.20141430811786604
Ni 0.15637526273540603 8.264424450828367 0.9055285268160689 -0.6159288453319586 2.9634329348728317 -0.9433860866152269
Ni 3.834891100026042 2.426517535887045 4.257719333998141 1.0335595595775298 -0.2704412289095407 0.5904373859290735
Ni 7.381352038458171 3.68557341980799 8.064364202178385 -0.8313307259781684 0.26144493894820137 -1.2302664349173973
Ni 5.189890819441352 0.6438189619339821 3.501743272451397 -1.7897433679092143 2.9352384747164866 -2.0232486430243544
Ni 5.047485734956003 5.014718721624936 6.921248169851672 0.4156908169103809 -0.4868131867785035 0.6028704694861037
Ni 1.8693660614256133 7.035815791684078 1.8007667335163777 1.5427567704781882 -0.5044712661798989 -0.2585303364045677
Ni 7.242613716526569 1.5746126052237066 6.7350299498420885 0.5980239400270798 0.015812541552224384 0.28137535932354124
Ni 5.381235959235907 7.095129417585391 7.643969875391198 0.04861133324980015 -1.5376240772373133 -1.7873491566454247
Ni 9.295495631375598 6.199373000054782 13.944325703255917 -0.7390903431845077 -3.8009415075269377 -0.9646113145425904
Ni 9.15936707156771 2.188262155768396 8.417853207940226 -0.5958914670651092 0.6649060465616097 -0.7685011922464572
Ni 8.689404101604959 2.6235031293038196 10.808051086572954 2.339964072410086 -0.08521458629513066 0.9990314438936728
Ni 5.948330720928547 8.165590233627091 2.1140738211605266 2.758816317767584 0.5220900077029267 -0.6767045818584345
Ni 3.7552980322458374 3.753698500621626 10.675951288581135 1.3083613794486113 -0.7057367074247265 0.6018859940856472
Ni 3.0348446683371364 8.54609168046728 10.20491541641197 1.7775650806754675 4.086226229207214 -1.0157901514092504
Ni 6.394235238625381 2.1308660970189144 11.243477269033285 -1.21306806876124 -0.19070077835510385 0.2907729984883573
Ni 7.09187423042033 4.129663264200162 10.19678306089098 -0.4724417485481799 -0.043255211144209375 1.590249930963145
Ni 8.371480821817253 9.192358580565333 8.004235844087196 -0.11983834701658717 -1.5109571094690881 2.781547955037145
Ni 3.4284884656569563 7.552333550498876 12.204879025660698 -1.1726539266102514 -0.9015241562741183 1.149515540820575
Ni 4.318024482426743 9.068567928431918 7.8530099507034175 0.37999850571509397 -1.3714850473819735 0.5624568415557475
P 7.3288294064701756 7.170494483645458 13.583854882264188 -0.5175604952636892 -0.6850827786198007 0.9532917757647132
P 5.112654956159986 8.395660875902555 11.399699126396547 1.5839209034213237 0.9450228508877015 -1.0995590063967902
P 0.4727972277530192 0.7858433391847968 2.478637946472461 1.0226439411062904 1.0329098418086726 -0.4830794307676842
P 5.226867126520345 4.410787962644899 9.114165804505271 -0.20209590756592294 0.08188346503936866 -0.4849298537128616
P 0.16501179810753708 4.819360721790693 8.2274593685327 -0.2918546615883103 -0.5002813964682674 -0.048221554010549214
P 1.5856503088293759 7.11929076369848 13.17945119472606 0.8943980867522983 0.8955923641707156 -0.10758524068084696
P 5.617152842827931 3.2569737764081808 3.022097056071199 0.2747434558293204 0.027867672944545552 0.5045841376086794
P 8.791138054499248 4.522605512561995 12.274604573497156 0.6497907881867261 -0.06618430913655698 -0.9722649744331063
Ni 8.775685269451312 5.862582730290267 10.064272622909085 1.4033916662825832 -1.2027628301804898 0.12213228525708643
Ni 4.1815685331051275 0.9127114527472499 12.293990709702877 -0.11604725540527111 -0.7951835866336499 -0.31865686938281895
Ni 7.797473464391909 1.0257955323831653 1.622831468204101 -0.43942826973663673 -0.06731970829258084 -0.45301937815751014
Ni 7.86310103091511 4.5853614053505 3.8247438958977114 -0.5724306649390077 -0.8603587377794021 -1.240314563182019
Ni 2.3528174793539356 9.183930639083378 0.08149192695982398 0.9333850095384569 -0.14459987023198323 0.9759329102029967
Ni 1.461672576973831 3.383149694998753 6.960444177833737 -0.8565866723314796 -0.3548078653820793 1.8260041500134616
Ni 8.709197136206313 8.488723683676119 3.0087348869180643 -1.0609778036894824 -1.2784255111211273 0.6246988782151048
Ni 2.416901638169564 5.6004092076972976 7.741884595758203 0.5549492203247927 0.35860769874414367 1.5589909729488634
Ni 4.5159548284402735 8.003055371040556 0.5009153099891568 -1.189296934483571 1.4768802223900372 -0.45545112752745437
Ni 2.9723413331735062 3.088854584116065 13.149825249929556 -1.0656906357841196 -1.0937030618366455 -1.932228248680724
Ni 0.6314137055595425 1.5994474383364627 0.31033626165672457 -0.670507194798471 -0.05066950133040951 -0.18433961202376642
Ni 7.787614363035658 6.319393995787278 7.913604137302712 0.3030875541896522 -1.572336541017834 1.0719962662871731
Ni 0.6824976944843577 7.304649352384874 7.489458862086817 -0.29891953885489164 1.1220517881826675 1.9811182895132076
Ni 0.6731221942098133 5.737959573393373 3.313526105610856 0.5300144047563259 -0.6594609642866385 0.29952349098747766
Ni 3.0633275560314273 5.151763972071261 5.602619554614263 -0.02226909581084552 0.61157673901085 -0.7501643416104823
Ni 7.040502138723434 5.675736857812938 5.637804573353862 -0.8284600892985926 0.8513403363308758 0.6180636322867743
Ni 5.077979729663192 5.748258312096629 0.3851662797114995 1.3803486684201904 0.31680156134163506 -1.0999971223754732
Ni 1.162522747301869 0.43794988791186584 11.911135799958293 0.43498771746677983 -0.14381594087810717 -0.6509174455920016
Ni 6.945147604353778 4.334730701612951 1.0499690386781921 -1.259152007603496 -0.39441236714757877 0.6344549291606041
Ni 8.473682474016867 1.2046998706560754 4.141815962949726 -0.43386723070909156 0.18349320486307108 1.303290392683607
Ni 1.6647756773042555 3.9176177531519243 9.64412524135511 -1.2574813047692923 1.1640227332978146 -2.443053739213425
Ni 6.829522982091336 5.398101196185926 12.249071933020856 0.7314279415432435 0.17451131307943493 0.8984334331639366
Ni 1.620428429173341 1.6838952249059407 5.141729015776208 -0.5056681147014774 -1.6063008137784207 0.7996794176214744
Ni 4.151589007633796 7.156828309943862 2.915612213633419 -2.233346852069463 1.355338776639414 -2.2490051274320106
P 9.74947263908234 8.05667241940301 9.780551257921184 -1.288242240101233 1.6869123540839013 -0.8387969524482265
P 5.810378133829892 8.872293237959239 6.223470739062347 0.5743242824172947 -1.2409545107588629 0.20237744336208374
P 6.5025543977386455 1.5980911103510202 9.010227117085682 0.9512361787872651 -0.5033055280065719 0.18917405729793227
P 0.006501020344017179 0.8400094665317036 6.592210483772222 1.1114105064187374 1.3810780903870472 -2.332183142913087
P 6.06374020151054 3.8592208178890477 5.388295412550482 0.25554939939937277 -2.130452589106383 -0.06356126969141311
P 1.7190942746246982 2.8523016294687977 11.315488931074173 0.3018770788213188 -2.0213118310129574 1.9380294287435331
P 1.5497964800831632 3.735271147991822 4.957413396540687 -1.0452215692964901 1.9465282102431636 0.7828397203563163
P 3.147971776309142 1.276444944092927 7.542947760839614 -0.8480405825336813 1.8961171047804635 0.5938921772468934
