# total energy = -340852.75059609994 ev
CRYSTAL
PRIMVEC
9.45771163213813 0.00000000000000 0.00000000000000
0.00000000000000 9.45771163213813 0.00000000000000
0.00000000000000 0.00000000000000 13.84231697377233
PRIMCOORD
 96 1
Ni 4.516643723777414 6.927225286624516 12.591760939405052 -1.1297488997166092 0.38596115105643203 -0.8330294538368299
Ni 6.692484881767857 1.1345187246329635 5.497518138456375 -0.06040652611251532 0.4818740976056733 0.6561401274435216
Ni 5.857293275318149 3.0739265473691115 9.1353616928206 -3.664737317557818 -1.2100647631585417 -1.5782721897759786
Ni 1.2187869360460508 1.0022526262477756 6.08440414413138 -0.8757509039647563 -1.5332974248375013 -0.6893343548073031
Ni 2.367057173517918 9.490813709655784 1.856475985988905 0.4350270553451475 -0.24589567835969264 1.9117764085842752
Ni 5.728195510358705 5.470822801359341 7.811745480085139 -0.6518384147443742 -0.9924098248120973 -0.024909104536853875
Ni 4.763187352858936 2.7350189056433467 6.350384316565879 -0.571221732232571 0.674398045212445 -1.420448878875186
Ni 8.365799985300054 5.306996318969049 2.9410078668753377 -0.9946153171038482 2.274839314886295 0.023174381233934283
Ni 6.821686681556207 1.1678855315763275 1.3242006993196744 -0.022366026400025996 -3.7427361028307993 -0.08802325938851936
Ni 9.49147574947609 6.724707305593267 7.702681985859291 -0.9259892312950181 -0.126380261900163 -0.7465570838751981
Ni 2.058215597345711 2.5038724312397718 12.149886244427275 0.2653224196257366 -0.4087606654494509 0.3051773468391454
Ni 6.758197062788973 8.524859780984151 7.683164106185533 0.6470754461380921 0.16298042962169995 -0.3310447015242105
Ni -0.010904741611592545 5.182296389958773 5.754583471824884 1.4481810546831315 0.45706578031274187 -0.976295435748738
Ni 5.316974204832215 3.2552592541506074 0.9061197154836538 -0.11720862270322394 -0.8438509699323662 0.20059875419510612
Ni 4.505010738363486 1.0481603589300568 2.230190844152783 0.5454857609190477 -1.042677719828714 -1.392864284388698
Ni 6.7560407045171225 5.352232554119307 1.2239026123146635 -0.49113649674420584 1.0836541622410756 -0.1461805844555418
Ni -0.27315762985777614 9.254266881860866 1.9912729680300012 0.3310909813811137 0.6880387759243313 0.9060986630186783
Ni 6.0202401905186065 0.5689201364942751 13.118004097540133 1.7528364675805361 -0.6174838485239044 -1.1946605127883296
Ni 8.480295043365917 9.35811255653154 13.656331373938121 -0.11278786792770898 -1.7154875946184327 0.5044059601596023
Ni 9.39713507508265 7.451173058125484 12.607264020454249 1.4040750655028527 0.5851275436803859 0.21108217022493325
Ni 2.868410471723053 5.64898717471509 6.547069726780244 0.3195336155608175 -0.29619905459993506 -1.2325521456277804
Ni 9.322428610217107 3.073292880683963 11.581755826861507 -1.305023830434946 0.43635271613510657 0.7543141021127976
Ni 1.2267692447365832 5.843135080875343 1.811903682201296 1.4858099207794992 -0.8337624753481124 -0.1412587216738922
Ni 2.343365605662723 5.870061186138313 4.204091887297985 0.5494516875453311 -0.4342274422619876 -0.7017949491681591
P 8.869347472623915 4.471908747348245 9.952155212664039 2.6877615679126037 1.2350671987401503 3.9363088034170595
P 6.246043057801149 2.8776317406487273 12.775932851244482 2.395019361513017 1.0113501133600258 -0.4519166320116346
P 2.10837930030138 8.415046290219015 6.308899009883235 0.6687609015313257 -0.6189771452399792 0.287667105869524
P 3.5750339450695625 3.6830693860315935 10.15797677239861 -1.5798446764694212 -1.3549189154931762 -3.598751497585312
P 1.300057052844329 0.8563021647768866 14.054104759171878 -1.4090324095081284 -0.2347404330738215 -0.9492530869189651
P 1.2696315942454623 7.455731675173868 9.235428065888506 1.1507180457691084 0.5285632741320961 1.3430481321975192
P 2.7065228202350826 3.9991839425154345 13.65645621573281 0.005229366719739381 2.420512363577799 -0.6013290931409128
P 1.1205685998479689 0.21982464770519028 3.9572134552216234 0.9156927344650164 -1.6026974126978786 -0.638289729525662
Ni 4.283946184651983 5.343701698149093 0.7969606983694484 -0.7894852506972919 0.13277202435911972 -0.5380352181782734
Ni 3.8976743226392654 2.390304228922336 3.847596684860236 0.08651993537011551 0.6041717047960304 1.193491175070577
Ni 4.32633564857493 7.392469041487882 7.47726026435901 -0.23543643069958162 1.1458010680834654 1.350488133415332
Ni 1.5138580839559173 2.0874020957094355 3.0094580554389987 -1.160136767979847 -0.42558545031627354 -0.8291936250305075
Ni 1.8589226960105172 5.040440171890884 8.389191743693768 -0.8470805326132573 0.5318064636597422 2.0123438231863924
Ni 3.425706134743947 0.0916887320275326 8.691673954506362 -2.2785411892179144 -1.9313206492647899 0.31084842908199367
Ni 3.2189038103041527 8.577747304914789 4.081587093177606 -1.895120288084833 1.7597987578309822 -0.5562597116061001
Ni 7.370215045813921 6.558242121633475 9.13929326358204 0.6841803214101894 0.01195357281745038 -0.5216436641941274
Ni 4.389305093197638 2.1403652813338225 12.838264846097355 -2.4353424866120963 0.6632479421328965 -0.2753255535850355
Ni 8.590742200816202 0.9470006743874775 3.9924699129663717 -0.5809965522311478 1.0980325424499346 0.34379583054229174
Ni 1.201999497745464 0.44059412081107274 8.48437131711665 -1.139248097456296 0.015992261663198264 0.14840124625594442
Ni 7.235035972219391 7.956574256946197 11.369165382849904 -1.2178148394176058 -0.739540800458365 -0.04107774387691635
Ni 3.4018821589246913 0.7753394236094642 6.032038685887612 1.9427908546879185 -0.2951395029871691 0.34100798338450944
Ni 2.6602746099309305 4.0803689399082455 2.258553575825814 1.152198744079693 1.3556383101577039 1.4187946311012147
Ni 4.147594354804342 1.4634390227838445 10.511191094641163 -1.4646386860185228 0.38402048239029346 0.36126030587564234
Ni 7.23288907165926 5.433020327619935 5.959339147448765 -0.5360842650994896 0.5898036089998164 0.52651950422919
Ni 0.992217994114298 3.027110874361841 9.607716701125211 1.6794114177211659 -0.7825805531576587 -1.5397280109541933
Ni 8.559276393928284 9.25270635942729 9.642807648914884 0.19176958593925036 -1.131952078015515 -0.5527506700115771
Ni 5.290379119479398 0.8660729267534141 8.346058903629736 2.3151256732101673 0.8138827057050501 -2.7847890876822623
Ni 2.3418712872111778 7.9995595567074185 11.668727052283781 0.006376078729672891 0.04469425758358109 -0.8295471517151843
Ni 0.6604386297108721 7.172038154461526 3.579968979044349 -1.3761377156626364 2.07314269964132 1.023253035445199
Ni 7.610630077701763 3.06962328853713 1.6591956857074381 0.7967077365876601 2.9911689673355197 1.818352547005475
Ni 6.079965640021822 5.896013147094263 11.124862285674528 0.6248423457715045 -0.00887133434770085 0.11708803796495965
Ni 6.296717477189626 0.792733101231216 10.281049029222109 1.9048367440416485 -0.771680104195071 1.860762893650886
P 5.333392792375775 7.041020474023199 9.41504608953541 2.8705130095136435 1.424228400522276 -1.0439046502572797
P 6.250289570362819 2.0593505227519477 3.1559513895625377 -1.097711154554774 -0.01443083071334934 1.2500958109384988
P 5.902860530378559 5.807101199227323 4.370587335935277 0.6767930278071829 1.232821340128767 1.3278467418667323
P 8.10884341561631 0.3176400853840582 11.677821587872426 0.1425085349205933 2.1950695537558196 -0.7653269082835336
P 5.268683128796836 9.036890835719632 6.064637526639421 -0.43051965439309725 -0.783930896537966 0.21905207580428726
P 1.7187783237637018 1.0190589799717997 10.566810005716144 0.27263283724422077 -0.8221799127168357 -0.45455252697258486
P 8.465758540454367 0.8336377044143364 7.11654313941006 0.2865491902149968 -0.22981882740248807 0.7500959502663921
P 9.26717665835681 3.723491645917063 3.5864475115716177 3.4708504281652477 -2.8165815496025104 0.6291507433388713
Ni 9.462818882968609 2.7428404332346625 6.290530242183291 -4.635339559576519 1.0830815775670573 1.511229132183552
Ni 6.042985987201937 7.582833862960678 0.3766826881011874 0.1838251342811931 0.7059897039757971 0.4609280914816255
Ni 6.773461809502859 8.010417009760417 4.596147140026651 -0.25816755374851025 -0.2832702623534089 -0.5297112716936103
Ni 0.6586463933401897 5.157091588228596 13.015778528886864 0.6334126039390189 -0.264887388970847 0.5984877670373757
Ni 3.6198824140393553 2.574909303958481 8.333462177391679 -1.7329317582368091 -0.09743606806198703 0.06090172058137899
Ni 8.225239473737618 2.0667180801807685 9.072365766605081 0.09713936275717464 -1.7688721808871601 -0.0385943153334303
Ni 1.6067044398978114 3.2555524432138845 4.938246759457457 1.6964318635385622 1.3616814310279903 -0.2935477330200171
Ni 9.142183540283257 6.582359286516008 10.567058743534345 1.5011586353214275 -0.6481195711318902 -0.6668140622176
Ni 7.8209412131891725 4.133124055874822 8.393690777158325 -0.15674987533095586 3.3926423550949374 -3.909648263406738
Ni 3.6071523340660656 6.235876017703611 9.741156501534684 -2.7215011262568938 -0.7689436791005144 0.56524931669922
Ni 4.237546650960333 7.1021267494373355 5.261630513168246 1.8796635872101306 -1.2101434389152772 -0.09502231641417183
Ni 2.70028073050078 2.30616842547331 0.966991439647168 0.7029686577612861 -2.108151354506021 -0.711006183353782
Ni 6.962143158289736 3.626956782404899 10.719697698732656 1.843831922223502 0.8831327982511242 4.304090198240671
Ni 5.261788456953947 4.577740541479833 2.903454130954132 -0.6053299867701898 -2.142828594173232 0.1909416907213163
Ni 0.3920902462620247 3.715490421803093 1.3436920974006208 0.3025051993236209 -0.20870492824200831 -0.1569185396983362
Ni 8.682623870162793 2.0786347969462557 13.704738779827641 0.8828790303691052 0.7295397233815952 -0.4450929242215819
Ni 4.78917714466176 6.947181058350847 2.9017507970736047 0.015011128696851565 1.1390606640358383 -1.5335923303701007
Ni 7.881593518440814 4.365140639756512 13.380730817143421 -0.13389148267554363 -0.4477882116655579 -1.168232400503788
Ni 1.3376703723493624 7.8823501353783065 0.6384106733469864 2.01611486019305 0.36048588960346306 -1.8024140213983475
Ni 2.1497284159352765 4.897344993587852 11.112681698752093 -1.3853582058196399 0.4378714667724781 0.43083410030972247
Ni 3.724607655899862 9.550018985014473 13.591715341705198 -1.6064599650641043 -1.5192165212644029 1.6563954164419668
Ni 8.921790484103777 7.042372926798964 1.4011467503201902 -3.7430400072244634 -0.1584074655390369 -0.8872542766186655
Ni 4.504925618958019 4.373728241997037 11.643908125191725 1.64380138182704 0.6756578857614751 4.227165619868474
Ni 7.439019898567031 3.3426012218722523 4.424544527061293 -1.0996975888571836 0.12708757237983273 0.9620093581433691
P 8.592113569015403 7.471809785095558 5.749531162224787 0.35399899632753873 -1.4437736696440555 -0.0007697882864889969
P 4.599550024703017 9.006238392039517 11.751767652715788 -0.08554060217598172 0.2450670118108102 -1.4643743766135426
P 6.607072287236814 3.067287233742626 7.197852978597556 -0.1478677423499776 -0.820801030091438 -2.7415385045237426
P 3.577388915287504 4.247836641310213 4.860716221872729 0.7677357748353423 0.12090844015231438 0.4505830008018757
P 3.741565333011385 7.431529390885867 0.7860814925794962 -1.1398070552835597 0.77674877696723 0.6996501349110144
P 6.990147442688631 8.286005271529884 2.157435505214797 1.0116501610989481 0.6840160279181833 1.0804287133252424
P 7.647259795188058 6.575417326114525 13.116495592521009 -0.9929960363328705 -1.4513579097492166 0.23200375086894884
P 1.7861172312004223 3.2325323728907134 7.3255207375451405 0.19687476837629966 -0.26592071533136785 -0.5599070785507002
