# total energy = -340871.82045568386 ev
CRYSTAL
PRIMVEC
9.18003396131164 0.00000000000000 0.00000000000000

0.00000000000000 9.18003396131164 0.00000000000000

0.00000000000000 0.00000000000000 13.43590763443311

PRIMCOORD
 96 1
Ni 5.002558502268365 8.819882825614194 7.063619324987759 -0.7687755289537663 -0.26856098116769234 -1.6582155003698407
Ni 8.065605338888377 5.188206328155985 10.730372732039825 -1.6630671720351873 -1.9520141730583993 -0.11165478276453028
Ni 7.155891517893204 3.546550042953146 4.770164107672596 0.04670331759380989 -0.5646116831152211 0.002044027013222286
Ni 6.144876022632597 1.331003937478118 8.116188243770113 0.4191294102782846 0.23941315595914248 -0.6525886626468375
Ni 8.499664882548776 5.618951879572632 1.4108775765763224 0.525881613534875 0.7249582746584999 -0.6953767043466411
Ni 4.360819051321429 5.2362179055377895 7.181304605783462 -0.6685688401251776 0.8518694693614685 2.604667113284269
Ni 0.5840117256682087 3.8235392063071054 5.378555249412097 -0.91669932135266 0.14947571026704579 0.17642704204490905
Ni 6.914557606269824 7.395315982462011 0.7473805272445652 0.4506647618824045 0.5688326631751042 0.2134262449770776
Ni 6.8909649191051505 5.361433568154964 3.109055330601298 -0.21553017869395782 -1.1073173101859703 0.555757575158701
Ni -0.0842240571710991 6.034210713772624 12.51655579920599 0.5987057965854528 1.1012793315220066 1.1751476395663825
Ni 2.803132536350211 0.24879911520404613 11.251080779828598 0.4456182005974325 0.18176516642837084 -1.3027818284783046
Ni 2.7353379858789624 3.463222875095661 3.307221968740459 -0.7305712499699031 0.665242603965422 1.8048539982984078
Ni 5.788975287734852 7.250748808349455 9.680383402787928 -0.8455399275990149 1.5414069413185132 -1.0985156527339404
Ni 1.835483521309805 1.6388747349262252 9.37322497597172 0.1914152879236252 0.6902992898237337 0.11587936236883914
Ni 2.5364617311180773 5.752971194715457 4.380481765966571 1.161262396943858 -1.9890403725737615 -0.008354542612282386
Ni 6.534944843766495 5.896455124825899 7.632670349382711 0.6775093371479171 -0.6774244907435946 -1.4658319349956757
Ni 2.7462438661714255 1.3139566144957064 2.4458189942327606 0.13857191887034845 -0.30525885080935816 0.12310724757584605
Ni 1.614676165523082 5.882997195104728 2.0336455694320086 -0.6890813582562325 -1.9977242735010048 1.4484330227929376
Ni 3.026657182176134 1.299130859721019 4.912194838414101 -1.5873206731314922 1.49632033339252 1.9150260258698246
Ni 7.14804258889484 8.40140179950961 7.685124145176574 0.9702741692553224 -0.7615831249703852 -0.504573338975402
Ni 3.878839730618386 5.513363129468325 9.816005551852525 0.6308957510544361 0.006710579250956185 -0.16437962396207173
Ni 8.069800614388086 8.234077321318756 5.045976390678496 0.07078041314767165 -0.17808771757678363 0.5193908636042087
Ni 0.3046945057130969 9.3273734605704 3.453041299479187 0.9592276816331738 -0.03889719128582979 -0.2261238950494041
Ni 0.26811482456715446 7.909003140311662 1.064423096578363 -0.7270956327164768 0.8183150304447906 0.059699986963793965
P 9.118647029417415 4.625194848074509 3.4131237580013085 0.37447629034528407 0.5549787880111474 0.11277038442621223
P -0.15961783971819085 0.29239876828571837 7.388271224434707 1.8214116455467728 -2.779371001990484 -2.3987472039865656
P 7.9140154388299155 9.13280264171622 13.08610346343581 0.8618854588365736 -1.5922301946179676 1.165686751263799
P 1.3728465320682266 1.0810407939734956 0.8594448732733698 -1.5896266955568494 -0.5341176282914221 -0.9629817493589673
P 4.672784143896169 1.5621755515562477 13.488576346397297 0.3854055356632782 0.3860223433116707 -0.48854585319889404
P 0.997429045064608 2.2282420923811537 4.055440633081575 1.5191476156996806 -1.0823583262477876 -1.1486683623289313
P 4.396428402882428 7.360955115513618 1.7747621869709997 0.8093830180624835 0.7307476276467673 0.5138632489177601
P 3.7095690852372947 1.8572585617590673 7.132491611440772 -0.23781315846187429 0.09874295979886864 0.3229372419257277
Ni 5.98760368158 7.357861444083853 3.2497567924317354 0.3070969324593615 1.2937135476284494 0.5048589885366208
Ni 9.073646503160129 4.657196446306436 8.242902087922413 -0.12105036504681732 -1.227664478518176 -0.8746111339333582
Ni 6.311511998279735 2.8906457996734902 13.418938445115673 1.3087578435560816 0.38388215704021633 -1.2207142724525881
Ni 2.4557875930623783 4.038636580997943 8.26567591606176 -0.7286136120229 -1.5900252165468487 -0.45246042033024664
Ni 5.606448673378747 6.315340072422796 11.960497276812657 0.08529403338281438 0.06578193149181574 0.1425923528836512
Ni 4.3335176304546055 8.842465709048083 4.065960951949557 0.12549297419920322 -0.6512648016290913 -0.4230999648902584
Ni 3.716931472438099 6.976642175645186 5.804674981738363 0.8634013812604678 1.0974689566369809 0.05644908412666407
Ni 5.342485978151896 5.262527882741662 5.09904800275492 0.11738191505629461 0.3259552028164451 -1.030287059473845
Ni 8.645342840765196 2.0243627191359317 8.216783055424 -0.3827745257983343 2.929014862404278 1.503758791948436
Ni 5.741652212896763 8.945428969452351 12.714533328646478 -0.6767588321351377 0.3288680055878659 -1.0102378541324537
Ni 1.0804440917689415 3.2151599986116954 1.6930589671132934 0.4814796903807321 -0.03951836980959646 -0.4391922424664307
Ni 1.054896057380115 8.272119381867553 12.250457828090227 -1.3272553881396367 1.3275461799071782 0.8741624764317137
Ni 4.603070966336431 1.7205953968483725 11.07938385148345 0.4060874894926619 -0.15025886828997348 1.072907722357849
Ni 1.085024928693133 4.0747875545599985 11.55197842351395 1.4965265358660549 1.102771856907133 -0.003251159947446014
Ni 3.1420410284690417 9.005714252180137 0.12954037659510353 -0.3796043556004688 1.1898456078981896 0.5641792235634929
Ni 7.769099423428543 1.5915792001898847 11.82513033269093 -2.607738038900109 -1.8006844403017503 -1.9099421835890136
Ni 2.9921127145494157 6.666861931142506 0.39666651150948157 0.06537312608917129 -0.6519212042661675 -2.1283730808695345
Ni 6.392938899116563 0.7172801140366872 5.295319881893775 -1.1135465789251338 0.4395575962256495 -0.6318447452312665
Ni 1.7563149088163654 6.0465394993221 8.886710718514065 -0.6704999957096194 0.9578115180119374 -0.03389562430618034
Ni 4.8514000638039665 0.3296164617888378 1.722228524882067 1.7775884777142354 -0.7172650197793001 1.418535721012873
Ni 8.31364985530451 5.785817356067674 5.170271295893875 -0.9439764119010582 -0.4124825943857284 0.84004393748145
Ni 2.2666788943883467 8.037477714969093 2.203072275389675 1.1607633458202524 1.4027961987904292 2.136638663312436
Ni 8.84841437102579 2.896190540158884 13.145007151059204 -0.2553372833885667 2.1357783721946704 2.5566990700454224
Ni 7.954985930197984 3.511381333020126 2.031065979901552 -1.5925184152823477 -2.6349122853220552 -0.3402896171612462
P 7.226072877182669 4.874928490731226 13.155473307727082 -0.03138879872392659 0.3038912810378702 -0.9354537191420276
P 6.307270822610444 0.4820142048319254 10.220305261563338 -0.30331792503290345 -0.44072307728866034 -0.33214873322166666
P 0.26645507443510275 7.262728752610116 10.546891394156434 2.2054442121219244 -0.7572099356033539 0.5728968059421488
P 6.101160701123581 7.552450623005866 5.579004961986222 -0.9220053069466055 -0.4736573661228359 0.22068601186328446
P 8.293894422316814 7.289773132527285 2.926435079899247 -1.4269907937587616 0.8469946577676704 -0.6878235745897315
P 8.771439786638327 3.0673706325945482 10.607178512891004 -0.43661471154724163 -0.8428952908873161 -1.6459595658206234
P 6.055618552865237 5.152899917714222 9.61034158001399 0.35069281477244124 -0.9490412280184753 0.2660608404536579
P 2.15058818548389 8.618362721085438 4.524582594356183 0.5461866436408143 -1.2480083322818507 0.23053642229480295
Ni 2.261538075395266 6.5618148030392565 11.175961480295602 -0.7149165741517817 -0.5395933066940126 0.19444301900635544
Ni 0.41072756945894834 7.203251312866957 7.158866766885449 0.000912484511940364 0.3777786152456397 -0.7185847670319883
Ni 4.461120101889996 3.2421584783592845 9.055210241046193 0.7253951050856023 -0.8054132347814581 -0.35844751901719557
Ni 8.943491982296031 -0.04536405560036877 9.56937567866288 -0.5860428564058037 1.0733358110342028 0.15619297438622132
Ni 0.8097863978069957 6.996434328768547 4.136392008161543 -0.22607195876554614 0.8749196663127125 0.002822042829827398
Ni 0.9693748614166545 1.6049728696736425 11.833971623355637 0.3225888574473735 -1.0941964565332962 -1.1492046944483756
Ni 7.520430664706108 7.9414086600359015 11.193011557288187 -0.5634639426640231 0.4736969611115197 1.1580780856786055
Ni 2.5142460490408367 -0.4014327851187805 6.824486785497487 -1.0583732761870996 1.4169516643552047 -0.5529897826055766
Ni 5.42433516054887 2.8961997201928003 2.0034955840409827 -0.1349122106305741 -0.23230816948324506 -0.4972976312495951
Ni 3.43918954630301 4.103337460039428 1.1765746529293717 -0.15599628499438295 0.45484126185759727 -0.37503344840033476
Ni 5.470428110842187 3.207054028663678 6.646044368230705 0.5384805332458081 -0.5232066378058731 -0.4061972755976488
Ni 5.585784417033346 5.489981583083725 1.0119683827811097 -1.4775484521016555 -0.6462051277179968 0.2991403966164461
Ni 6.832882844517258 2.62857419143338 9.795716758894295 0.18383284759067695 1.2757880734982803 0.8561161604529643
Ni 4.138396009565453 0.48093830485694505 9.08028183167477 -0.6706218659994643 -0.31268548229073245 0.04133973928905139
Ni 5.445375798284836 3.8673463281552842 11.320209189227873 0.5911480388428528 1.0178434343938536 0.1902148398576208
Ni 2.8486287844389735 2.397723878542318 13.010351659565984 -0.7550237265853126 0.1714604420682531 -0.3038987372370379
Ni 4.79155542270416 2.4459098765685314 4.193387166733756 1.269607398608865 0.7527035630925683 0.677197205224137
Ni 8.557269595373027 1.5444305459962038 5.213978355372366 -0.08192203158678794 0.12615683303544725 1.5651994157524205
Ni 8.155505411029871 0.7998260610079022 1.6912982366081635 -0.5023207954957994 1.095655814687642 -0.8729761694330964
Ni 3.4828865077441944 4.764070401159012 12.281991244592428 -0.1535298257317614 0.3225397493769929 0.035496136024080804
Ni 3.2207689993345032 3.791207126854196 5.836692186027946 -0.8337802159599255 -0.698807584405061 -0.4464604939930698
Ni 1.4346832405278518 2.1049175167507195 6.8065903093778255 0.45824026023681724 -0.8244036598410318 0.32985633764306416
Ni 8.23496778460863 6.654294464711208 9.077554443598261 -0.8095473115544898 1.3301599633809416 -1.6755275092857271
Ni 1.9790500717254937 8.352876140228497 9.1577530558971 -0.11777786494313265 0.19819760095278124 0.5646728753704598
P 1.561386068639453 4.946505215175956 0.0812800202941689 -0.040042874854498776 -0.5419530651754408 0.5258466465318815
P 4.549780869452802 4.514970180842514 3.0374418860209036 1.2678225387943003 1.4319707634718566 1.39845077733754
P 1.4923981137590963 5.24996959634428 6.64155716765246 0.8555253209465008 1.2331123890066247 0.48082765861903
P 6.444034967894217 1.389939755220219 3.077441129800636 0.8106276891028619 -0.6815475117730326 1.0695280072523385
P 7.699918687835946 3.5161457706226416 6.90598896261243 -0.6507971179640535 0.31971539255432035 -0.5016939605450779
P 3.842450076174509 7.72915709585909 11.956573730316865 1.5047152423244343 -1.1473766401007015 -0.10419652671427215
P 3.6944128492416235 7.469288695758872 8.0963033723042 -0.03828604006439213 -1.5665194201154247 1.2100560214077933
P 2.928348198967386 3.307208198689585 10.793642443793772 1.2458426920890997 -0.854540074215096 -1.5961691246610574
