# total energy = -381172.9016294077 ev
CRYSTAL
PRIMVEC
9.16396812172970 0.00000000000000 0.00000000000000

0.00000000000000 9.16396812172970 0.00000000000000

0.00000000000000 0.00000000000000 13.41239365424300

PRIMCOORD
 96 1
Ni 7.009235113749095 3.1857893608566648 12.562543879822446 0.5909909444396982 0.43320080076968615 1.8096984708749024
Ni 0.46126833412069346 5.6191344653049455 6.385640830756902 -1.6960719090959822 -1.3728058230759261 0.5618719155865549
Ni 2.580426792391802 3.1269933415516413 8.243511648685978 -0.3089478696251711 0.5480134124369078 1.8607621223199375
Ni 1.2726277414193516 5.971287431304549 4.060414054700849 -1.5122773709424084 2.5787203115115203 -1.962214510630169
Ni 4.5718486993704035 3.9296836350313233 4.8901316392865635 0.5619503342329741 1.6899549975649668 -0.7219781089842534
Ni 6.711626085857893 1.0379018626040653 5.835317054677634 0.7260980446898979 -0.7924960124991578 0.6431984796811892
Ni 0.4549644404673384 1.9212534032662312 8.981153347428618 0.7815623963057894 0.12105242192934636 0.5549895866444249
Ni 5.545153750864569 3.1683961494101354 9.520599493377734 -1.0542541118124038 0.4031975695393766 0.3322582622163374
Ni 7.25171370957374 8.858560531428491 7.906833875610376 0.07823944052887816 0.5964216285369663 -0.5037750114438226
Ni 9.150909441632491 3.8645644777399424 4.661692242585249 -1.2345907733243642 0.07708810053325434 -2.053047985773974
Ni 6.988423742202694 3.4499682331330406 6.515445689648715 0.31475547744588367 0.4092946835760499 1.0824462579759035
Ni 4.456483505007725 6.569841171473958 7.509505296087085 -2.328396165066829 -0.38677799053077255 0.19645465011974553
Ni 0.1431723391536951 2.5844864302584054 11.661727648762598 0.856555304872912 0.06731867985131633 -1.0765936558498683
Ni 4.40520193954156 0.5318812902857278 0.4624605663700051 -0.5899301072753518 0.672926345762925 -0.8387581287904909
Ni 0.5973037749210918 9.096026436704532 0.29942990835191063 0.22758196765216934 -0.656528878241508 -0.6818874116109547
Ni 7.311013747124053 2.0178049711274735 8.44984847073614 1.44506642031355 0.32964473585289034 -0.313300490166912
Ni 2.8052555856632253 1.1549990469369196 6.912975876470121 -0.45813638766910136 1.1013634065953808 2.003630868793427
Ni 8.661617693073712 6.798207256430502 1.80907726980102 -0.6349069290963582 1.0879106235245843 1.095515689565352
Ni 6.806885534217575 8.598157214007738 0.7382905076838503 0.705963735833868 1.4067112175741192 0.3286533184738985
Ni 3.373201672391428 1.0070101261518776 9.268486817893585 -0.8776836022110949 -0.2468870957386845 0.5705169928560626
Ni 2.5664517410451433 1.1349574487105967 12.13161744406817 -0.9237243465202414 -0.053627041296836674 -0.4188247345536722
Ni 4.594795275483212 5.719369948340848 2.8706276684740604 -0.14030227129789383 -0.11914106383924643 0.6103683205250456
Ni 0.005119908975329918 2.3021903930559025 0.7347064797614385 0.5240728424609102 0.1422964189097872 -2.5648890620553826
Ni 6.753844486876946 2.7585010204365683 4.337326260646852 0.32724075439708805 1.2225071026869527 0.2694495544202327
P 8.70313046854936 5.312407289158056 11.752180595855842 1.7170006888288492 0.032066284406925424 2.326989257416973
Ni 8.093974017292682 8.856581114319718 10.176734110682615 0.6703871242808389 1.4770640562660688 -0.521530792765347
P 8.568163546428975 4.53386405161178 7.972782372014459 -0.13246580597261057 -0.319424857897095 0.8559184426198614
Ni 7.9879743983242895 7.450342718058215 12.548460693652252 2.939494164669047 2.4691936308335865 0.9373414230830437
P 2.741236104543385 8.132141944413227 7.515675395806237 -0.9997552094335751 -0.6707123688307417 2.0020776653736942
P 3.5511292769466563 4.628188775225653 1.3481599156584099 -0.5637241383039453 -1.4379809742216785 1.3256713314819686
P 7.258659997390637 2.082493421918334 10.731001142233666 -0.004471405507792299 -0.6678309335178885 -1.1805004192378639
Ni 3.3924643333295768 0.7158855220855255 2.9483124588189082 -0.8173948326233665 -0.17767634107097788 0.37086620439652257
Ni 2.650045458018402 3.3212419732861473 10.894297555326549 0.5179965543598434 -0.45446588079604955 -0.12508982522351358
Ni 3.02574982202516 8.680889517979956 5.548198021066117 -0.5448730670357131 -2.179760691312891 -3.4543529447308576
Ni 3.7114895546615267 2.6979363552889835 13.40254893499292 -0.44271928178308273 1.7301269417981622 0.7167937365698365
Ni 2.526396036496786 5.365365860785819 5.65587189700568 2.005328053990192 -1.1690988622691414 1.9579091983865957
Ni 6.3202146805343 8.72734167225944 11.427399486162686 1.234300752887771 -1.0843553020731582 1.5261425589602748
Ni 4.952950640585805 7.5116130087492055 12.978918850636814 -0.45586816046021483 -0.22686540120111898 1.598367160753641
Ni 0.6651629586732271 4.551669641622638 10.08538217831914 0.9703839553603094 -0.476702837817379 -1.0879383914387264
Ni 0.7546362775769879 8.59406092026875 8.862574349454613 2.2261624185058824 0.707297367043627 -0.7953239688662561
Ni 5.199488874277055 8.648696498058113 4.689522297296507 0.1389940940094316 -0.055464608726207704 -0.9170597900158721
Ni 6.961857398691898 8.149021973646372 3.257843809203227 0.8576973888971551 -1.4607972007852454 0.2191088971841517
Ni 5.854620953472215 1.143837333795785 3.053921692746405 0.4740530588993578 -0.7301488177205038 -1.343275674827293
Ni 4.845383983072967 8.651271573093137 7.0037779707478265 1.5368211217200436 2.3644180916873925 0.7011418889651925
Ni 1.3985040071883363 4.278794163622998 12.935368008656578 -0.3267291048679921 -1.6307800298667077 -0.6219493404944256
Ni 6.694297022188036 5.832499134488061 12.624657255578283 -2.3868473672251858 -3.3214523652136734 -0.5525776347688226
Ni 0.75403328847626 7.791095707746184 6.488808783583579 0.7477747583323833 0.20512055332485962 1.5034620866436235
Ni 2.2777684180796105 4.037735982853258 3.6141572167184908 2.2023779144917746 -0.11523838635073057 -0.004477833265695514
Ni 8.165636247804729 6.427039056631348 4.785474541644259 1.2729999692301819 1.6467301254380609 -1.7224218598444205
Ni 3.1966761549549143 7.464803459713971 9.592436755680415 0.2904289848853772 1.8754549484454217 -0.945731446918952
Ni 6.178044879490326 5.197078750667762 8.227430717470819 1.772790799215276 -0.9450614174351206 0.7936676642097557
Ni -0.11603324763688902 0.7241303441816492 6.84673230029334 0.12522609369106175 1.0602774351883482 -0.8315847509705032
Ni 7.014568543181065 4.948047917654355 3.0024715102672705 0.6413673400097213 0.5587297704131474 0.6620109844020019
Ni 4.9362172348422 8.312552984322519 2.078907561202303 -1.0455414145297541 -2.190562667024402 1.675472744788392
Ni 0.9861437707968996 6.451690130810044 -0.09007814079810805 0.34777409846374946 1.557684338322298 -0.22767015649060146
Ni 4.52238159958728 1.7262991459883203 4.999751025652943 -0.9179722745278126 -1.0025535981143185 0.5526429407891191
P 3.0985392206130347 7.396980931834221 3.6858597686901597 0.056327728057451384 0.15450581649178555 -1.0051175021867527
Ni 6.2370883259339465 6.413778794796191 1.3556578743546956 0.2630091981115277 0.27528055927971296 0.11242405683038703
P 2.1039645991676594 1.1919664942368673 1.257791277071653 0.40414630660589107 -0.030009144767580574 -1.0191307857467093
Ni 0.5687121944610428 3.059519044459545 6.625735878479735 0.3027646236325947 -0.26712270605926897 1.8078246508909575
P 6.765107003667139 5.099005964102555 5.160270756412687 -2.712268809025348 -1.6002350672003152 0.5956037606213613
P 8.907221202019151 1.4209740569601441 4.380930253642045 -2.3907325612122055 0.09340123587098108 0.1087617774874514
P 2.802149000478624 3.174755943268877 6.136612746933924 -0.09869719416259776 0.17158179813746577 -1.5561853851792684
Ni 1.079460457920194 2.4800263579301682 2.669441912890754 -0.6766809277093507 -0.8066892732804043 0.9996456804389043
Ni 2.722807364701988 5.78716498431631 10.934963580150113 -0.9870501031620807 -2.021200502246074 -1.3599886167065998
Ni 1.722331147802679 1.3940136628212132 4.83841386893902 1.2823623842816883 0.8219315441514554 0.28309928399318335
Ni 6.7876045453432345 6.972011075342454 6.588945295764042 -0.9179439923930385 -0.06075568192181794 -0.2724438611618663
Ni 5.9146449445021245 7.350107235022312 8.987926436248499 0.4093340214544176 1.6629391310977555 0.2374467762613911
Ni 1.7266290488397826 5.903858954052933 8.32096825622523 0.7087770369129471 0.3982777636402561 0.25816343998345215
Ni 8.45506185218605 6.844182884368985 8.425665675327158 0.039585989822738275 -1.1617509065445024 -1.0830574091973413
Ni 0.8352223802210836 6.997633530139344 10.75567970831665 -0.8017183024283742 0.687586518878261 -0.23041223801211286
Ni 7.929398314253574 0.8947524333706106 12.506426488391932 -0.26616162769758034 -0.30600164251265366 0.26955239854668417
Ni 4.468295859883687 3.0227806963620014 2.6429122252523434 -2.1990750753707866 -1.4070395474478152 2.4306700208370913
Ni 4.987095585712133 4.037488555714662 11.735039393531956 -0.3625677118331562 1.4470885929499013 -0.2904297562163256
Ni 7.5416250042641595 4.2973420350496445 10.360040964510295 -1.4101184434834553 -1.5036762595369586 -1.1093793349213217
Ni 4.491499027103189 6.431520237030375 5.133217806195986 1.172769112031877 -0.041894840461573005 0.31434718626387154
Ni 5.220327737727744 1.75371773853206 11.635614005275754 -0.7535265732144958 -0.9758076974790421 0.4614250857227021
Ni 5.125783078879563 2.095130533922952 7.523789173158585 -0.8807051626462382 -0.7676594130714521 -1.0874367692119595
Ni 5.647918489095015 3.9632329222313993 1.2384534715951163 2.158915472432766 1.5854563662292436 -3.330553299073677
Ni 5.059967460012873 6.5020827913708805 10.920384623305916 0.3544306845483186 -1.2667992397361085 0.023693229851881777
Ni 3.3988057992521257 5.430338394587661 12.910957946838812 1.45453219371214 0.03923117758648082 -0.28898351068810235
Ni 5.619464368156408 0.7748657371492822 9.481462018432612 0.6108015514077223 -1.325274610264182 -0.3904130161801985
Ni 8.440225387838353 4.898388374541212 0.6077479493602961 -0.9482128185799088 -1.8265517949868157 -0.2985510997718794
Ni 1.36292031907091 8.019883335235152 2.252785608255833 1.1182951493537128 0.7798089039497925 0.5562465989799774
Ni 7.586665907456833 6.612792689940705 10.472812755901757 -1.4120020336594132 -0.02212048604812319 -0.23423829662642237
Ni 0.3894548981350609 8.248533503202678 4.373365397978658 -0.3830313790041468 1.80053171677397 -1.073821235311054
Ni 2.6808363908215314 7.894960122148169 12.19688230845228 -0.27126578169336507 -0.2454087114209451 0.24483432697471383
Ni 4.301245885458613 4.40711720887366 7.126434018127817 0.13018343769633708 -0.7680628191574579 0.8587844513137467
P 6.257927189384636 1.6803601739222227 0.7335454050036537 0.39807053272545634 0.45842717943664274 0.061877197120770853
Ni 7.568072216189705 2.8439275310290606 2.2230100431177595 -0.08434195388219022 -0.3449335436911608 -0.7362557019491901
P 4.195411217915951 4.854593771009618 9.644811582540454 -0.2331589475193146 -0.21817661517786943 -0.6919203703669244
Ni 8.38774334255159 0.5592302366719362 2.3946887378282087 0.5955996468563033 -0.1730334429823278 0.056024080774103514
P 4.418966219622007 8.64260245927416 11.070120196410087 -3.8586270351638645 1.2554658170011606 -1.0139153029840409
P 0.7695973718907942 0.036655872384678136 11.308727015714101 0.5014512484066525 0.2630783607865663 0.4283879527620751
P 0.21640985578147237 4.708657579078118 2.5513192805279385 -0.17583286010433588 -0.33253799824028535 0.11096007069035083
Ni 3.0495486471709126 6.788860008972409 1.238198713282043 0.4305103984217166 0.9515621946681162 0.6738167187876782
