# total energy = -381171.217798362 ev
CRYSTAL
PRIMVEC
9.16307218022552 0.00000000000000 0.00000000000000
0.00000000000000 9.16307218022552 0.00000000000000
0.00000000000000 0.00000000000000 13.41108235329035
PRIMCOORD
 96 1
Ni 4.044085262808611 5.987215516433787 4.656019048255954 -0.49834792689098045 -1.9548251601446336 1.3314611986908682
Ni 0.5920618307690323 6.939029641121095 13.16191754190273 -0.6151042925481343 -0.7054554287388818 -0.664916845194887
Ni 3.8135973447110465 0.8400988647424202 0.7179285394182959 -0.4108620280631698 0.3938873478820442 1.2866319581913195
Ni 9.020192414354355 0.18632099379041392 12.655488286063688 0.4421446402265353 -0.5628170531086435 -0.8935406238480095
Ni 0.9905555939453384 0.1485407308060747 3.8450376780407898 -1.8767122178912903 0.24766254045212832 0.26574768008861327
Ni 8.381388835990208 2.148932855218215 0.27961023185001904 -0.7603199419872454 1.6497174902011587 0.15641768880251772
Ni 8.369330232976118 0.33238952771715635 1.6841231896149589 0.0013500862699912233 -0.09250597775022135 0.6961534346116656
Ni 1.010466949834104 7.369749012914612 5.293086224438358 -0.3729829936292093 -0.3773546403343437 1.0078485279646707
Ni 2.102054577847334 4.927350444374034 11.383567731942192 -2.930987669859933 -1.195546514937709 0.418502318217247
Ni 6.000914309371526 4.224093816161027 1.6171484622968892 1.250462193138982 -0.5420908763048857 -0.05120969010459568
Ni 6.153296200043486 5.459715776072787 9.7061097610449 -0.04642486712144263 -0.21924953652707405 -0.9387329041139317
Ni 5.294157387578441 2.6251652066249394 0.052092065452200666 1.4856186307042993 -1.5281930137314004 -1.2024658677653615
Ni 1.349729698007847 0.996117578770226 1.4943697089787413 0.9773249054545169 2.3791520554634573 -1.4370831449977572
Ni 8.418673376768574 2.994070493362951 11.467561949562972 0.11572175374505231 0.3915640990655063 0.12269098597403384
Ni 3.105530103593482 2.5572393524125974 11.454674088514862 1.6280855137536798 0.6576642773975319 -1.0508607698601384
Ni 1.463351793277379 2.286580525793933 12.773788129690889 -1.6264801169397731 -0.02002272297883003 1.0230082664242446
Ni 3.269411649875383 7.911598124339491 7.990738662616379 -0.02980988427258092 1.3556005149412331 1.0333538713246269
Ni 8.463361679883855 4.7726044810746915 1.4970123390009777 0.44661990238906957 0.12562975688738365 -0.3625808244592788
Ni 8.2946420314808 1.311327262421185 9.469082158318797 -0.30760986754003794 0.3749429455690575 -0.05689568474577943
Ni 2.895659097944018 1.6339956868422572 5.3434583812387775 0.33953217016993137 -1.66671968118611 -0.7477770723252283
Ni 6.490451441611424 1.66544335062976 1.9074987310715388 2.247066772758717 0.895740973933438 0.11865281134891824
Ni 7.881250029215887 3.5387143418085723 5.867643838385344 0.48260943310980103 -2.8038738722278547 0.15906823905148734
Ni 3.8770058043292046 7.9320592645602055 5.714126643067908 -0.2669722965243338 1.6001335086254442 0.18949390253119622
Ni 1.6133146328887624 7.40840801452285 11.011973999820947 -1.3143638768889492 0.30952971027057014 -0.9219546562143283
P 8.854404949055029 2.3695338184128905 7.642453037248128 0.7179975270699506 0.9976165658240174 -0.23870635970010504
Ni 3.692635628609991 3.3668425965690068 6.698875598160641 0.7047077519395799 1.812934204203381 0.29867836937836306
P 5.426417171701055 6.487968249045452 11.371055556854246 -0.4809173901193588 0.29122371287253074 1.9854277155218383
Ni 0.6118219959665118 1.7901619263324693 5.561066685053209 -0.6162072958043258 1.9408517286836768 -1.0291002382545953
P 1.9805430774143291 9.073118319376679 6.574299966384238 1.3067323284856205 -0.10897517904983814 -0.5528725403014221
P 2.759798226447135 2.9562544943970352 1.0595855983576785 0.45392440647028276 -0.014430059382400953 0.6195476730314685
P 7.232083016194495 3.3936720719681355 3.5009496560469717 0.139040888086967 0.5965632963211532 -0.5528640556609897
Ni 7.931500317156057 7.3416641966242 1.3258452340135276 0.9327237218053742 -1.211756806148984 -0.16653883639691963
Ni 5.783382975363567 4.477626860839468 4.806397891345179 1.5191702414074997 -1.0176711704820476 -0.3285841557988599
Ni 2.647220721408307 5.878092489614041 7.014184242991351 0.8887612001814951 -0.7687462183777277 -0.607821899954108
Ni 8.998109410354388 0.037898466615708344 6.699251284120806 -1.7436373175797713 1.0847036865515125 0.2628826998359924
Ni 6.44218037726627 8.80684860434141 5.879767499212047 0.8561033049371579 1.3663556965752082 2.2715645007897654
Ni 8.52484589434019 8.169007148558176 10.114035074435797 -0.21619660863336315 -0.02919076263134328 0.27679211082823296
Ni 4.767775542025737 0.9054379836729404 11.993075135871196 -2.6063285601470922 2.074774578817788 -0.7564933691523036
Ni 5.542045979782202 6.967590937165864 7.505874697198051 0.0860288546663099 1.9235970553682873 -0.14732421114168176
Ni 7.752288951084968 8.196899540332405 3.6359858510459304 0.6695098638822082 -0.10684167764660309 0.7832696088048833
Ni 3.6642301047926082 7.390017728619145 1.3058715692338076 -1.306827459302588 2.5398686287516457 0.06109532464942382
Ni 3.0522834910441876 0.20819599605145855 3.1217643186087263 1.7885776297358875 -0.482815121362704 -0.8612303417510779
Ni 4.270807158232323 4.47380585973242 13.219370920898657 -1.214757797758837 0.918662872836934 0.9504957010768146
Ni 2.2093541532994485 5.500537262720026 0.7642964336676841 -0.7743041720814794 -0.913774177286065 -0.8056600606849416
Ni 8.135571098103457 6.264251841303064 8.645936809759254 0.18334716620351002 -1.591565307340459 1.5479455137679794
Ni 8.534961926048059 5.688444384308114 11.13373290320333 0.6836643010057193 -0.2743122818291727 -0.8655076289701933
Ni 1.436595622455844 4.502981081614532 5.355166038587639 1.558078488436923 -0.6219454838396837 -1.456593190006227
Ni 6.7447083689935985 5.058455681399556 6.9522244650878795 -0.38691965831495945 0.16551373756651497 0.9242537366611502
Ni 8.500435470001639 5.225159453918797 4.680199479482305 -0.8152636452129767 0.9492325180936748 -0.19564089596919856
Ni 5.954503348682802 8.058418030186564 9.968269838198845 0.5840705631707812 -1.029385630705498 -1.854714887684593
Ni 5.252098886184315 8.217443148202912 13.078943174217713 -3.34865515088071 -1.5225067619799004 -0.980842174579156
Ni 3.795738516994892 8.265631744898274 10.789390147802376 -0.03689224504065904 0.822706474644267 0.4107676685771506
Ni 7.587115411622986 3.6454366437121397 9.179282590183316 -0.28273727266807436 0.27888524591183583 -1.0153137259934644
Ni 2.4154682993472587 7.144713122775546 3.628314527000797 -0.018362304557271603 -0.376735518693106 -1.7923124141879714
Ni 7.314174980026732 7.439727395299565 12.3764040145579 0.3682251672292497 -0.4914159756578375 -0.7351164461384243
Ni 4.6667984863910394 2.6271261040755585 2.328070000404491 -4.100342356893623 0.0569638189795535 1.6752367175181857
P 1.5808865203759501 0.6464171750544244 11.012281879046839 0.14665598143006356 -0.3528034333575408 -0.013234753522719142
Ni 3.3775542279698203 6.313879040333692 9.744157585737453 0.525237809303289 -0.04655959292709401 -1.6630964826112262
P 4.760884911731971 7.48211576729286 3.3888999439668144 -0.3312339347168812 0.08147363119545968 -0.7779407403928021
Ni 5.988663281841253 8.696928390240336 2.0252478740595703 -0.7779744218442151 -1.3016477148738614 -0.31220237200672685
P 0.14130465269040135 6.478026315709369 3.280873736889307 0.6098106482493627 1.5705182568621727 -1.8665514753082049
P 4.649351996923847 5.146732718966223 7.974591496787028 -1.0729246916387134 -1.6379978877713854 0.2500554661643371
P 7.418753123035698 8.245308050760546 8.047521304727328 -0.5751380365678418 1.123558197524865 1.3974645021648706
Ni 9.066557559682082 2.680152802892073 2.562509035234332 -0.526425658963803 -0.3437400376036919 0.8671598198616355
Ni 7.550472285898563 1.4090514274251815 4.476256981545695 -0.10932742018293429 -0.014061877409704814 -0.27718780360475487
Ni 6.9582537665949244 4.8232487811194265 12.85450929792213 -0.17343710617864969 -0.2932325157724434 -0.5101150947292376
Ni 1.1453748618222745 0.2529108720761189 8.7468286488225 0.40006673721987873 -0.056298674591728846 1.7949830190415992
Ni 5.357052715153445 2.9098068814195144 8.451302160562546 -1.2236566429103635 2.3759371480705855 0.7717235558384967
Ni 4.215883703470583 0.9845079662938956 7.2803265913230515 0.8942309650468148 -0.6183163717275286 -0.14527195659834338
Ni 2.3898666756228177 8.649995134436262 12.842948249728456 -0.2744665480188499 0.9385259303094483 0.4076664039440076
Ni 4.062145678113148 5.505292897191389 2.3167646019251724 0.1965148139337196 -2.36773224366229 1.2004187554283454
Ni 3.2924751026006582 1.1529985378919723 9.563429731217404 0.4550834597753904 0.0355257037104356 -0.28172991444948253
Ni 1.5014060321204727 4.7880717469468665 2.7163881719036342 -0.046266230056391286 -0.5618994263903807 1.855485190191714
Ni 4.2676825506124105 4.643725870593565 10.954346522453235 1.7356735826480045 -1.1989169740718384 -0.19536218838651517
Ni 5.664886125684084 6.465683657457106 0.8713797606158983 1.1280632844840701 -1.7868789018772258 -0.4643060068149229
Ni 5.183238398607659 0.36087477026267195 4.145539714504884 0.22062147717393618 0.5261263825558294 -0.8902151590192023
Ni 2.111520031429062 2.2966415790686066 3.286211226445316 -0.11719371030488848 1.5752886816676224 -0.8397801422971021
Ni 0.8783262856500782 7.323631270536262 7.7659016111440335 1.6191270190088116 -1.044737173460904 1.47653003813947
Ni 6.253961711223411 6.873687773268915 5.006504727259222 -0.4633405575778601 -1.9308884468233776 -0.26217256114284526
Ni 2.6347222909286585 4.127001903138772 8.867354202686876 2.0643294722250642 -0.016839954375474225 -0.3381643432881273
Ni 6.076582959592153 3.051568771412654 10.896759362603202 -0.511281604233513 -0.3407621859222905 0.46271732217156436
Ni 6.850761766626627 5.90393235321566 2.8152678003119442 0.004595332680166279 0.7886774100840159 1.9963150518583037
Ni 1.2866327828444604 8.066344087638834 1.7288628059345568 -0.5160767116293112 -2.618723591377335 0.1250096068048815
Ni 3.684572125074734 3.722012438080484 4.33585672408135 -0.7595370410746338 -0.19152815935240564 -0.5698726744038443
Ni 0.6224511597175325 3.595800281609313 9.5632684611467 -0.011975941414953568 -0.45168446139617047 0.6567980727424947
Ni 6.672036043382094 0.6399590417684595 11.136723729969134 3.3432455498293647 0.7024048148380161 -0.35806571019774464
Ni 3.3004469754139243 6.482012252116001 12.470174313907961 2.0573476415905922 1.535878041080484 -0.5418566488068925
Ni 8.21247676307097 7.087957053573974 6.551822950279709 -2.077542114260596 -2.2917905980286526 -3.178471775752668
P 0.1772962839814654 4.58332289865673 12.913812701195067 -0.15111041765699137 -0.3741785565992072 -0.40335877770758916
Ni 0.4440617212227078 4.6095292851463165 7.300926093933973 -0.7652888559567466 0.23919564063169774 1.303906171890735
P 6.715221602656714 0.33765737792445105 13.299233509264837 3.006153356559494 2.500215276026081 1.4133279515596884
Ni 6.8024540499926776 1.7382439592520527 7.130498448872994 0.014825752158922853 -0.7515427100152475 -0.5902119001818288
P 5.075169125090816 2.0834810304996454 5.3514779020274785 0.3690908576636546 1.0752944774224706 1.0769361267909516
P 5.60100118631157 0.9872293987370448 9.135911020543054 -0.45806773921469496 -0.7291265471035766 0.6497272819386423
P 1.260032384250311 5.832460390062246 9.457414818487612 -1.2815655994120059 -0.6031237231474903 -0.5711592544257519
Ni 1.9534936882824212 2.045417628584352 7.529344074021749 -0.41871469133836925 0.8854365066836364 0.738371205630296
