# total energy = -381169.957504887 ev
CRYSTAL
PRIMVEC
9.26620662504820 0.00000000000000 0.00000000000000
0.00000000000000 9.26620662504820 0.00000000000000
0.00000000000000 0.00000000000000 13.56203003828573
PRIMCOORD
 96 1
Ni 0.021549490348857732 2.624013685276867 11.693928788950615 -2.028551029073874 1.2092191273287949 2.6821352228647615
Ni 4.097396151053643 5.627339542651468 0.13698418718835295 -0.6159859238221391 0.8715859739537892 -0.12594240303179602
Ni 2.146072008847673 2.0807823162960513 11.183561875344882 4.393444517735788 -0.19828424712931658 1.2014906483362855
Ni 7.695167701952463 4.239169113875076 0.05639784058276904 1.7401185057932356 1.6088449203565132 -0.01127583002413542
Ni 5.884291455006913 6.766879112707293 5.526879962492739 -0.33909276863966764 0.6802352207195124 0.8930955658907909
Ni 3.2627703793378227 3.3264199532999417 13.416726961157172 2.0157885872018837 -1.3396457913841895 -0.0678249300637735
Ni 9.259229266694634 8.939545134842385 8.935235422096747 -1.2377146636653265 1.4998705126376233 -0.1062554661258299
Ni 2.9864428287301146 7.2482770842431785 7.97991174812427 0.22094517906194203 -0.06209856910295756 0.8742246971282169
Ni 2.3481401787984555 3.9442813512064965 4.408296845555669 0.38068550447978955 -0.4868558670909809 0.12573851455110602
Ni 1.1767248576246094 3.6926389753018145 0.4822588021402071 -2.1342971596634537 -0.2779269957636246 0.7634620871606529
Ni 2.786589282185496 4.559057102275173 11.63342787203207 -0.8438273157832823 0.4605527104200778 0.03792531429086372
Ni 5.4453049116300924 0.3788497883823887 7.21818693116017 1.7728201097913145 -0.823098567876363 1.1953799074528573
Ni 0.08432433439657512 6.096218868908154 1.0665135215133785 1.0099118382516026 -0.833587383222829 -0.15878747458627493
Ni 7.02855679049012 5.7475037114010314 3.672285752240554 -0.14463535145560896 -1.4696410243291207 1.115278474014576
Ni 0.8610659659716823 0.21124727432796656 11.766674998050105 0.7146136981993821 -0.398439743139417 1.1901736806615695
Ni 1.6289157455779366 0.47737365795723596 2.979686837410303 -0.033780438884554724 -0.1341115691061497 -0.18256580795279526
Ni 1.8727189105971986 8.07848287535339 4.847124010176899 0.14356320143735277 -1.4074036156554537 -1.0899302250577745
Ni 4.713191184861559 4.167921250402266 1.8288943859132794 1.8117841497593377 -0.9078894363705139 -1.0558913903055107
Ni 4.990667745102591 1.6191028326610806 0.6797652185225591 -1.181423188162449 0.3674001002247931 -1.1939604013975114
Ni 6.233423591816451 4.482008593395421 6.008697693193057 0.4245750067738882 -0.5760368942330273 1.1019663302867022
Ni 8.487085526894168 4.183191959077411 2.5900354318539964 -0.49871585175336053 -0.35165929245076855 -0.8903072045123764
Ni 7.386102643001739 4.282368169605371 11.150077510740207 -0.08355365365293999 -0.6635775575581733 0.4618012381151982
Ni 9.180373847504413 3.7184916920516047 4.998977679289406 -0.33730045262593517 -0.6769177263105052 -0.4865429638362524
Ni 8.202835369540555 5.993604895686942 10.066132401144497 1.8330600284189784 1.140289651346933 -0.2743315651028824
P 5.609529893334945 1.8796870980509057 5.749012249855106 -1.5469600099262584 -0.138850883563348 0.822138517955939
Ni 3.4867067971486434 0.18911864605908663 12.191221084873925 -0.051714140544839964 0.6136819582793108 -0.25054911797130397
P 1.380090296516242 3.769483627633719 10.101813783362568 -1.2075353118684686 1.2320746917707295 0.26089806530579585
Ni 4.960849091876489 3.6617639745095913 10.377991221421407 0.016630152357513295 -0.16142002711311554 -0.22827616550571656
P 6.322907350114921 3.50907542017158 2.9152802143591314 0.844076712789927 0.026501645834954356 0.3177680390199625
P 6.206403333019896 5.87585920689139 0.6133348559236617 0.24895451979067446 -0.02406629692058436 0.41609473721701895
P 0.6377818891139744 7.207172191231684 9.521236821436705 2.271051822819405 -2.415304851234931 0.6372389196636444
Ni 8.013665759344507 0.11135107953783474 11.049135161211346 -0.0753412930454767 -0.06815377415810198 -0.31146960760576037
Ni 4.587319032772257 0.9885004005140372 9.757161857502322 0.24178448440479647 1.2635444802442368 0.13890924760510917
Ni 0.8009625693214433 5.770706293028802 3.7959442075443643 -0.5304180679526478 0.4766028219044049 -1.0775169389950863
Ni 2.728990541211769 4.889249112548305 2.2363925056129896 -1.8520784785030104 0.6695738843509242 -0.19146928109001218
Ni 2.9811332922793503 2.435270320589954 2.0012133991883623 -0.3902955167657278 1.2027756856962963 1.4903522887345428
Ni 3.493359933573858 5.760865581491784 6.165922982341353 0.03447103719367612 1.1454375140964597 -0.7669929831320468
Ni 2.370147419759299 8.851432775138528 10.126659263441855 -0.12062459036330839 -0.4378233871433621 -0.9813101153545101
Ni 6.047710276727095 5.914971865458009 9.84456905887476 -1.3034575143890907 0.6484216757533413 -0.26630278126113494
Ni 3.9537050834410974 3.505498664377523 6.267719676129829 -0.9477636468576324 -1.5127532821375622 0.18081051582458538
Ni 6.989379268476458 0.47003760209673084 13.528368999586025 1.6142689195855617 -1.5049682388755048 -0.931683453466318
Ni 3.710708078406506 5.792602339509 10.04050022011465 -0.7782096777834726 0.42068338502896585 -1.0674238164251424
Ni 1.9296875495139414 0.9830240723423074 0.7697799304661044 -1.2307130355365128 -0.2295789434775401 -2.344462474501072
Ni 4.098257908278637 8.385370375724829 6.1835806658676615 -1.3927794379843756 -1.4784647932683377 -0.8707439376684682
Ni 6.933893222634972 8.470591678931935 9.116207219207299 -0.7934146676586853 -2.0390082198514556 -0.19473175389136785
Ni 8.907039281667378 6.478894674045378 7.648442854565072 0.7927641785588798 1.2294951039690114 1.797714559040149
Ni 5.680444173365823 4.10250183095656 12.712518415926988 -1.8333914436164682 -0.9310512191989578 0.07254907501232022
Ni 5.008690517173683 6.8805754691660495 2.794591578309195 0.541435244998758 0.29949932261776163 -0.6255522273543355
Ni 0.08066788922472302 3.827740269284591 8.18753315576256 -0.25570083737557253 -0.7271126019973413 -0.04857019559921958
Ni 2.6061577049267424 1.2366216178649847 5.870609900784309 -0.2207862848865746 -0.45696293618629036 -0.8787076726002351
Ni 1.2375389723302999 8.380338825475677 6.944831053047679 0.10894972512854141 -0.5622390691179866 0.05910246258911112
Ni 7.753174156021885 2.9067163861081795 6.74416671341503 0.08255580851604491 -1.1927848930321716 0.9353490752433633
Ni 4.716934732376584 4.899775523382629 8.103177316263137 -0.17010264248877802 0.22890120068422515 -0.5039030523812547
Ni 3.043411467646857 0.598312481588622 8.013654639896442 -0.10737595288351831 -0.13239201531188166 0.40295125785652536
Ni 6.329532687919975 8.939619264496148 4.6692582455590115 -0.05679026951616671 0.9311802885776542 0.461068987934864
Ni 8.125796126867524 8.95324985458179 6.685728454112439 -1.0414736722182838 0.218659725461875 0.3453667745738374
P 4.680184956523655 1.9408533286119694 11.724592520229614 -1.2000032651574817 0.8257002671652682 1.3432628193114864
Ni 4.780936422194076 4.727896654926763 4.345965852809856 -0.5596916201057844 0.48832011034133316 -2.032991838454047
P 5.385704670004769 7.027213190515668 7.908291383141301 -0.0037828640811999373 0.22535359254228285 -0.847239683898941
Ni 0.2244599584905208 0.6738209469114513 4.721932924281543 -1.2850458446511224 0.1317240427105796 1.1216386119046489
P 1.956503951762649 5.731992081351158 13.53725251196883 -0.4695744543027139 0.28234003722965567 -0.11687926438826324
P 3.7529527148446054 0.26467158917417366 1.8832638538449626 0.3415085771700118 -0.7934748314726593 -0.008473327578333795
P 8.063480886673135 5.6142556587623265 6.068614839088217 -0.9774568030466907 -2.206753417851651 -1.4832064217183811
Ni 6.8771099078526365 3.966612909402552 8.780953080202835 0.9028320764522645 -0.1837757691004964 0.05912894495167237
Ni 0.17317984387940386 5.2193206621340735 12.067657144878664 -0.25669662562993856 -1.2250041580771935 0.41563399553051644
Ni 7.4434048653604155 7.0808367288063625 1.9315583966507812 -1.04479322350982 1.1893640402760806 -0.24354106208458703
Ni 4.194209478867913 7.100064107751099 11.850854779621843 -0.6122118014916875 0.7748106794042527 0.31951150407363044
Ni 0.5105337053266986 1.1959059055357446 7.353359574934694 0.3845825255413506 2.934118759289747 -0.678938870505592
Ni 5.763172866965152 9.162925580249984 11.631475482276093 -0.4237584244098637 -1.5724239585253177 -0.22096574788723236
Ni 1.5554625249056822 6.8830588125671035 11.42853258241091 1.5322165330684965 1.025254125035628 -0.06731250920372923
Ni 7.304884341097828 1.322389627268591 8.5977573934794 0.7955535683785588 1.350761441681377 0.3137586607502532
Ni 6.719111817063862 2.02386000841291 11.300330905952107 0.7659624849850034 0.7528254333824133 -0.2484924925525914
Ni 5.214353975331963 2.480906388687703 7.952828479122015 0.5911043300891111 0.8020193786085607 0.17506435736942755
Ni 3.7211881582072284 0.10769185450396652 4.066018921857177 1.2189229848801202 -0.8348577652948203 -0.7981678660729544
Ni 7.138620793914496 2.342413663045276 1.0598084943305297 -0.8827972692885764 2.206558014011393 1.2658196494316587
Ni 1.9344874445950855 5.132292448616499 8.417531526009839 0.3561294124069802 1.5755727885669446 -0.13086812246818752
Ni 4.610503081986584 7.981215503409823 9.65441630414568 -0.19900235624226373 0.2320073504133746 0.4969816426710732
Ni 9.140621820674088 8.534704563230072 1.0311064190142298 1.0956966952279066 -0.32702452462122383 -0.7974474429671621
Ni 4.330255925936166 2.3707867880230036 3.876827999385672 1.4859238206495442 0.24430647949570186 0.8918084716482513
Ni 3.082088614497619 3.214549039565095 8.96043301803141 0.5910066281689822 -1.278073012877715 -0.6104534240396842
Ni 0.511873598818462 1.7780831413622125 9.797929460589195 -1.3797665706644753 -0.9018257466749372 -3.447161312078425
Ni 2.3777827740968718 8.091455564761889 0.05828907337439351 -0.11543790395604636 -1.9081676081870944 -0.1560129971649313
Ni 6.034441068703547 0.014345941244453706 2.267191523510106 0.5222633000559974 0.9851534003600001 1.5735745271899932
Ni 8.553375969771587 1.0681341810687686 2.110686218623981 0.9338904884199657 0.9618568917259047 2.1079392384952147
Ni 6.4303953480710385 6.525976270391502 12.13503358718371 1.0378687284758448 0.4832799768142645 0.11620820646316761
Ni 2.2046066367001558 7.2242868750441795 2.3014764883754197 0.2433834534608002 0.8636461502814222 0.03867479086237856
Ni 7.150166487488058 2.4365675895308043 4.57295363249369 1.0698272836603122 -0.5292471875729982 -2.151704299396307
Ni 8.316596589446354 7.343190839679775 4.9477401892292034 0.738075271656432 1.4314089774311154 -0.8546686293731602
P 1.5884038897965442 3.0279924996641863 6.287750435197221 -0.4595677207989891 0.7403504408438539 1.2665984365792122
Ni 5.219848835917134 8.258469674689566 0.5232172890855206 -1.4147106908398281 -1.683154943923998 -1.5746137670877849
P 9.160859216151344 1.2713791592730366 13.449912953905452 -0.6158087748143266 0.337905947420418 0.2579443819941106
Ni 1.1267429385750143 5.409324230934954 6.028878564809318 0.27303007268263946 0.3609767131969525 1.5652420960648978
P 0.1348325739878865 7.749625198847989 2.9759432898952802 0.32463648400502154 0.2946864746101505 1.1332700254959902
P 3.3698043331646437 6.393979155660044 4.009030823906322 -1.3428193040161647 -0.009044883811087649 0.8223673461372933
P 0.9010885660382398 2.9951252644270867 3.0022268852575666 1.044636900437614 -1.054972735145983 -0.6133047774455503
Ni 8.821586323292264 7.615116942095315 12.585550071582666 -0.8785742323461644 -0.817423886089089 -0.9996860467585365
