# total energy = -340860.5540291413 ev
CRYSTAL
PRIMVEC
9.31614105669857 0.00000000000000 0.00000000000000

0.00000000000000 9.31614105669857 0.00000000000000

0.00000000000000 0.00000000000000 13.63511412645030

PRIMCOORD
 96 1
Ni 2.3972014382810665 5.035635030064816 6.906048757589851 -0.996076217920091 -0.69190340108606 -1.4763814283767476
Ni 7.1990944921590305 2.886410631327058 4.582475576000595 0.10729367758235715 -0.4454899025496844 2.531582477483453
Ni 5.673352825836777 1.9907475252058917 12.669311659639433 1.5958271679406064 1.844329430685211 -0.8690205272194582
Ni 8.149284971202542 4.510325790875976 9.278081709507171 -0.6208435090247566 -0.31460275391810333 0.03722057491435525
Ni 4.684314039073092 1.1197442441531436 8.506402465087188 -1.1166087627902255 -0.13213284811322407 0.12365694943172896
Ni 4.167836501495458 3.8752817275538205 8.014501838923605 -0.30908928029904187 -0.19753785588159528 0.7130934049001137
Ni 2.363467691937001 1.1219894341197052 3.5349575093277794 0.009613611830364088 -1.359947479056019 -2.0648935722586503
Ni 5.41402872662844 7.959552444816675 1.896590220338499 -1.2174080908974902 -0.5654187523975488 -0.6197117094131586
Ni 1.8208863274452358 4.896125819486972 11.647359878548507 0.16137503280779303 1.2343904843881 1.2442470654672055
Ni 0.23140548803907654 1.7658931474758863 9.335975935765266 -0.7873512350734246 1.5036819159639134 -1.0482433868419496
Ni 7.94465593545347 3.143452276005073 7.059430633641582 2.190013222278835 0.6549697612845042 1.269991007200529
Ni 1.451762191117001 7.158923292425364 7.697430708484028 -0.4974853217803691 2.147347050868876 -0.42976966360095015
Ni 2.41629021106731 0.5686702855803926 5.655150018053936 0.18525132520475837 0.35074475105629915 0.5088351995755495
Ni 7.148787331082547 0.4358332951438413 6.915171122798386 0.9314165729581766 0.7165073156776692 -0.8348870758708589
Ni 0.9173194073504982 7.802500940848641 10.600087757996508 -3.2256060102363096 2.076543497792753 -1.504320320878861
Ni 6.478015867255147 5.075918023489764 11.591483528418035 1.9119527862611396 -0.10485395779261296 1.7618594970147528
Ni 2.625828853091808 8.450708711319145 12.272611746128533 0.8995948004618893 -0.22415648691038814 -0.39722772510918686
Ni 7.15954747386835 8.687776549821608 2.962828140616331 1.4420780271091873 -1.5994539660599163 0.9328738742299933
Ni 5.43589370941483 9.187242814042637 13.192109267230824 -2.1192996578133565 -0.8810913423410632 0.9040176121199334
Ni 1.227671736944083 5.3539303014239215 3.943806602238651 -0.07118176235114837 0.2594325365038629 1.2526805409465394
Ni 0.18122595809347128 1.691624871901491 5.802068355521432 -0.18874314040810075 0.037207719398548826 0.7695885117733648
Ni 0.07900646485652486 9.140550315650907 4.470217940900702 -0.7482396137839437 -1.021401326948441 -0.10736232603676349
Ni 9.202651711157545 5.473829035322876 7.201249315558473 -0.4443131086327638 -0.13144122136283815 -0.1882816273906499
Ni 5.848477643228583 4.178932025355105 3.409678704035923 -0.815504300468873 -0.8371802427804098 0.0031850825962009663
P 3.9942395312178265 2.1281978686359757 6.614706945198613 -3.943498893407596 -1.0984452045073212 -0.6875952606290094
P 5.453929758274843 7.479240166368469 11.896582486135504 0.7606899237321544 -0.9085273270648289 -0.5727068014185298
P 7.434550638278858 1.065691994418743 0.315356028892507 -1.4337360829023953 -1.5503489810031492 0.4362511575602357
P 3.5336588392807307 6.698929517367494 5.549245991075184 -0.7714643886398391 0.2595261246589337 0.9027886248088388
P 5.087768154765558 4.418319582951651 13.241795041706604 0.8841468413379354 -0.4064705838636935 0.17920511901067845
P 6.892332603283757 6.30597469251451 3.0167555540621347 1.8971954254463068 1.0606402178444057 -0.44081460856120214
P 4.4746170226526125 0.9766390031724255 1.7832407335204274 -1.3121144187331404 -4.124009361493259 1.1099123246066562
P 5.86263817745752 7.924505122600056 7.365402513765137 0.2966119737676376 0.3527332422412377 0.7660051652974808
Ni 4.720302291524659 3.020945022642893 10.2528695954748 1.4642928726433297 -1.0454941062315866 -1.056592015916961
Ni 7.998037423040185 7.4046365097202305 11.636983560769433 -2.8765358186689554 1.208107639432171 0.03300653683300767
Ni 4.658834393601947 1.698584029183738 4.2868529968473865 0.2579353831330461 0.8303454792467635 -0.7961904306316094
Ni 4.927782066401396 0.16951277408949647 6.040041722923272 1.8623101835333475 0.5115212310481448 -0.44200528643519366
Ni 7.583841796843797 1.5900323549498128 2.88628113696799 0.18429487482876003 0.4539020378727796 -3.678460580681181
Ni 3.832334317820007 0.980328194984701 11.13643848742754 -0.31265334350121643 0.2903307687446161 0.04765539709443405
Ni 5.8637561143703305 5.750378679129439 7.760915550920269 0.27016997752602506 -0.3662266487419822 -3.1104249594860756
Ni 6.484416056080988 6.680269287064495 9.726036235628163 -0.8504589621671869 0.6057776158305697 1.0648804811779982
Ni 3.669804922979202 3.344802030143232 12.12236661473133 -1.1074877743255638 2.0637095792528783 -1.9475234842768978
Ni 0.6296788977547582 2.779079371556284 11.649513770333854 0.11620152159494826 0.5361084334692057 -0.4389281901717667
Ni 1.831357669861897 1.8799972417101054 7.597444294230421 1.2104041487758315 0.6565697587817725 -0.7292671864464989
Ni 0.5333574533469825 6.912352990164009 12.567525366956202 1.6256727905471295 -2.7282513004965336 2.8558646634728495
Ni 4.251569976264984 8.428554928163612 4.106009932146553 -1.1881039426167346 0.2886616085723093 -0.7493994384199997
Ni 8.990979672857767 2.374004247340243 0.32041655665116375 1.21711524224742 0.09657372006169174 -0.011458892569218976
Ni 5.152217217789099 2.7839144487041905 1.526519564090751 -0.19628418598015226 2.547171590170962 0.1280771899866117
Ni 7.949360586628216 5.953340125650234 0.29235168206914347 -1.1579659855807736 -0.26761095854959716 -1.10791637722255
Ni 2.6936876236994216 6.321374273488478 2.4351768235951536 0.36242938648307904 0.5573043508205305 -0.5974071323786873
Ni 0.3775114580165976 4.693304115080278 0.8883601832382293 2.67617874817101 -2.8147529810342045 -1.9501848331591445
Ni 7.339665742804044 8.150766237612016 0.09872128231394273 0.7405139630049118 0.8645990011129948 1.132893615993178
Ni 1.2194269522121037 5.474723384853124 9.302215172612472 -0.18092801523905616 0.763566216838685 0.7869200610732769
Ni 5.794583767890165 5.392210324546749 1.4530124172311611 -0.9512930001671295 0.8994703590688832 -0.8266721441602344
Ni 4.560903120039724 4.70071976326859 5.622289194115957 -0.12229040810150552 -0.8446364419481388 0.8951614472808841
Ni 3.5491515816640997 1.8852235967774957 -0.07326120073877154 -1.6160779477698426 -4.183014379272557 2.281501814508135
Ni 7.157414077593069 3.571174938846472 0.8814103420969225 -0.7859271010323884 -0.2335484696482494 -2.4817341865027585
P 1.4162583779943192 0.9956998275358491 11.14284706078023 1.4923412941401137 -2.1981191392154207 0.9325242042000583
P 6.306869042044758 0.9396911882040296 10.664213550929427 -1.3508753415514219 0.25263813928984874 -0.5899928421924872
P 5.845161097053912 4.603692155377556 9.510655441620134 0.6320787156189437 -1.1840873652581736 -0.25489376809324493
P 6.894400786572456 4.6426522567890105 5.7449510954177425 -0.2771831756190646 0.8037669574272868 0.7171858298019326
P 7.123997080040967 0.612846494304204 4.7282349855351455 -0.9279993197465115 -0.21401502760101207 1.011367853971839
P 3.5320750953209155 4.361519071639923 3.024882023804175 0.1031328613364482 -0.5711080894728423 0.5066505332194048
P 0.3201715421444394 9.374087336737077 7.899871382726271 0.01054846493980764 -0.4652465163513213 -0.6790687112152368
P 1.488188302192752 1.4031039869869124 0.5549681054857086 2.3947499099017144 0.133274417916835 0.5078864625090349
Ni 8.340713035239505 4.1094242978010955 2.5908076160698226 0.07649263304110053 1.2498978359950799 2.4149042733624024
Ni 8.29138406896173 7.618311518322128 7.094649372851497 0.4394385541492819 0.30340534254038715 -0.047402400543363525
Ni 6.859614316302162 6.882010319122137 5.335693023919601 -0.017216620988602608 -0.42077594474277213 -0.2964975596769603
Ni 8.432421126653749 0.6946338272313457 10.923198542607546 -0.27488666627540403 -1.0265533034630256 1.631268796577668
Ni 3.155703001341291 8.288309742451501 1.1414685532113389 -0.6975577711583599 1.827136463845692 0.20169841501718813
Ni 7.411493189452136 2.90227601934803 11.039683842466053 0.1806603633999663 0.09892679367490059 0.0026793466043760305
Ni 0.1935726396813722 0.34314607731679464 1.866388223024822 -0.33422155659029534 -0.5122367690579307 0.49567166561039794
Ni 5.833469340174099 2.796155857899468 6.626120149464317 0.8973000908904417 -0.08612578525549038 -0.9713943989026949
Ni 6.779346445962348 2.0017126230923776 8.657233581749523 0.7818472745360598 0.19840611741916153 2.5167646957443304
Ni 1.572191945049541 3.1120661971779104 2.5336363223486797 -0.3516040137328009 0.37423743486160066 -1.7084669403262251
Ni 7.60190579412663 8.614505101327802 8.996121251042604 -0.2006576324574996 1.2379344929856164 1.575511853422022
Ni 4.604577188766864 8.29975927966687 9.989574956997798 -0.29160063659597524 -0.287627253770524 -0.17329055329845638
Ni 2.9458662428067104 4.039562556891363 0.5878988004807378 0.11734849071519789 0.913752065798878 1.4524010063017503
Ni 4.390501586104542 5.527806755929756 10.885756972169325 -2.0188003774450136 0.801653767739026 0.08881978714788574
Ni 0.15207388986374254 6.347077506342186 2.0840728986873347 -0.6046684419267909 3.600373863680083 1.994215746127114
Ni 2.0371325909465985 0.16727969510615698 9.368222826015291 1.7511853051303583 -1.0323927929629382 -1.4140884838747967
Ni 9.205567663271793 4.095971790283606 5.379598132942056 0.37548981921146296 0.6653413343268154 -0.9300834559690497
Ni 3.5431054061939817 6.296770345265701 8.385636398466712 0.727961837371514 0.8660215924921343 1.3663927204607305
Ni 0.5195295053496073 9.088640778332728 13.083110418231774 -1.1698568234810887 1.882729370619648 -0.25138729760188316
Ni 3.3558230248753578 8.637842034382727 7.267065988072019 -0.4790895928820007 -2.1506637739469348 1.6471415019438667
Ni 5.012018612781689 6.201270584488841 3.9818350895560966 -1.724449688907727 1.3820196283647102 -1.3378863854909215
Ni 4.068442593805641 6.420376903258811 13.577723904637113 1.309094400959894 0.35355213859810725 -0.7968681734249243
Ni 2.433236271437333 3.2191552372842422 4.691611372271464 0.6933056807502254 0.2802646427578657 1.3808430915581058
Ni 2.3316344383447145 3.4412147727322204 9.905310462194684 0.09232831452177648 -1.3634130690071165 -0.6716325666521659
P 8.80758212231116 4.155688253709582 12.64032355549025 -2.228160422772518 1.7792676651888713 -0.12148333881917787
P 8.568902591426063 6.530083778969308 9.889752506824735 1.4370180960877768 -0.03634382873635676 -1.4799097532449803
P 2.622540255339956 6.893087210699904 10.582306971398252 3.4160555918125555 -1.694418175542643 -0.8747147493907581
P 1.5031034438378355 8.382943102120931 3.112937256355809 1.4045687173098198 -0.852124779905384 -1.225399336633083
P 0.7155560165545991 3.6937660374771126 8.172082499697035 0.08848502951628631 -0.4853039492228287 -0.13246143509723637
P -0.14805676989037586 6.97896339788565 5.267380557248205 0.6189516913186823 -1.0389619615400234 -0.39992918320074994
P 2.040914944168275 5.997386840014977 0.20914177442045015 -0.7958806127006745 0.7498169855733926 0.2962353071545092
P -0.05694677472448643 2.6284839532597335 3.826558310437152 1.4083166143880261 -0.7287249407897837 0.10911530417212821
