# total energy = -340891.05211007455 ev
CRYSTAL
PRIMVEC
9.09586380465812 0.00000000000000 0.00000000000000

0.00000000000000 9.09586380465812 0.00000000000000

0.00000000000000 0.00000000000000 13.31271610211868

PRIMCOORD
 96 1
Ni 6.54018964993819 2.1517265698310193 11.568776853928117 0.28214694738224316 -0.2992527538245943 0.24955872903357662
Ni 4.460047525998801 0.5145593663534549 6.006071448260621 0.4981065003041357 -2.36839635960885 2.5698368929789615
Ni 2.974283699547916 1.6608137198669513 4.889081216445619 -3.1242304979106 0.4728356415524889 -0.3677852514783537
Ni 3.451052481740512 4.524864649432571 5.116755228248728 0.8760350108640784 0.0069823448551041035 -1.4427781385000056
Ni 5.447703674442381 4.259410968504825 3.234856540111564 0.3512697703218337 1.7088058117228828 -0.942720685117086
Ni 7.432111834848171 6.200704735832302 2.7450424704605467 -0.053233148292527684 -0.3121956871385075 -0.9193524427047909
Ni 5.280039622203444 4.454253460937433 11.426183730305585 -0.20270320213261864 0.4564003788146011 0.27721557151889675
Ni 5.864567099501269 7.630401659554341 12.23236193858448 -1.043915191780241 0.2722759681254343 0.11956966673623279
Ni 1.965652489830372 6.579329150658862 0.33767210850662543 -0.862539804591121 -0.3535454537298879 -0.1461885548753418
Ni 2.671027609836737 1.7066568720008546 0.4096749641201135 0.7214777723090671 -2.439333352939044 0.6191861759269918
Ni 0.5984377813768684 9.18873228515687 4.91891564878673 -0.3050662751825778 -0.8371897558621065 0.30996165560166616
Ni 8.291461732497933 2.2233201115861694 1.4681396812971848 1.1027245486089654 0.8644442207026853 -0.2266273170483839
Ni 6.583340426470579 0.7264520549517383 4.891158711673273 1.032214872624177 -0.22443545160338765 -0.15210209214629936
Ni 0.6569778493964299 7.791061896883932 2.5939692732795936 0.24189555606136404 -1.4164605836513993 0.25062547973519417
Ni 7.9051149295440535 3.8355073450825157 3.643916623857818 -0.04633539273142987 -0.49002012375157544 0.2899538450211716
Ni 7.697401790232582 4.057473702527684 12.853573033452948 0.3082253896368498 -0.960129881732469 -0.9617867006096015
Ni 7.779592012986937 8.996072799968733 6.824124306363092 1.0879319636808231 -0.190139249424679 0.7488397092617878
Ni 6.773689562324983 0.478856282870122 0.19061109672374094 0.12201761405609308 0.2447402245990108 0.6886095608261367
Ni 1.939183526991154 6.459845887478117 9.127717232673888 -0.06239758840061513 0.15519307236679725 0.16699109344298985
Ni 9.245126638972385 4.876092323341013 1.3240748469573373 0.5783290327013136 -0.39571026002339593 0.32998412147018
Ni 6.061719941267609 2.1678990151671464 7.128253598972059 0.7068363682468086 -1.965088232633538 0.45114530106324885
Ni 3.4276124414529985 4.300042190842552 0.6347493781295979 0.8970257541831326 -0.08528014942574345 -1.6354249848378868
Ni 6.170633811039705 5.8119657207730215 5.081596986990161 -0.29103602234175685 -0.482431255660724 -1.461339960662593
Ni 5.247840265347488 2.6779222743838598 9.487559598920825 0.16475371947203885 0.2633673527818948 -0.06958947816336403
P 0.18026000403953812 5.553534046481659 12.410739098875663 0.709712661353339 0.006965118463923488 0.12996643658952456
P 3.83102308436783 6.120524698915563 12.545863608963048 2.072981748583423 -0.05346789001115308 0.790047293848349
P 2.195523152673231 8.53982428587417 1.2574567425468792 1.5987142596804145 1.0029372067059825 0.40645284325188064
P 6.249331222202906 7.855633432002698 5.906811928027201 -0.10386074064140823 -0.21515325497051332 -0.7971486807798207
P 4.808055264221648 1.093004439716371 12.637388006860222 -0.20753790451710064 -0.1745089990865898 0.18240588533616328
P 4.194384640210127 6.125172685173584 8.029351690999636 -0.2795599033813572 -0.299901957372819 1.1029567192244296
P 4.704526145652583 0.9122059605565299 3.8751716771282125 -0.1796918288391099 0.06426755172981835 -1.715260566209291
P 0.5371716830607731 5.779429816966877 3.327859015830517 -0.3130302672246609 -0.3839855153873 1.0353955843450038
Ni 1.4088855879914106 0.9887658437928524 2.907443656067603 0.28098917962871606 1.6120287174011332 -1.459872117867815
Ni 1.8187906774585456 6.445556285890346 5.118113240672059 0.0352092009112813 0.4267074797358587 -1.0028911839593955
Ni 6.145720240862173 5.437197952078361 8.966380263098511 -0.7009922507612056 0.5653269640146908 1.8868493063252922
Ni 8.78403912548591 2.3261306569372624 10.311470193129296 0.23722694694110108 0.5976755555487255 0.192028753137908
Ni 2.5514351962937685 5.119570398007744 7.183022521976795 -0.9203418032012536 0.8005479362693567 -0.6221614565052318
Ni 0.49229996915065954 9.329081459249357 9.218177414539385 1.1193107351024205 -1.5401704978082507 0.8847556785665279
Ni 1.3884017033474523 0.9542015624220522 11.708453843706577 0.06378007057043854 -0.07065725730624606 -0.8399932867491726
Ni 4.06427740843962 7.171979234078824 1.631566880309143 0.7377330578256649 0.019178372700663745 -1.5230664911381127
Ni 5.368105772790835 7.980001173892949 7.982597133341166 0.35813847241720903 0.13620753240322994 0.1707760144067188
Ni 5.10204266900734 2.797332770656456 5.018068747416982 0.6895492990315867 0.06901303683460372 0.379944512548707
Ni 0.7796137388727329 7.622970339059619 7.074031337364792 -0.2708160957504562 -0.17461698541936377 0.1772312831137593
Ni 5.213230504659093 4.327020522038813 7.061184339731076 -0.4634863391271051 1.3187743472518192 -0.15031646100078627
Ni 8.490515609739669 7.140225574535282 9.05424448551579 -0.7888355329284351 0.1407912951191704 0.5629168119113015
Ni 4.925792121606816 0.33250292926898706 10.485134786531473 -0.6525580665192181 -0.10483081786416139 0.19704446118494454
Ni 8.334903576662917 6.942972678270236 4.830838583163116 0.03574399036882876 1.6199623704259134 0.2783170321131917
Ni 7.245837645850114 6.26996973652668 7.164410566044971 1.1123003652228585 -0.22012756825665317 -1.0921035785600093
Ni 2.683006862090775 5.345238771904995 2.5088210757089793 -1.028783478345125 0.044413236008052547 1.461513767236296
Ni 2.2376006173104206 5.340945524324201 11.386432077970108 -0.6312220240456032 -0.5258487034144105 -0.019275046179528094
Ni 1.3542922151525836 3.693811983189272 3.8666916035697922 0.24339116677028402 -0.8456939366783758 -1.8196314137178986
Ni 3.8751925976143053 2.653026895933365 2.855803710113276 -1.5115163244066678 0.3370729099961614 -1.3356420695414353
Ni 1.2713470357261818 3.563131712017091 8.308972179357651 -1.270079196038961 -0.7868236447047288 -0.08667600133200558
Ni 3.484488876035002 2.7745021532246907 7.347354759408858 0.06846282075808854 -0.6402203708894716 -0.3473210700867309
Ni 4.108355963050909 6.854560884869136 5.832899850661153 0.11144780896004676 0.8702461720964432 0.446088969586264
Ni 0.6960864241811385 7.397693087293669 11.226892451026012 -0.08283091655430251 0.19096508776008403 -0.18027855458051534
P 0.24548371257259002 5.522571727064238 7.672250818017213 0.23629877869987692 0.5725903304453236 1.0211051358642609
P 8.548838286621134 1.6136971468404395 8.088100054293774 0.08797337998719043 0.48264517144374297 -1.2757708471070996
P 1.824457400430653 3.333752225804238 10.46478006314948 -0.2413494537499069 -0.16184065959030192 0.7238940950600435
P 4.332914641598887 6.271061240148916 3.6330397902622384 -0.05115569693820867 -0.9726670949675313 0.6455962904894041
P 7.132102968413144 3.888463462487989 10.31915164987078 -0.7961287241557385 0.3827637271650569 -0.07685695835905473
P 6.306571491325655 7.697192585371654 10.018897195120749 1.2726834664310276 -1.0661549770150478 0.506434817664173
P 2.4286410387922412 8.456697189177394 5.9063325760197705 0.10612665385744949 0.5263464689864354 -0.34933630074454675
P 7.044136872324457 4.192620042687512 1.627412799440184 -0.39867551329930695 -0.5423664985637756 0.640912768970806
Ni 5.513821506359314 2.934753076695943 0.5798058145453034 -0.3016860458564352 -0.03453454344175988 -0.22661703263573876
Ni 1.3442958611456075 1.1954875339807938 7.02835463953328 0.46109469896647687 0.6279286980063121 -0.1498364360405742
Ni 7.094245984448599 0.48086555912138773 9.183923302114568 -1.1732280539461666 0.516466233758246 -0.5238738390762269
Ni 2.6564560364798893 1.6285597878298834 9.392360472162123 -0.07951625035877273 -0.457349887212064 0.6718706508049009
Ni 6.375800108565961 1.8841808402939884 2.6744449257606866 -0.5928634788720628 0.4219038876996282 0.803985758306312
Ni 4.173964426610799 6.880456808306681 10.373933307084444 0.03368865050169682 -0.09213368201246713 -0.3484724100823547
Ni 8.28928782111698 7.365166279351042 -0.18999803552258518 -0.9056240373751048 -0.6427127982940221 1.043869683254286
Ni 7.7438270776316775 3.5645051874084044 8.124577195762543 0.16857746409350322 1.380691653581906 -0.08495001977983434
Ni 3.2825061307402676 8.38720479189505 12.42391900511416 0.38044613477547384 0.24671483182687834 0.6680985853569783
Ni 9.108870603463284 4.974591429384275 10.15154490157201 1.213894421317277 -1.2618848331536268 -0.6823707790052764
Ni 8.38341181680778 2.147760773336896 5.6993862180029184 0.44264292001919253 1.435860842554882 2.0942100618345805
Ni 3.60076129939367 2.7295322039885757 11.830411181764388 0.050088432015958896 0.5795179108030922 -1.2310472789474798
Ni 1.1300246042372017 3.2770940919466818 12.709143454986004 -0.5544285719346322 0.8325823389970823 -0.22472675759156138
Ni 2.90452752222353 8.575734755045728 8.204174187827736 0.04513957265111581 -0.5310798699063628 -0.3860447119091739
Ni 5.711028923306766 8.088951427119117 3.430380312721718 -0.9114653266472302 -0.9791491031474493 0.41341847593643644
Ni 2.8663157995817583 8.077190475589527 3.549569779510811 0.8756511451620985 0.7235323408452508 0.5428331537875489
Ni 3.4631954595378853 4.355845313529357 9.40759058603772 0.8816739543174106 0.29819577331498964 -0.015517378909308759
Ni 7.380065303794561 6.022889699906571 11.159650370378177 -1.071056013861091 0.46964258853648794 0.6509272157840144
Ni 0.278022345137791 0.14285690366457296 0.5936579050978276 0.41366350206770697 0.2638373504397779 0.041601734701186416
Ni 4.613303730424226 0.5736460957704861 1.5699023831709318 -0.23606866496694182 -0.6649857507596096 -0.2782429843421466
Ni 6.047766886630029 5.641954935746278 0.33785038743159057 -1.0360856684334931 0.5678597577388735 0.17187361834627174
Ni 7.78349413843643 -0.11326351170670491 11.333913471599882 0.7386342294836956 0.04246536825306235 0.1569355089792007
Ni 9.233665850938909 4.888499081180425 5.499882095517011 -0.9819438922837671 -1.2089265357890406 1.684510686620944
Ni 7.769923110066632 8.855741817603285 2.497012825689091 0.10526122053336065 0.8680100836770729 0.2831342509961769
P 8.43598590794547 1.5297787100175437 3.760988573619774 -0.08315538977325679 -0.2193377253655061 -2.3638480781165354
P 1.8584668341268167 3.1444673059815136 1.6305945324990014 -0.5574647876577947 0.8679329505822342 1.5170372542248969
P 4.498086427233719 0.9540014534246424 8.322337641211927 0.7739223632620283 1.211205047410572 -0.3060594923337826
P 8.588887373693668 1.6974245705294435 12.62793649507801 -0.8328034538689528 0.14112579564045372 -0.7573297490106699
P 6.408608888277665 7.6392519347579695 1.3232052824049563 -0.5273443141233305 -0.00996302474998284 -0.7852447302533831
P 1.8006990049199874 3.276557435999083 5.937591420587899 -0.2747802226045268 -0.6839826035770865 0.7995994563131584
P 6.948211895656968 3.871799840521856 5.855411203283414 0.28007978044056925 0.2646235937864991 -0.4185375423305566
P 2.3943132498729254 8.449375019044897 10.39619270428724 -0.009799759699241187 0.39211740046581495 -0.636000419270853
