# total energy = -340888.62057727634 ev
CRYSTAL
PRIMVEC
9.10947746435639 0.00000000000000 0.00000000000000

0.00000000000000 9.10947746435639 0.00000000000000

0.00000000000000 0.00000000000000 13.33264106918003

PRIMCOORD
 96 1
Ni 6.622344303410943 1.716334905002335 11.656874767395127 -0.12542766817890658 0.7669289626633308 0.36775516957136667
Ni 4.74284043455067 0.40186733984379724 6.277047730787679 -0.12160803732250024 -0.33862097120957163 -0.7315822077329207
Ni 2.855748370799058 1.742533762754425 5.042671604169526 -0.5558519346447202 -1.1580184360852637 -0.533665628355668
Ni 3.1770396478909224 4.080153263169841 4.610400471685473 0.4177929508550482 0.4363108071535776 0.38550400891435543
Ni 4.995309607916165 4.781282430278702 2.593385393746308 0.6481334550889611 0.48789587831972103 0.14034238050720993
Ni 7.163520152276083 6.055425070676747 3.0024838369571456 0.7976780709207294 -0.16253691432637812 -1.1780612136687518
Ni 4.75004603138026 4.831703389130515 11.259282505417483 0.4192451099205425 -1.103511820396951 0.7392633784272623
Ni 5.809095685254544 8.035898389927898 12.510443755573188 -1.0895396744875752 0.29240899142988347 -0.34272907984067424
Ni 1.7421238362596947 6.3929403274822665 0.3980204074276959 1.2597127652029725 1.0463078603821334 0.6821846311363993
Ni 2.680190517322607 1.514468880041867 0.29317669618773573 0.15980563143814414 0.39131393072791315 0.8403725244654623
Ni 0.48172648670383517 9.151563447463252 4.819096782995913 -0.390003953667238 0.1740991652426808 -0.37039672095927173
Ni 8.705107947313767 2.5111641593288576 1.5472265617096397 -0.1112248943159633 -0.32033399997492573 -0.3743950434853875
Ni 6.7370052987258084 0.9056624471283738 4.962275909075275 -0.03611705743753135 -0.1365559168815842 -1.0554895268814015
Ni 0.9591824502803478 7.618128634931867 2.8563714590710476 -0.05196610865464599 0.032912691567620736 -0.5573987103065497
Ni 7.735076109139561 3.5274174871533086 3.622385613661336 -1.2291929993475605 0.9722518618069835 0.8867421128689372
Ni 7.717057562326753 3.9635701680685735 12.868212114061677 0.008171737177514958 -0.6635621309392056 -1.2424925446699437
Ni 8.313974304997538 8.83100092858424 7.066526988884089 -1.5629553569132502 0.3048564731646169 -0.7149949927982009
Ni 7.093641349141076 0.5235854475023842 0.5341897904471713 -0.7272254734261216 1.149532767211756 -0.3534012148425398
Ni 2.0682704649446966 6.506471747567209 9.118006864604638 -0.5361943083147928 0.36428469452426293 0.3635071929282901
Ni -0.06799496315478011 5.021180524472471 1.366155652352951 -0.07631188448886211 -0.011932232661211708 0.6593388368864773
Ni 6.605418893917416 1.8645552160191123 7.175934548432045 -0.9290917814797418 -0.02273240860050924 -0.17809697354816423
Ni 3.226476783155383 4.05747977327243 -0.08441024189930917 -0.07514151832984478 1.2868805838670159 1.4519238095550155
Ni 6.133201790943556 5.701503644604359 5.114841440936191 -0.9422828262487192 -0.17822141494117047 -0.38640595190333454
Ni 5.177061906201873 2.934308506144684 9.477015023002743 0.5906595292422087 0.43155555185677935 0.3807474680659765
P 0.14302153211583213 5.644505642881541 12.490205229054475 -1.516501436326085 -0.24283632270807856 0.15797372043572794
P 4.103874342998227 6.242943668321659 12.737338981354117 -0.7357731058858167 0.16652752354300998 0.025245147720033945
P 2.4462773499518984 8.281189294896784 1.479576847758199 -0.1603350215790529 1.8668682352176753 -0.5121619499559373
P 6.529035923732691 8.03688221351525 5.936718556332778 -1.029507243885027 0.04087025585180058 -0.08509580132907925
P 4.568694550111623 1.1417910394661577 12.677342139585404 1.248616655289811 -0.3080554397178888 -0.2818422716576307
P 4.2437685914331515 6.220816747083889 8.270744367811059 -0.5289466256134439 0.33390556801177335 -0.212649257601737
P 4.715949256496369 1.3186606577257447 3.7352465761904523 0.016541192188132804 -0.48231169936372426 1.7588047693488291
P 0.3087866971070614 5.722072845162154 3.487525262581699 -0.7482398708942598 -1.7386239235255798 0.4400520193635647
Ni 1.3999080889812692 1.2232388792302167 2.7861883993821746 0.37138736700731523 -0.9366192002050386 -0.7612864196655728
Ni 1.8118295593191487 6.582016645807153 4.913238679880116 1.1040990603589889 -1.6147841686590836 -1.8220935021051459
Ni 6.159755918324412 5.6891329739411685 9.378459584191946 -0.6563697269558245 1.3384977938226754 -1.6933264851403613
Ni 8.679264359190444 2.185946697365244 10.210749743502443 0.37184270937717895 0.9249939572612844 0.35178450517472315
Ni 2.5275976570287084 5.2099197921239115 7.066993394140315 0.48351626119478663 0.38836770361539563 -0.17866081647143423
Ni 0.6014569063368638 -0.060860420250942626 8.980614078735334 -0.2553928192168505 -0.6207658617092857 2.351533265304924
Ni 1.5081104646347188 1.07448110903146 11.429126894505162 -0.3285689862902083 -0.6419239838441396 -0.4472855609975265
Ni 4.168478758567706 7.103789307255063 1.5997035296694668 0.9232669472678487 -1.4275916605675543 -0.35959063148270326
Ni 5.618033500799632 8.206518906512265 8.36687213082529 0.2417559451597062 -1.0100727893094992 -0.6992091907188539
Ni 5.109460472482033 2.849563035467462 5.413612267355345 1.6636168738910702 0.27015506512768955 -2.5695509863074264
Ni 1.075446713663491 7.458193535643467 6.760382040298622 -0.7878947662817205 0.005689337075293427 2.768987858983947
Ni 5.432728506226263 4.610625475783691 7.357884522382989 -0.5641347434788025 0.0349942566869978 -0.29549482944405886
Ni 8.222679119882294 7.113636652606249 9.188696411251444 0.8881479920775285 0.10015680942725977 0.1502221015147671
Ni 4.7289211526851656 0.38462400957991316 10.524240574873476 -0.4660299314845652 -0.16521446115854127 0.008448902098301578
Ni 8.468143104926733 7.041070553561345 4.992794481134053 -0.30624229776855 0.11756523471169429 -1.1920279602614892
Ni 7.463622784329226 6.464021581668482 6.96322551221208 0.012881998168990716 -1.5242929073460458 1.7949030577332832
Ni 2.513842345761095 4.9964665115790705 2.456685839126981 -0.4430697231439659 1.367869047895941 -0.2396916064315098
Ni 2.030247505189056 5.381305504831775 11.56391983545011 1.554367358133923 -1.0199486536623144 -1.233051196751386
Ni 0.9681643952537693 3.4163547355144086 3.6704763681275496 0.25433686714851034 0.7744982903701565 0.7824429991385299
Ni 3.8339696293902077 2.78355576033824 2.4077151091187465 -1.310060621527905 -0.15761916530978662 -0.2939110298967067
Ni 1.1677712697543912 3.4835553522171785 8.120325028886995 -1.6345983751715332 -0.2999217548671609 1.2648531717533313
Ni 3.8889088891617143 2.742180512803473 7.152749105890106 -2.125365918612095 0.5888175909374633 1.3979656101710052
Ni 4.052096071974973 7.008331090848892 6.101576417349005 0.694278843296772 -0.027883356673829397 -0.6672228676202444
Ni 0.9012698570003983 7.4051945946136835 11.380342908788968 -0.02647182103828344 0.6964534823505877 -0.573631113005012
P 0.3981251664207936 5.6966756214442045 7.96519973380343 -0.798258883124864 -0.7089508434866499 0.22884052264961882
P 8.547668844904392 1.6427212160264533 8.065754702960746 0.8497837904770332 0.4319982958211528 0.11479487105540874
P 1.5709476415380268 3.0929682785605896 10.411952598489215 -0.33863176984284904 0.6395169170645437 -0.06508927630016531
P 3.8542017792745575 6.038408566406614 4.07068213924604 1.1198478385528134 0.8604510403828923 -0.491544787926218
P 6.736558934320436 4.082722135870149 10.550986001285205 0.5948535127188981 -2.3719318835659347 1.1631264467357905
P 6.661660808994399 7.9682605182974156 10.347609624928598 -1.26289939046107 0.013320114147673836 0.722695189655936
P 2.3959748143096733 8.697856803095874 5.6071485859428964 1.5382964207139895 0.4558313936850085 0.851790793604733
P 6.864556204930523 4.049153710690577 1.5941440154531594 0.07973762234095945 0.2662107357679609 0.325731002620781
Ni 5.398303790146588 3.1293333133819887 0.10345633779223999 -0.02633735234294819 -0.4558275370302666 0.20453665579693164
Ni 1.4665985749350412 0.8427551272470785 7.164828273268156 0.0018846186172225606 2.0086308931111794 -2.2566209921060554
Ni 6.944938235808284 0.7960098426313454 9.3946325508307 0.1504714985214118 0.11843966689684762 -0.14661098712474105
Ni 2.6768382295434803 1.6633359639725516 8.975187562892872 -0.07814353838096219 -0.617685165901433 1.8294136899156428
Ni 6.162962454460968 2.022586434476432 2.2362437673208726 1.9598655507820182 1.0031076708455757 0.8343389166768727
Ni 4.1381715263906536 6.993346000097089 10.381260946354882 0.16079499193460695 0.6281737241375827 0.2614811915027755
Ni 8.101723475503904 7.477523847239411 0.2995660838189303 1.283685988189118 -1.8123289665192144 -1.0448441313524135
Ni 7.578812129348411 3.76692387380767 8.238146102002348 0.7726509527487725 0.6088433992400869 0.2855960822731081
Ni 3.086764724273673 8.367383172522052 12.369091079764791 0.34812068316989075 -0.2503884240237236 0.3511386440606082
Ni -0.39933035031530034 4.865126062667517 10.287199212874093 2.0099164446918225 -0.42972466929562764 -0.44409430775373837
Ni 8.734850391875858 2.127063033766667 5.702051124211765 0.3771440669854344 1.252261708241566 0.3349648625142231
Ni 3.4106066551105254 2.643379118095836 11.42735327920463 1.1037051673546798 -0.23099125044403443 -0.34740565938073714
Ni 0.9792324106114845 3.3304432516966207 12.61273225832933 -0.3157042145123983 -0.12968155835925407 0.1601342184221565
Ni 3.253194881134131 8.443593062631226 7.864232105308085 -0.7233387367772058 -0.12003760751158683 0.9211303605408201
Ni 5.761717291941395 7.969508516736928 3.8351611490682234 -0.621948054942845 -0.028848548800576124 -0.39539658543771905
Ni 3.171009173679558 8.293660169814242 3.629038265196924 1.0234132151721473 0.38671011340731465 0.1771610919974562
Ni 3.1203058210202634 4.281873536487738 9.500186801328192 0.3203417132844096 0.6152207635213404 -0.6767385204201635
Ni 7.110047518407944 6.105217475569975 11.460431614486055 0.6642339601952496 1.0717298999996638 1.223845104772086
Ni 0.8090190876785497 9.150925784027004 0.30287464610528597 0.2766748685240783 -2.2567999408860806 0.8389669023671874
Ni 4.552853168459716 0.5251067302717163 1.7683882822509411 -0.8701404997565143 -2.232809234398438 -1.4103130759927647
Ni 6.262738563278297 5.778551606658315 0.28837691240832813 -1.5545740748280905 0.05090989947598974 1.114640583320261
Ni 8.29552761273468 8.907666292576447 11.567052584817615 -0.7723257081988698 0.6308301879238233 -0.4417810862395295
Ni 0.04707322581151714 4.6723512964123985 5.9178391638810375 -0.6870722982460038 0.589234623870224 -0.17513197738256936
Ni 8.043659664894788 8.541702137036651 2.380863101818387 0.20745665765720397 1.185117863405217 1.989679291709341
P 8.311205023788695 1.4120510227029435 3.4881656588612437 0.8282901393796315 -0.247737873774754 -0.11905133233891756
P 1.787653005607728 3.192471103048099 1.589890800333392 0.08669579882634745 -0.5503106931115167 -0.8949218204662522
P 4.70930844728174 1.1990258876081532 8.388791355972396 0.9021800446905623 -1.5605493185749189 -0.5198387497749046
P 8.791666204045463 1.5416151234706663 12.854066006202421 -1.8042940120298796 1.6640436770158438 -1.5796523579529569
P 6.312667610336434 7.669788482745531 1.5260278962454923 -0.697847791594953 0.2049403189932535 0.08776743462397144
P 1.7804291898228162 3.3907753222432446 6.13306879256971 0.7195833834998316 -1.7713712931599301 -1.8717062800362667
P 6.977950982850555 3.8526531680722442 6.008141415931269 0.8411474549582739 -0.09116643300319137 -0.47160151203507167
P 2.4394270227510737 8.536546172680712 10.019306782881317 0.3845236472789571 0.3423395577117394 1.316566540967223
