# total energy = -340871.9972661404 ev
CRYSTAL
PRIMVEC
9.24554356299494 0.00000000000000 0.00000000000000

0.00000000000000 9.24554356299494 0.00000000000000

0.00000000000000 0.00000000000000 13.53178755830774

PRIMCOORD
 96 1
Ni 8.670322680006144 2.9336848879351636 7.8698842120698815 -0.9334757694800504 0.7480138709263827 0.8979642068370018
Ni 1.4408069937286172 5.467315112574872 4.7140279914687575 0.5810060653128446 0.39930954733888 0.34423343230034265
Ni 3.699373056415399 3.1664969165102246 1.2244686743992197 0.842295452519788 -0.5990837487501618 -1.9845543117779498
Ni 4.9498605390754475 1.5906402702103866 2.4840981503818136 -1.0681493817372574 0.11614341466350321 0.5196469454790728
Ni 8.439748072935995 0.9796207974146829 0.5347908919451211 -1.3421233063904048 -0.049199858763418494 -0.24015440500054122
Ni 7.410127376766937 4.5073041127300915 2.394991452117221 -1.9512359001314785 0.239618072881097 1.219740595685409
Ni 7.786263819264025 4.451803115647525 10.255281563791872 -0.4320962548515978 -0.5091211062470844 1.6918421872853506
Ni 5.631848803076511 1.6326427739162164 10.217961003268218 -0.118162501976061 -0.06963215847584137 -0.6573894264695904
Ni 7.8186694489116 2.4829646467599047 5.125272535951791 -0.27833580116626905 -0.6891888303683744 1.5710815855648106
Ni 4.096700284405282 7.5543393628562026 0.22601840327833086 -0.8802493060557421 0.13370302081382135 0.5213793547891472
Ni 7.617893228247766 9.216863733069411 2.9943818804134326 -0.6702585691227747 -0.8661195515225794 -1.061092732000792
Ni 5.829019261810944 6.7275658890745325 1.9803232829099369 -0.3750622447557411 -1.2185054377267273 -0.5397671132677155
Ni 7.9928369956451295 6.061267312238072 0.9107877267367382 0.807684547314138 0.8172040567687991 -0.9131177746489887
Ni 8.071229958207695 6.825716577901539 3.2140837284349235 0.5928004868446114 -0.5337232210664808 0.24685984204517486
Ni 1.3223900737496894 7.6266580033992355 3.6373576494470465 -1.5252424157435087 -0.5081937093368086 -0.44855234352509193
Ni 3.104413092520648 5.401301932636588 9.976242742727534 1.7792548096730647 -0.8393034597709996 0.3531965550309014
Ni 0.5035409552236364 3.179579360433568 11.7379865865858 -0.10489998053919998 0.27870269758738453 -0.977631123841026
Ni 6.410083173962384 7.25115025785394 12.90536033221879 -1.0186754433768457 -0.18731977769801286 -0.07905962243732836
Ni 7.5455283599876894 6.255562406972391 5.761834671522774 2.7149563831598402 -2.6571124755681783 2.130183908826028
Ni 3.2247161033549547 6.383437517858443 2.9584953036724726 0.8107824695131715 0.18537499526681622 -0.17481881701752472
Ni 3.4610506839687396 2.2180798280999827 5.4516189535298825 1.7353917897415274 -0.6939499992024437 -2.5935686893782623
Ni 6.965481457611208 9.162749567498155 6.361414633458865 -0.4269370792481615 0.3994995518624991 -0.5064289041269021
Ni 7.312115371091061 2.5517977174378492 11.822317037125446 -0.08687269072384393 -0.10594976195995301 0.4186666117092531
Ni 4.601118641698406 4.2093294942103485 3.1906333321330376 -0.09696247085967817 0.15089701609460465 0.3643250608438951
P 2.742339121548227 3.098764065497918 12.227850609444912 -0.8031383227043523 -0.35793406971588676 2.059308879082021
P 3.4824263803297075 0.6510452793207484 9.446053357736934 1.8404892310035141 0.2799550819372469 0.7185713972955495
P 2.442284255761522 4.000916454690909 8.240574104944892 -2.484447728779179 -0.3587444814323241 0.37055587224495534
P 2.4324562431180494 3.5302628219264416 4.194826934819425 -0.01010726363733098 0.4150318431701433 -0.09405558162552834
P 5.708586813368915 1.4622843910670813 4.95432521198752 0.04607159754708194 -0.35469705083582787 -1.1132997530216504
P 1.8761981239322136 8.418335394401392 12.854832512935776 1.430022381496234 0.020977630692931612 -0.38005609842590676
P 8.609644178614694 1.2659552767828426 10.546174096060533 0.7170210220892942 0.9710269882609469 -0.23459285175236375
P 6.073175572148508 5.442971596779704 4.28662685987898 0.4257435731606926 -0.14552212493593647 -0.4477920683202997
Ni 5.3248505341898555 9.114737460576654 8.044864442069038 -0.9056638894741048 -0.742771648690837 -0.024912446970963547
Ni 5.5708929353827985 3.63368347049642 5.6927149889991595 0.012833147208926286 2.1142579816243914 -1.6989502590850418
Ni 0.25343236403953623 0.7210072308488983 4.158548347037936 1.2549626521124966 1.3909225872812947 0.24902111136255178
Ni 8.92843976089088 8.368076620431573 9.941493367825847 1.0818703308677755 0.19118234597721268 0.09790323750639268
Ni 3.1826858630188988 4.587139380064416 6.2609553324427 -0.19411314647076247 -1.08750978854174 0.09169350915125499
Ni 1.4969736699366112 6.406865724856148 11.373791687955418 -2.5592457477266763 0.9388254638277379 0.35817241097893804
Ni 5.202800115651299 5.965723866652326 6.68700291647744 0.883812083706336 0.040512615402065716 -0.2711822208406233
Ni 0.8165146188153505 9.018149268585722 1.7775759123913624 0.5497759036539693 0.5515633345716953 -0.5444717178322365
Ni 1.9715751497366028 0.5672177863425362 11.066512354549134 -0.2563551831301198 0.11000207765245572 0.6540850446867058
Ni 1.001366315512 2.4642701579874657 0.38978194001402355 2.327496278960379 -0.6586721498367558 0.8019689849865994
Ni 3.366764632286579 7.154765467818 7.973862366907407 -0.23920412527212997 0.2860812494396428 -0.14253964526884486
Ni 3.4295141354015843 7.827600643844427 11.174171160217673 0.004561651228753434 -0.1350155689776578 0.6501268313699062
Ni 7.465998195585851 9.288257819271573 11.810192431499246 -1.1001290199676472 -0.4230462288341875 0.6390168374996736
Ni 2.6752627041179395 0.13587712870630156 4.174529268819914 0.9768088850500469 -0.12854435943101733 1.0919981633303968
Ni 2.447896300610617 1.664567635306538 2.5176021505863453 -1.1056298951812185 0.6524917320576569 0.20392344769296494
Ni 3.4002334994261574 2.929940442854631 10.286905020467069 -0.5419360958945764 -1.3691669407717582 -0.7462210406920181
Ni 7.045020867556454 2.2385402156634875 2.925585791909122 0.9068687084154833 0.4367710346194478 0.5205010659492519
Ni 5.50548996130949 1.9525385758580418 7.086055362867391 0.8996696195638828 -0.7793221941213611 1.20746152120774
Ni 8.254402664221319 3.4875114292045053 0.3976813323024367 0.8380158513078276 -0.4262955890094206 -0.16697232438991247
Ni 0.7317376085290626 5.884797625195771 7.161658020429202 0.6285560471776659 -1.3733110448471186 0.13715189859437024
Ni 2.9653693651968585 0.9335410090656062 13.657768202146734 0.3449510271926575 -0.4211166159116425 -0.14075709944712533
Ni 1.4117020230779562 7.877027318907461 6.104527209847489 1.3305096334108761 -0.07032429944685953 -1.073614004396254
Ni 3.158333101680322 1.8679418536682235 7.5713594837173215 -0.24206859130411862 0.12636020729550493 3.264081540603688
Ni 1.0711424316176346 2.0914898477477437 9.535620484063283 0.07810780004702032 0.705073877029747 -1.078118577134827
P 6.516869200333137 2.6269547398073607 0.8637676666229943 -2.6023212387599117 -0.7974456431949493 -0.013855674936169687
P 0.4800350856612984 5.648564745559483 2.354219530239092 -1.9509402232679305 0.4789808352182783 1.4618140720855342
P 8.633220314306937 5.805951631006179 12.14774259858003 -0.90768580500014 -1.369634624436796 -1.0792784017708832
P 3.3852279824737996 6.646602665444343 5.805718643312279 -1.0294401380925173 1.488630678057746 -0.8345147801331046
P 1.990916826547652 0.6833140749258744 6.208654217933894 -0.14983849292310325 0.18285737105128508 -0.13556192839943104
P 1.626707135047816 6.683390682667652 9.242183578248541 -1.6251197462571367 1.7082185717608451 -1.2666246618314574
P -0.010923609537406545 2.054618620633755 2.371865574388981 0.6045964510382749 -0.38740174015770057 -0.20184033991169112
P 3.097127604314574 8.61568151846059 2.170606736359211 0.03252856875532462 -0.1120982980598521 -0.5841111866007295
Ni 1.9759113095952938 4.208220029001302 2.191067123922716 -0.05657686795377998 0.4109620439761438 0.4489004708931302
Ni 6.590852038689741 4.720071803195039 13.064778463552383 -1.4232452106734004 0.1611248644701999 -1.2673810803815078
Ni 4.469748715403857 8.749501513758451 5.67061721569797 0.21982700629709886 -0.01782520110687898 0.3970338639308259
Ni 7.586125541095393 1.0142176208501255 8.540032633181735 -0.9642295057231393 -0.8038142657254543 0.9435290399509944
Ni 0.6941415308118302 4.873686506930977 0.07104737832433398 1.2023895060014713 -0.1580955907255729 -0.8184718677376291
Ni 0.5196115587766792 4.727560693356105 9.31434874277099 1.881099548325709 -0.22051786171653637 0.014594095764090995
Ni 9.100573288074491 0.8004736010012157 6.741387976470573 0.8098638143536441 0.46488527635716065 -0.7395420860099456
Ni 5.902632278431199 0.3380216897946272 0.6514502341220504 -0.59856849967664 0.0446016978697748 -0.8703029934763077
Ni 5.403567090771725 6.310434707103164 9.078232356981651 -0.9005188549380555 -1.3758998886202174 0.39789055550416635
Ni 4.476627399699947 3.830373160973599 8.382617086550471 2.1010962474314523 1.1503974292048962 -0.6741327073662002
Ni 9.17343741567864 7.68658761577458 12.997052084420462 -1.1154057436210596 1.161908000947657 -0.2763799629914788
Ni 1.5638374398684978 6.77261942210524 0.9921198475489359 2.3151637255369546 1.25160993359018 -0.05321026547439223
Ni 1.1900771020274508 2.760173774783654 6.3672744588713135 0.8178170077624496 1.335477776049429 -0.8199679926671813
Ni 7.495232603844235 5.454879856690139 8.264552421775416 0.33772159932375384 0.22931849072730182 -1.618691988353922
Ni 7.179108983613168 6.928092480066331 10.77099150325007 0.8640210171223378 -1.718885050335756 0.1354912230624957
Ni 8.858672890328656 7.880374205621419 7.509140674793977 -1.6884390751410727 -0.6242144823795185 0.9805218151252596
Ni 5.477984469668539 4.01090164157233 10.814131208795173 -0.28594935184746884 1.0573504913495404 -0.08331608372083715
Ni 2.914047353735036 5.363986919438981 12.76419660179138 1.5375065778228423 -0.9390468358099245 -0.25417745875251063
Ni 5.196836740152673 8.573244474214551 3.1997808727816284 -2.5566209085093194 1.713562609681578 -1.1135874594653985
Ni 6.41981873117177 7.621572954524437 4.645516665701436 -1.6317740183488607 0.6814063582094781 -0.4803288646057404
Ni 5.443748222426036 8.360541502553463 10.141736120635 -0.24163201798733228 1.2893701830580893 1.9193575633656426
Ni 9.14895521673234 3.9292634932733033 3.8087108527669606 0.9150972669728626 -0.7831657362371673 -0.08049506933227427
Ni 4.915698256180216 2.3612193311538365 12.905170798578911 0.25152716561385713 0.27850266576143645 -1.060730977785999
Ni 1.8521597110695331 9.210447325943758 8.41330766789573 -1.6808412081891568 -1.5619744810572196 -0.7556906707453501
P 4.9363065724382595 6.119135168433271 11.581396666980934 0.07908559057925735 -0.18778257626704434 -0.5823533233693584
P 5.136629761475067 0.3880225131033435 11.966768482788998 0.15279680422047878 -0.8142444599198428 1.0046295068067406
P 8.555039999242775 8.27808050089106 4.968005842569408 -0.03010658957739331 -1.1334214634721897 0.7501941664071532
P 6.548914253787772 3.237595145323307 8.650601011360997 0.7838391081551082 0.03043003435508308 0.6372723440047412
P 7.031161797986778 7.701759552508294 8.732103250171916 0.5667174166043143 0.4575938849020699 -1.2093011455196399
P 8.73945160807317 4.2270069732078275 6.2123348687649065 -0.5078831200749252 1.3266182687762702 -1.1104535418221069
P 3.9362901062639333 5.263441634869115 1.0997527656959287 0.6295024702513352 1.4724579249526255 1.679107770437818
P 7.490156800512845 8.205355056438043 0.8750333612665235 1.1533984208147492 0.28809776564903933 2.1529757099095628
