# total energy = -381170.5384869805 ev
CRYSTAL
PRIMVEC
9.19260996562149 0.00000000000000 0.00000000000000
0.00000000000000 9.19260996562149 0.00000000000000
0.00000000000000 0.00000000000000 13.45431388793961
PRIMCOORD
 96 1
Ni 3.766451248065739 5.426553846727869 1.9919650055057798 0.6098993513084271 0.02208166239038778 2.2136923110633298
Ni 6.801547652053089 0.6740720152923303 -0.35720643209690983 1.0214360368411182 -1.9146802124946314 0.6314130570104868
Ni 1.10725904453407 3.727906635121626 6.2153551480469815 -0.12589792294710575 -0.5976508729583772 -1.8124336104178784
Ni 4.069090348315224 0.662017746045105 5.920947110623673 0.26964547248112275 -0.0891216346590207 0.30932299357640275
Ni 0.5026234074609999 2.359375234494644 4.236386654294216 0.06673426810275604 -0.05035171297967458 -0.7109107954264983
Ni 6.375626461607205 0.9619698464463747 6.357297316901919 0.17621672580631587 1.2670833466354308 1.8301551960673574
Ni 0.12408552429401741 5.105005548093925 0.9164232226080259 -0.6361233180019625 0.5805121563955615 -0.5526992479483515
Ni 3.110788353184065 0.6735149431376883 1.2453853610558094 0.4638457793490528 1.291519111080292 0.03655208809242092
Ni 2.573737702714003 5.041052561627864 13.542708130986412 -1.0835006673823468 -0.33645198858271086 -1.0171029566834031
Ni 8.089046197182252 2.590045392521505 6.813897004075298 -0.6252784048676587 0.6688904851306545 0.2529119617765257
Ni 1.4466410062044035 2.9317163140351687 1.0912271330209449 0.1576083666765092 -0.03658268422004022 0.47546202343174243
Ni 4.943362697149664 7.9351711015296145 12.598161957178787 1.7558940234599372 -1.461416065316167 -1.3403839551017946
Ni 1.861108204823822 5.81786486122942 4.44950260462299 -0.08243676643967739 1.1806122622253796 1.0351202191964302
Ni 4.604385210311084 0.9203640944346754 12.994445254327957 -0.6254972057466841 0.511881442601041 0.10725845346904753
Ni 0.9443200356062371 1.998703188498395 8.007051794698038 -2.2897437428019534 0.49252514956161625 1.2385991231528088
Ni 4.102110202761981 5.8445510075153155 7.2983732805053 0.6298022608799411 -0.15357816247119357 0.269964032162806
Ni 0.03174483946575374 3.443928532791662 10.001976820563465 -0.05762125005789431 -1.7649437923670315 2.2890258907993224
Ni 6.100712272552437 2.318155572095073 1.807371884903453 1.2109438233293854 -0.2878226576107817 0.06624035918547301
Ni 2.9056920356557785 2.3334888452624427 12.554287469065343 -0.6390924279326154 0.8637399955468092 -0.8951239091747293
Ni 0.5952748025009285 7.952214200122122 10.81378354719952 -0.7229880383060064 -0.003697760566561373 0.4380007932614908
Ni 8.032143942442433 7.829759444808855 4.202858448524823 -1.6735395323214213 0.6978387927338885 1.4193101372850525
Ni 4.189853663422977 7.656000734131625 1.2178194820108506 0.248285775858424 -0.15396768460012836 0.2183751043419207
Ni 8.862677853788657 4.423125330026796 8.137303721654328 -0.5105820070633271 0.5317624977956842 -2.668213984797979
Ni 8.634673552607442 7.447769736657252 1.9819413837661517 0.5650505704248526 0.29445173289152515 -0.9153860018578751
P 3.157404077543616 2.7412086682794334 6.2646109899447024 -1.7742072199468284 -0.28014174402675623 -0.47388825118671934
Ni 1.4079033484542263 8.594281225091002 7.975649839578293 -1.781553118788938 0.047122921629731744 0.3631762919514326
P 7.752045121453374 5.171835821431321 9.796624029221407 -0.6337064810303538 1.1005897616541496 0.7714471622486584
Ni 6.220914838461625 5.78934019298101 11.30818876148808 0.44864721723174344 0.5629049848367595 -0.23672943847939232
P 7.40683504516187 8.097043767719189 11.609847929531544 0.5092843712978261 -0.3455331249483726 -0.1473452941876043
P 3.9274230384936812 8.697964671166998 9.976266010178684 -0.9484527025048568 -0.6198088971126551 -0.20379412120395227
P 1.2977574976799926 0.7003876994027791 2.1815635021510515 -1.8522839096455972 0.8188475059094928 -0.14557328988884607
Ni 5.229262054930456 5.648702455458476 13.599620497597027 -2.0282661508436037 0.04091113639206502 -0.9201582264355379
Ni 8.83759122161015 5.550718427466275 6.064706658438557 0.187104062142781 1.5959945467564063 -0.27174246421946746
Ni 6.970232042113779 5.9622072205064205 7.701517941618574 0.1340452346445885 0.0354187458189261 0.3167853633917189
Ni 8.16449913852384 9.152042825468788 8.011357613134246 -0.020892012957660792 1.5509295360969677 -0.21577031972922192
Ni 7.323595963309034 6.564405896718177 13.4198976216734 0.7767135528539204 1.2344557904083966 -0.07161807855761859
Ni 2.6796089899253905 6.719733424721201 9.316277992380193 1.734115494132265 1.002070744940629 0.47402066299952555
Ni 5.7197061736507795 0.32361755510275425 10.877879938378657 3.543413130024323 -2.1495715693240203 0.21286985825297533
Ni 5.418960751022685 7.056063439933761 9.367296976839969 -1.0753543841261286 0.5847418782061929 -0.35396608620707426
Ni 2.8484312691332696 6.841912401740091 12.112824333209346 1.4379187535251752 -0.656772875931514 -0.32461411540751833
Ni 5.142106921297464 7.754894830495272 4.821339994497587 -0.8299130196950352 -0.48879627864680336 -1.5138133479709606
Ni 8.256333310551431 2.3735134683863794 0.08820401041260642 -0.3563106751798509 1.9933958213289797 -0.4258315048888086
Ni 2.7906005608023814 1.3118773463521027 3.8942432326361853 0.14149809137820793 -1.032006870378429 -1.02059117234232
Ni 8.232119976305116 3.285006694351923 2.2985348657111198 1.4769262451366243 -0.1703039598663067 1.1437344153624238
Ni 2.0215835943218856 4.175917666947119 8.11844048631893 2.3361994631613316 0.9133319475423237 2.2399779842327354
Ni 2.5293190120996565 8.154175837704322 5.586419766195359 0.5244194271670516 -0.9515801923902452 0.048336482321858686
Ni 8.42984382076372 0.6249706092394599 5.615883919166614 1.463887409674795 -0.9336634600108243 -0.7044138748482448
Ni 8.45343205754278 5.731877189042624 3.4767967091765124 0.14602400427301948 -1.3294279703109233 -0.624119351562551
Ni 5.476681148035823 0.433738585830494 8.407587593146504 0.6604387548188755 -0.27674840207449114 1.4082227691226392
Ni 1.8302761915124568 8.065798086966257 0.5419990323321693 -0.3034382526608516 -1.7398228289296875 1.3125743890886943
Ni 8.292441881895213 4.724229264437581 12.067752048037327 0.13307361475993856 -1.0026947516778733 0.433414202332073
Ni 6.199339783231519 6.637413603849621 2.5696396372595585 -0.07968465761583696 0.012406086973836699 -0.23577067411054878
Ni 6.694729526031006 5.949677693331886 5.08458692317824 -0.6981799781233912 0.17540297165576887 0.8443662190058878
Ni 6.908080807170982 3.1799627420236667 11.228028284661475 -0.9525777804168238 -1.2607255227382028 0.06079064892481144
Ni 2.7996736666873896 8.996632563977453 12.092360664505582 -0.41073501556700237 1.7873962078332768 -1.278468705654237
Ni 1.4319144452846635 0.6996669987934735 10.175672102232989 0.07009752814803412 -0.11838361684793158 -0.5336908251666487
P 5.803175070748931 2.6118226851674873 13.184393070146108 0.71015026311139 2.7776761307865647 -1.5816724737067793
Ni 8.230566425246792 1.0765097647110178 11.257937359947656 0.9202291888827894 -0.460165245173672 -0.9699723217441876
P 6.079229143420458 9.609494667571793 4.468809843012334 0.12430718142121817 -0.8996444227529021 -1.0214098115888732
Ni 0.9290051476584927 8.711045754930288 3.9233589856955433 0.30893835654347435 0.45738074044999943 -0.5026491253694956
P 4.039232751643991 3.7279893686099395 9.266362121097929 -0.10122870233519986 0.09435871468824394 0.7919470819742233
P 4.324893101569655 2.5393665346247976 2.869697452673673 -1.233240687054373 0.9064362488637551 1.0563580455292838
P 1.8460415173410172 6.359006223066077 2.321165232547709 -0.7024040435070678 0.6022523762861305 -1.0640636417036577
Ni 0.9693147416866195 1.2474371515659752 13.13342832208423 0.23318208744776614 -1.709601825261617 -1.1488709652580409
Ni 2.2889138802812825 2.7299936843080963 10.268292242399554 -1.3714349108703283 1.4994804762880563 -0.6182117278288644
Ni 3.605552998516297 8.18030123479165 7.817036872828257 1.575061653258481 -0.37858825563112863 -0.9300693149016628
Ni 5.8299163726937016 4.268183891635901 6.738592983012674 0.3062153011853565 1.0886410739327057 -1.5306826129224735
Ni 8.917530156540273 8.490340385940256 -0.11744846000934066 -1.5497170038461052 0.12395725428096716 -1.4594972510268995
Ni 1.8066052212450847 6.417250598838531 6.939075529676029 -0.6461912437609258 -0.8328759589781011 0.6833382851248683
Ni 4.764419354538144 2.434469664053542 7.488926889310098 0.8283983828227218 0.7715032122975746 1.3468315104993513
Ni 7.216970882093015 2.2468484977789545 4.252854295512456 0.8229476441207956 -1.4991302920374892 -0.9160285205378804
Ni 3.22333347511938 7.785340754194509 3.386383714625945 -0.30724811332524504 -0.11851165778536363 -0.36337015312979354
Ni 1.11498083677663 4.362490875703074 2.7966943418471346 0.8449367467973771 -0.43571225433763033 1.2242238282677431
Ni 4.629986628639096 4.071241419011366 11.577288624836397 -0.07058758041057521 -0.7563830688266844 0.45749592587162496
Ni 0.7364788047879168 5.904238623028343 9.646581332599633 -1.9795943966695129 -0.5223116367954295 0.06244001160277633
Ni 4.300330448150464 5.359916618196538 4.772204575788411 0.5347107817907307 1.1039602207882795 0.14944228592594908
Ni 5.956195253688998 7.911748331727182 6.818645906304472 0.5560727924062746 -0.8393443403112641 1.4700122916256102
Ni 4.146657589913703 1.654568647554962 10.563466024220249 -0.5453122114556609 1.3110772357178775 -0.7756082356048836
Ni 5.228011859995946 2.8356167710545446 5.097611012760692 -2.5182122268241343 -0.38221531086075466 -0.19917667703659891
Ni 0.6924480423076609 6.175825087330961 12.292695210150956 0.40699046092290553 1.1246719994143342 0.5775191352055087
Ni 8.091675283588648 0.7430809371553058 2.060110741307355 0.7375865049454716 -0.1294866687396286 0.30211747696689906
Ni 6.355935891388677 3.628801108732291 8.873510425191792 -0.2013546585245242 0.6677000643669792 0.5101994269129277
Ni 2.56025214411896 4.949595286602588 10.85496735842082 -0.4261809178084274 -0.33141082661437765 0.1698822989478558
Ni 5.011332854103819 0.34127563929172317 2.6141061294449304 -0.1670764540679445 -0.7806172587837008 0.6597098470726509
Ni 6.1205683097475925 4.281761376329069 3.48933542896086 -0.16122770859665136 0.1605535653477622 -1.1601887042637054
Ni 1.6223669353815233 1.06268407955291 6.028958437399428 -0.09103016453564323 0.37305267052488006 -0.21964574352422817
Ni 2.8125800908642398 3.675223788285778 4.3861737963632015 0.22911074559186995 -0.7885989914375967 -1.0291316057131632
Ni 3.969975629316076 3.343085603147751 0.8817836303122933 1.0965546723528274 -0.3740859968854009 0.6185140895606315
P 0.3653906126130424 7.972493097368655 6.027074871648833 -0.32912511590399446 -0.4948897931390509 0.38684329655106925
Ni 7.707874631303967 7.464031463415692 9.400488733090219 0.2317600102892589 -0.5123031035194918 1.6898691227193803
P 8.149257791454597 4.03018722358842 4.762180954048784 0.5506822175183226 -0.010634596895710717 0.20593893546109693
Ni 2.9551115060081634 1.2162650116915448 8.248314597011925 1.1050804504356515 -0.405181946959257 0.85720759374493
P 1.077300329154899 3.533381818877797 12.224777451072733 -0.41827117604304737 0.29077736936373144 0.1555669107664482
P 6.479567300757954 8.47623892248777 1.3381176510620887 0.33220529749121497 -0.871633539362273 -0.13408508674358843
P 7.482968239629589 1.8575230869969193 9.253284714378566 0.6008094731920168 -1.4523012474990924 -0.1867777891516138
Ni 6.915232657605163 4.4655951873608775 0.9857906562536917 -0.31780506290548494 -0.020423300851358375 -0.4113117140060788
