# total energy = -340877.0878115589 ev
CRYSTAL
PRIMVEC
9.19527375480730 0.00000000000000 0.00000000000000
0.00000000000000 9.19527375480730 0.00000000000000
0.00000000000000 0.00000000000000 13.45821261267555
PRIMCOORD
 96 1
Ni 1.0147995997725578 6.624955616989097 2.889451081411462 0.05776446050397794 -1.108796465834658 2.8528623863114158
Ni 1.4250283449330141 7.834005373476395 11.081021109039918 1.1246753418484439 -0.7754999921617934 -0.5575506625033817
Ni 4.419579565573736 2.6588133876481286 9.973693148227941 -0.8869377738195112 1.3360837850645442 0.5293564594573529
Ni 3.756416427004886 0.49943025617860254 5.424871252350174 0.3202558384388226 0.5163667320659042 0.02844797092804778
Ni 8.91601322865383 4.748494505487876 1.3564260860366362 -0.4639609647706784 0.3613348678673196 1.2251586813771866
Ni 7.296569212079644 2.5037810732239625 6.881143298229239 0.4267295912230457 0.5987307362861172 -0.8006091285245954
Ni 7.859890068915541 1.9032837248568142 11.967405953140602 -0.1522149635750798 -0.2827136185189905 1.7592333722458153
Ni 8.339745426461512 1.0098709330743756 5.105978241231461 -0.9662290526516715 -1.2936544122557398 -0.3389606139371775
Ni 8.397694041259918 7.8246905612277775 5.619987603846571 0.442739850608373 -0.9340059309519075 -0.16908525696785717
Ni 1.9076974562283209 5.120562864832182 6.9901817731802 0.1292868940239967 -0.025562936070768878 -0.30092808464448817
Ni 4.864722764937547 2.938974986454503 6.383540142932967 -0.15538976175863561 0.2104442795306182 -0.3373791283826706
Ni 3.9866201038500217 6.2582664927538145 1.5372640165462097 -0.9875473545134736 -0.63884971579419 0.6798937782196937
Ni 8.478731988295515 7.647129826261547 9.88080433245985 0.5340368956521577 0.8799821684372844 -0.6702110037142909
Ni 7.463408257922589 4.1781576548260215 13.052514454606522 0.20831694877497028 -0.6672388084598444 -0.6133315169184276
Ni 6.24913558597901 8.739712246183217 9.495307195417736 -0.8999614397726888 -0.47132306156270437 -0.2646058531746862
Ni 7.440153410758965 2.0195487654012476 3.0272229475909294 0.5926364504629212 -0.8745746242684679 0.403004479691964
Ni 1.5656148843891864 5.110834265267488 10.871234617897477 -0.37291434517480293 0.5439451559048052 0.3899797852975219
Ni 2.8158594670105432 1.6122900936428675 7.504837563535762 1.259120383034612 0.9569671677337712 1.2447666854161015
Ni 5.129656990512224 1.7144495843458616 2.5292418665459717 0.15976526511851194 -0.41921374246197485 -0.2598490552159912
Ni 4.9686201623680715 7.544087589284253 5.912838680346026 -0.4596083442289375 -0.03431162879767639 -1.5534623298211505
Ni 5.065676276172761 6.122810916017019 3.725434791359018 2.2707450902122637 1.8908147187309436 1.5758887771454666
Ni 0.7341690420079607 0.33106755348511835 1.8189713408599806 -2.4481406668180288 0.8464655247370776 0.38465425931955044
Ni 4.627677804466576 7.025455762584858 10.836458092799482 0.8676380450496347 0.16661108439575176 0.3984348580434106
Ni 3.666256768468175 5.172856386310843 9.755279651308943 0.959286302785251 -0.47518125896653 -0.8841170165412645
P 8.183480945362803 8.592753382059431 3.1220096678487694 0.01299075583271311 0.007763445995502759 0.5620521499181611
P 3.773059872384942 8.639446981860495 12.032799061518947 -1.0487421808552388 -0.030287852350263968 -0.1319094192485083
P 2.457482870191598 1.6747443925496843 9.791360985743639 -0.6984018643262101 1.28808437436713 -0.5898969400445712
P 4.112310299927359 4.601701156290523 3.0019083591206015 -1.2325441752079804 -1.4970379282848345 -2.2632166430457024
P 4.808401713582386 8.888160744644885 7.860942008225751 -0.3151555410977798 -0.029426532791233192 -0.7640410995925744
P 5.959401707260681 1.834126071429522 4.838173251210566 0.6744587232470513 -0.49922981527530147 -0.34480524564341264
P 2.0135074705864984 1.761704095842053 4.956713202466063 0.033480391145632664 -0.4349535217947348 0.6136557330270657
P 6.588717043374291 6.4595234480208195 9.738846777696402 -0.6762122156030482 -0.5480072417893207 -0.46252808897889375
Ni 5.127183461889442 5.104305620947133 13.103615349087507 0.08613838366098069 0.3478167787762268 0.42931097879697677
Ni 3.4427012745013714 8.97392506235747 9.69183778000775 1.8717677294018218 -0.7158000051979995 0.6906646435829524
Ni 8.841439559022751 7.282426881143443 1.2602554770883554 -1.4151848022627693 1.0408440090540847 -0.3242798719965512
Ni 9.032452979398384 2.4290602792138345 0.8012412073622163 0.299242212301633 0.29166054329963315 -0.2188052499008038
Ni 6.518198489440785 3.966914632330983 2.169867582531592 -0.8476490035222175 2.187737024650148 -0.10292845863512595
Ni 8.25111218335745 0.7531775117812487 9.89326668689277 -0.016309278682984815 0.28801677589945884 -0.7019921527806298
Ni 6.486612724313441 7.677446643619582 1.8567492032906 -0.5396910086141415 0.8873234392937042 1.6463025509823388
Ni 0.02438126819072804 6.220225645495644 12.648028157865866 0.6311474620539259 -0.26955496964984543 -0.7131926494821395
Ni 6.654987380862724 9.109279491083669 6.705245068746277 0.40643150309564197 0.6947562971538228 0.14612299174472898
Ni 8.504837370303237 5.468254553622606 10.46650556593139 -0.049373151116489156 -1.2513710781064964 -0.5218915185388754
Ni 2.24135715736683 7.961764506134126 1.624163950559589 2.6951892278352423 -1.1450032547725184 0.3293050931252845
Ni 1.3905736544141916 4.833964574442361 4.483953837627158 0.959566295919515 -0.3315206127193645 -0.08376268433995251
Ni 5.776737595396147 8.90596279450996 4.12832019095013 1.0853022393674598 0.44667286711419196 -0.8321089989050895
Ni 3.7795425403368417 2.9532828323171363 4.127109173405072 -0.684223515943299 -1.7144465549484278 0.6289332280114266
Ni 7.411280251370361 6.119767280425417 3.265689497374473 1.6311101595126167 -0.6252514082844651 0.8441196502127204
Ni 4.587604801722773 0.696498764279522 0.2548396541170941 -0.3879758674936157 0.754476595832591 0.7731451187763717
Ni 5.7846731165911685 0.48188935208634043 11.839754405185053 0.7083394351548963 -1.594136410501745 -1.4872366259236967
Ni 5.208000722356465 6.578252821914345 7.9411661735397265 0.04710492390760274 -1.2495872467331963 1.9873143910215905
Ni 6.483982876037918 4.143215614801595 4.751422280630975 -0.8660599019292374 -0.48572689569286015 -0.33267220982530443
Ni 1.9192835010785252 3.8748975285087637 2.0425801674141897 1.2400260854073224 0.4864874280079686 0.19275200445717772
Ni 3.696637952742045 4.887977612101172 5.489887354507203 0.8432806992511929 1.4244392309815015 -0.04856531050321314
Ni 1.3035036078375355 9.490717834318737 6.573058411806503 -1.34207445543034 -0.7025662801165449 -1.361838525431145
Ni 6.326394275527755 4.172741638622235 8.714811445028968 -0.6834210746466618 -0.3697557449411632 -0.9598113220507857
Ni 3.073382301990566 1.818530887250199 12.168457853804307 0.18313350753080715 -0.0406563400687816 0.08715474074063699
P 8.665294896204879 8.867305863914517 7.728553055264782 -0.7371725573365047 0.2661654843523223 -0.07534360703832187
P 1.9174996179825414 6.858497178183935 5.296977868696558 -0.1138934422870619 0.17714206583406267 -0.0350104546369139
P 3.980165021719193 4.315764925606427 7.79040782232697 -0.15010280232808343 -0.009575816613893185 -0.39915116738414486
P 1.384863389452305 5.9810749673495165 0.8559696373141586 2.2080435974179844 0.05996429636877415 -0.050058864329604116
P 3.6003910230221314 4.398871809222418 11.783917025226017 1.8018576346742452 -1.0274321065235532 -1.3033505564975811
P 8.877622960995412 8.698535810596537 12.074142851086796 -1.308860944792849 -0.02001552388997843 0.21811568003294696
P 8.727317017248236 4.058251285900095 3.5268049257854277 -1.3636107868402194 1.0098377904805578 0.1197290751322325
P 6.65365406617758 2.4185960577538874 0.7805077042445645 -0.11098372483943468 -1.825886650598991 -0.9472355422683042
Ni 0.6647585185541759 2.2899909599166173 3.300747397847401 0.41776261183774505 -0.8602857184496218 -0.5609936267466596
Ni 2.0243854793625236 4.028440208595046 13.03804753050904 -0.597864274520764 -0.30248643027054356 2.3565006366125285
Ni 7.8563682790920275 6.050352159334787 7.891249630310095 -1.441287155776776 -1.0367181598111694 0.11782363057940354
Ni 5.238345125535571 7.494046909859797 13.453744704933317 -0.6078486394269854 0.5789306708410545 -1.7837496122196248
Ni 1.136922029657928 8.94699210571759 4.089358896795526 -0.9108086668998379 -1.4889206984943388 1.222541555469314
Ni 2.8396844211429877 6.319856435933711 12.6272624712903 0.3983173586289398 1.3104210901911173 0.7650147763597535
Ni 0.23501464404007744 2.9053754563889096 5.54712517464932 0.4554716963527446 0.9616082660502085 1.376824714427332
Ni 8.414365072461043 3.219531982029575 10.033016456443097 0.00851215123606921 -0.2144174052457533 -0.1254235544138485
Ni 1.6700639982411496 3.7697955502247646 8.947853702862403 0.9133985391142012 -0.7981848353538189 -0.4559478646582148
Ni 3.5569893312023178 7.863044047791431 3.648629428803221 -0.8508736811071024 -0.518747830703571 1.5896197535783139
Ni 7.750595045828613 9.365846017599866 0.6695786810228086 -0.2871408010524087 1.2494995721153965 -1.228602674061729
Ni 0.6829063107100202 6.949852222300429 7.683132081342505 0.3046875516869204 1.1846514652917597 -0.6161448179975066
Ni 6.201182233682331 4.610179198633292 11.01156368969031 -0.4740432887073449 0.29548685902425886 -0.7157326422951737
Ni 5.543812117538583 1.6944222782476508 8.17683276248447 0.09520537895925539 -0.7960726741068226 0.9686698008826802
Ni 2.7960068711124553 0.8584027067327015 2.9794332711659433 0.9904724985800685 1.2681498402267322 -1.0391380821065717
Ni 3.03772303061827 7.85309476165816 7.387159209425077 -1.0402292582882213 -0.6563306461877729 -0.17770693719859718
Ni 4.06912929467612 3.0818695396070255 0.6952509656397023 -0.6679535751386819 0.37340131211355043 1.530689812011325
Ni 8.434659041496284 5.167596689759799 5.548282859606972 0.264395536936093 1.0274015103959337 0.2935006818321655
Ni 0.963894564621183 1.2471641659349932 11.258171734799545 -0.5365897439809985 -0.29980914054869656 -0.22586138541663683
Ni 1.2706029185724308 9.123651703862137 8.994446154652868 -0.5686516575125496 -0.02604296103098095 -0.16019721044960797
Ni 0.24222006050406178 2.092375333031105 8.105544564143056 -0.1307781338575425 -0.7898943132102525 -0.7645031268306576
Ni 5.457440911762415 2.730784794824756 12.344249418112458 0.33503479652021007 0.23679397316874062 -0.03501199729881067
Ni 1.659241161107268 8.866174845250569 13.217808694469438 0.23138925721340148 1.0809899851453513 -1.9122505200072164
Ni 7.146952913859265 6.870451033981764 11.787711914678145 -0.7824864507819557 1.2201537719634277 1.2307734564608028
P 6.422034317184086 5.966454482181401 6.1364870465771055 0.25921013608041166 -0.12295195294490438 -0.9621618245608332
P 2.1089636067690165 6.602004213857264 9.216897296249426 -0.11266831163070919 0.6511974387262657 0.4153444893145557
P 4.473353526116591 8.694637014551708 1.9353448856339637 0.5272255291572792 -0.6415120931177016 1.0780972369785884
P 0.477188728175686 3.2364788714414217 11.98671878647305 -2.1796395923539946 0.0060634325852605255 -1.1920567566168956
P 7.032048773821047 6.05039813570324 0.5427363171520336 0.3608640988784882 0.23840168397549266 0.17476148141702808
P 2.0654883527596777 1.7434055011976821 0.9148708824669127 0.7789943784682971 1.1139831522419201 -0.30808475029392746
P 9.107155382861132 4.1776886958678 7.435070263462781 -0.03513206781644272 -0.31165858368811483 0.7874373670293278
P 6.4324341717281985 1.952818664228284 10.28810346342247 0.4919921598762817 0.518121767083798 -0.578669446759868
