# total energy = -340880.1399035037 ev
CRYSTAL
PRIMVEC
9.17054854585794 0.00000000000000 0.00000000000000
0.00000000000000 9.17054854585794 0.00000000000000
0.00000000000000 0.00000000000000 13.42202477011557
PRIMCOORD
 96 1
Ni 7.321591613920838 6.875664526704941 12.265421425547698 0.04370489708711828 1.6288799846305175 -0.12274472203010475
Ni 6.0444185067462675 2.7362532127042303 10.382701416614523 1.5543359906753553 0.7705267073169182 1.3253895385754915
Ni 8.380193870178129 4.442534621302037 2.019129165438138 -0.7471654068831584 0.15111427431173327 -0.41806831600362193
Ni 0.6342681423387773 7.042421779078854 8.702746818405796 -0.11397726025011984 0.37877208950716057 -1.4830686105889361
Ni 2.284172687502033 9.054375907437286 2.869978149688194 -0.4652735129345148 0.8379603154795439 -0.28843689415601287
Ni 5.428570327953367 0.5084876514465164 10.954707037546159 -0.9531143696465844 0.4194813943010647 0.7782107062247371
Ni 4.814913910231595 7.4579943510419096 10.043458987326842 -0.6843387013649247 0.37533992389716003 0.5450016221937776
Ni 5.860347258965297 6.853095807056229 1.0173898116813798 -0.4534716352035803 0.5360279579402575 -0.5274175905634271
Ni 4.015984902886518 4.711295883693274 0.4019964920898522 -0.38827154435716354 0.012456480595797903 0.5595044437956429
Ni 4.5742787198284125 1.8583382718628654 9.133567261218065 -1.8982853160763757 1.7347844951748317 -0.45838912710985574
Ni 4.413821634215437 1.3420455666605509 3.279256057219362 -0.2012237893736147 3.0949098945696116 0.34297950528858356
Ni 3.2477313799887986 1.321008328597102 7.166596506943692 -0.4952124665857922 0.19052311512665898 -0.893329536278468
Ni 7.440175975472041 6.702084386310451 8.324956905911533 -0.9949619018099897 -0.3322577479957052 -0.737321167099227
Ni 6.32136906887188 0.882987171169566 0.4651320497060773 -0.7291211477869378 -1.0838539369567075 -1.7576806830467149
Ni 5.896112397782842 3.33522758241398 4.2240453882656475 -0.09835832276594028 -0.7957083487888683 0.7484028788346854
Ni 1.387769921056521 1.0837020472684762 11.600977593650168 -0.6671606469237413 0.18168083424468065 -0.09175804384060327
Ni 4.79668285998306 8.443544018627259 3.5523806665463393 -0.1680205631487687 -2.6531815159448886 -0.04924331040684422
Ni 2.3758873421980016 3.06977688800047 9.535677468108261 -0.08900593501676284 0.7880649733109976 -0.6185408290335089
Ni 5.643362912923769 4.779955779674547 12.003517899261016 1.2737515026842257 0.4052925043951923 -0.33230428496292447
Ni 4.682041834250204 2.649967522669797 12.736414372745646 0.6623259445392593 -0.5713047788646806 -1.1720859699219233
Ni 0.4126710104446275 5.220829894713914 3.9535508922240217 -0.14677348084453432 0.8361026934455149 0.7430303016688623
Ni 7.636765021839151 6.35565774939465 5.848580528294323 -0.10366199436704084 0.783393021756625 -0.11489694385091181
Ni 5.596290487910829 2.41832864026149 6.969789201524308 1.3482170779929683 0.47849026873510503 0.2868836907362801
Ni 7.148213225591473 8.389098472688856 9.933170303871627 0.7458502876161607 -0.9064362488637551 0.2040679436906292
P 0.7304763657579763 7.365646928505323 2.55509728226431 0.4660512716408038 -0.13768154584559514 -0.6358952611515565
P 5.509289495100045 8.33782593650196 12.611441807168724 -0.6274119062708937 -0.6356070404871763 0.533943564607403
P 1.925540050646193 0.17824428131823497 0.371727262937269 -0.052720470322167264 0.39071229258817225 0.8253896779033849
P 4.144235022466873 5.955803497414486 2.271234877798496 0.13001143089484707 -0.006819851135310836 1.1437938078454495
P 3.165645801128323 7.993902859303387 8.37269878095875 -0.0681036376464569 -1.8828586971086607 -0.14182102193526544
P 5.757417023558082 7.42553978020209 6.392641654096518 -0.21929221683955136 0.00851035146385631 -0.16989412602239773
P 2.5038990275195725 5.039959168329692 4.900649367361143 0.3322451495902149 -1.6462171903573843 0.2923974214656577
P 6.552760346472988 6.17762072247059 10.365883547876702 -0.05728160733028845 -1.2308426191358415 -1.231039051417364
Ni 8.165878153725295 8.588677117839177 1.0338793747859514 0.4725168247604894 0.19090363839452928 -0.8725503947495876
Ni 5.388614248510279 4.930701254516296 6.09529028996744 0.1488085089966921 0.06294163382954321 0.6025526811353688
Ni 1.9216242264730927 5.036969569546483 2.062320614361953 -0.24928644920879647 0.3087954032077069 -0.2917153077969686
Ni 4.8217184571553435 6.174631123687379 8.12058022983061 0.440420458446577 0.01808951051185917 0.3342498387250695
Ni 2.7474687934154765 7.297638141461497 1.2860832120143473 -0.5655863883236647 0.3190394495332183 -0.6869617408100684
Ni 3.843862879689974 5.002277384893462 10.25368830740606 0.9119438089455456 -0.13329318696991238 -1.1034585985615124
Ni 2.025664098238493 6.914969497210583 10.493809030043176 1.146914098641986 0.07780518120493697 0.3717198106460695
Ni 0.24347347513754872 8.106086178061089 4.540469658987734 0.4760839732864575 -0.3660484712929051 0.5551284262151343
Ni 7.1723225973738645 2.2307175607924234 1.9563806049650156 -0.45744938890440573 0.5473986616710443 0.6568698065206945
Ni 2.4671251283764035 0.5714920702204105 9.345957162503801 -0.7511002231611903 -0.11690086165481801 1.0167476302265135
Ni 1.7805445096604955 2.105750497544552 3.9420757849926384 1.019637550179799 0.5845770704935545 -0.5967576717201464
Ni 5.025002003865227 9.143376079802488 8.18080413832515 1.0890401091433373 -2.1173281359092826 -0.9678411343337977
Ni 5.901532191895963 4.651384690899676 2.288724030680276 0.2963021558367026 -0.42519258575322905 -1.2244022628271365
Ni 4.165180555046174 0.22725719437573674 1.259174988855772 -0.6443981564162451 -0.35230541067519966 -1.495643104819837
Ni 2.398043387168051 7.023924782926292 4.114883765210607 0.7784680736511819 -0.5468520451389549 -0.6163260807703772
Ni 7.2676779597904915 2.870354142173199 12.921584252226705 -1.3136866483162666 1.2833820837954542 0.5611059839548078
Ni 8.284104863888322 2.9314208240670547 3.8498934323275167 1.136171258303185 0.3281280420980478 1.7815592894365255
Ni 4.998544971688657 0.6779988195093799 5.584367857916806 0.5130037291309423 -0.7197376496895088 -0.4914231747466892
Ni 3.6164791317461136 3.5962030492010895 2.9582951161964957 0.33375978646252846 0.9505468660297242 0.7727224294166563
Ni 0.17318397270297295 2.120817708589995 9.852947263394187 -0.9976934418085398 -0.1728866329918184 -1.1236368732816004
Ni 7.904205725258664 4.086249644840374 10.682374763602217 -0.38598634786741265 1.290871964414596 -1.206828258499115
Ni 7.77707441258491 0.7495520235155089 11.59307258091665 0.9244044033064015 0.29245475706615437 0.6514931155898135
Ni 2.4547173763712395 2.4379077611269926 0.940443408152533 0.3843824937154025 -0.5930234014886948 0.12089507041587565
Ni 7.759677882242118 7.034837735539852 2.736871307667385 -0.6738642841961621 -0.6349115570820485 0.7222020520696014
P 0.7595965251941905 4.933782558783654 9.739074729618487 0.8313255837718457 -0.0036674215492582003 0.7664923893465445
P 8.971666731284609 7.922455116604027 6.671336454530618 -0.10421246755387213 -0.3605519669547081 0.5229914364712734
P 1.2990632062405922 2.1575916077331643 7.7402399878222035 0.12262259462994365 0.9645218401525776 -0.3551719335897174
P 2.1051727529944224 5.733206775743127 13.252920751726025 -0.8709912777925838 -0.15877359062920396 -1.4417563821037105
P 3.506643473382588 1.8495803981267742 11.13063025306062 -0.49624322184315184 -0.376187616609436 -0.9460422932911513
P 6.6041245881440345 9.056365916443289 2.4609285888125534 -0.1675251115695889 0.449634006625045 -0.7208342251877973
P 7.29471273651719 5.264105712683143 3.958637795429687 0.6287925886685043 -2.192311017174076 0.17631828438118666
P 4.655428902750583 2.5144268170997117 1.3728714481019095 1.100714460157472 -0.1614457381447284 1.2644777906917837
Ni 0.8199359825987567 7.810299309491568 12.550800638721313 0.25307856926137706 0.9619515083222403 -0.4102727312186031
Ni 8.247881197650038 2.337435232694932 7.572088812089248 -0.414301392762022 0.20177966187708474 0.11275110115250259
Ni 1.9561146590609877 8.448569479158545 6.5587532998620315 -1.3858400305520648 1.1074553784257315 -0.16629252471406847
Ni 5.409486416702261 6.236532325486978 4.129138465666502 -0.6095357973214212 0.5457860657682858 0.24732752571021274
Ni 8.9899344637268 0.7739034977760504 3.0312706722617535 -0.18447845159447585 -0.22603596332128814 -0.5874047697503367
Ni 7.117271795240088 8.684711100838497 4.484808098329535 -0.6786917874917924 -0.4379601698315425 0.6851737956717102
Ni 8.99128253434377 6.293894105821273 0.6991396847699155 2.1293156472884616 0.809145962351013 0.3412604657149478
Ni 0.2353126041032579 5.569558339281817 11.801354993567415 0.982811639600701 0.07476999392303897 -0.21696819669206505
Ni 3.5284510375128764 6.944764609010123 6.249979100627534 1.8847726263019218 -1.4012108565811803 -0.570381752829779
Ni 3.9560828806413357 6.593477581434502 12.045582287784656 -0.18671094046942038 -0.2075183641330749 1.5997038772871934
Ni 8.997234220264946 4.853879570445891 7.832395745896922 0.108591056237542 -0.9497292552244353 -0.2170525288757552
Ni 0.7475555951256168 3.9215190836661225 0.060634749063521294 -0.5241692588294585 0.1516333800399969 0.6157349841535976
Ni 7.652492512370458 4.00052335825924 5.970881713118026 0.0134412131065704 -0.40178706234509515 -0.4076424926846076
Ni 7.120793285831353 0.2030753752608682 6.878116731351047 0.22723923960076992 -0.9674022470241662 0.4528805385868007
Ni 6.797898276147816 4.217764479656381 8.354848308469428 -1.3056573502538869 0.49956611556879776 0.47645241236946984
Ni 1.1777551918102076 5.9975478337984525 6.313545674019252 -0.589964560057713 0.8338923160577574 -0.9132658701910787
Ni 2.3958057733548506 5.146621816941713 8.138296812313076 0.7109192800669304 0.15657015521998197 0.5084413065712404
Ni 0.13258595487085076 1.5158366296685806 0.29767233332359466 -0.2501166584195757 -0.5487670027734807 0.9273629717140932
Ni 3.1399315833733485 8.872633978953665 12.096545776489977 2.0282900621030033 -0.4119331496401615 -0.3453004401122763
Ni 3.7827870272477027 3.245502936724013 5.573992299440352 -1.3927758384399498 0.12093055163950141 -0.6398007668535497
Ni 0.9250607302416224 3.4567465194579037 5.846030198780181 0.6440394875252456 1.1761681104110968 0.8023178836855859
Ni 0.27720183515217767 0.3274738645070253 8.130391799579558 -0.5668606270503979 -1.2663788643692384 0.6585338244866787
Ni 0.4285112987214345 1.224048120207893 5.541699130252632 -1.1612608542819614 -1.2650452331594795 0.9385372431633578
Ni 2.5623337620183944 3.797670827324851 11.820159203091873 -0.16587549178130787 0.06670984262272381 0.984325505142066
P 7.142509144477494 1.5725289599685983 5.1917601732939795 0.16781333223396905 1.6783549514321932 0.016333447052700904
P 0.23382514115038455 8.517761266947874 10.307202125625524 0.48574772162846663 0.4388194325080443 1.1138625675036558
P 2.9455342980773636 0.4617985553573137 4.948204163220699 -0.3452515891522118 -0.07491963212702582 -0.2741433603514763
P 9.034127336537507 2.757969071350371 11.876934985382464 1.2708623540618889 -0.5739684417397728 0.006382506487576104
P 7.296115830424647 5.231119250035269 0.18042687184094677 -1.5960174295745415 -1.8714743665311189 0.2452431323773583
P 0.6250223954270209 2.82812376672325 2.1965811113733382 0.11312211133867614 -0.3065870827024784 -0.5198983993682466
P 4.4030278987312705 3.9888125679335977 7.903908599490026 -0.5745371697590493 -0.04653311056453276 0.4553259148034997
P 6.921746532489087 1.0896262215444081 8.961469998502242 -0.29957439883007114 1.775790248163232 0.25923559000170837
