# total energy = -340876.14344810107 ev
CRYSTAL
PRIMVEC
9.14611739236529 0.00000000000000 0.00000000000000
0.00000000000000 9.14611739236529 0.00000000000000
0.00000000000000 0.00000000000000 13.38626730743769
PRIMCOORD
 96 1
Ni 8.1841470295628 2.3483296553610167 2.689167035727482 -0.006266035514369854 0.48216411804226644 -0.1440763936283454
Ni 3.5855432430723373 3.1491179609384066 8.368733055538842 -0.12757556775984483 0.4387345861037218 -1.3830287863555148
Ni 2.365771301169207 1.1396976844040718 8.136976843883115 0.2717838589803642 -0.45116149901316493 0.3505457476716156
Ni 6.617673216841074 8.68746701407801 11.68461857660981 0.4970785732602536 -0.7499835930582439 0.23226574628108387
Ni 4.02590135567167 2.038733582677622 1.8635689721955586 -1.420217222480354 -0.7638053294326845 1.2295542393417211
Ni 9.005084231687354 7.526339976696178 11.8858404754545 1.2200838379574408 2.2186373137734305 -1.1966256069345003
Ni 4.884081547691845 0.9438335811096878 9.004433028131222 -0.7085371529879991 0.02845414157563487 0.3133213161025185
Ni 6.116493423788431 0.872867941890848 2.4221379078557796 0.04554452139901834 -0.05828896554888026 -1.393322712082355
Ni 7.2564380533612605 6.649977303361539 5.020934901770476 -0.4842310278736241 0.9683872366452548 0.15040696383206353
Ni 5.857996708803178 3.143593706052121 9.04472624816687 0.36999100088042086 1.5342819002379575 0.7120683060697092
Ni 1.8528204550724412 -0.18696218726653333 10.732934882968832 -0.6711723391862957 0.5658874645038513 -0.49831347410861915
Ni 3.3674540745897508 7.109277025016332 10.874160081146211 -0.3910642766109523 -1.1697933172330048 -0.5942883842440474
Ni 5.935692975788273 3.280190968844632 2.1538237504948006 1.2029042408543607 0.8375916192862156 -0.5706841145615462
Ni 0.42807396237123624 3.5134809843818653 4.537515954021935 -0.44449308585405384 0.9068052021673996 -0.7172411085199002
Ni 5.079131646541065 7.647827853607657 0.8509593323633501 0.7130684651994493 0.8792481184847374 -0.9631424433065477
Ni 8.485694518968161 3.6495477723674155 9.59388382906221 0.3527196153944829 0.5678227338533511 -0.7962719346018222
Ni 6.503236996415235 4.295455726546855 13.16859349611997 1.1383713512782976 0.7200176428237729 0.31292485199504816
Ni 1.7621915781383273 1.2579112513001687 12.957572447134273 0.4393909887407982 -0.3860601385281416 0.9342476146490684
Ni 1.2609386161467921 7.90920559556175 0.3317973579664576 0.024548378763325465 0.5594972447067913 -1.2649968964200473
Ni 6.339018459191296 0.9838295523310906 6.233435680371293 -0.3262691345124381 -0.7336396044825816 0.08038913988202928
Ni 7.41725423492676 8.610356098604045 0.483682355928549 0.8259159827205002 -0.4671830712524019 0.9696769019909557
Ni 2.2658591151132716 5.610786302641894 3.9049750503661818 -0.7051515243452179 0.4086223400993737 0.6690730334551058
Ni 1.0533674826298158 4.206811557080164 2.1850540828370377 0.3512432879592725 0.46130887185981195 0.19209380204788853
Ni 4.969670913959828 8.281534887226988 3.51153926366604 0.3606632957215917 1.3496854350083787 0.46249646441000997
P 4.467896623278693 1.6707212584069642 6.8869934471118075 -1.263756853365359 1.7446719294918727 1.1900386977456021
P 0.7842374916001998 2.9300684501328726 7.89837933644106 0.10182725515114721 0.22752000406598238 -0.3934916551055223
P 0.3757728048518056 5.699329864817608 5.25168686973992 -1.8559960683898618 1.5628962215405404 -1.3420029787624568
P 7.3980748268199035 6.568704904488137 12.637225113492551 -2.0962296633677706 -0.9319156240817822 0.49526774530376
P 5.178476773320593 8.126526490185979 10.285057747286691 -0.9353159080125827 -0.30531258686542906 -1.079474062721457
P 1.3286015923864305 9.182335986151289 6.228148309924667 -0.11607965130510331 0.2662696140303543 0.10144004701505756
P 2.276724702538615 3.455942760061297 0.26260149245704867 0.29366600376543617 -1.0453125863483999 0.8898973706684675
P 6.996825512057917 7.764075005271052 2.882746438904989 -0.6038893976689212 -0.6977606311977854 -0.7177833541766154
Ni 8.13666038822241 8.640135856732766 6.883378901530581 -0.39671916090388454 0.38341987269181704 -0.06418399087707656
Ni 7.2083477682750186 1.8875116782242318 0.05688061848228364 -1.5049432991748404 -0.7171812018162422 -0.029099745579433758
Ni 1.8100989408773411 4.892989866001849 12.12674006063642 2.9146675925436707 1.9326673931006715 1.4470166020613853
Ni 4.012282786920545 4.839658855667524 0.5384749158172251 -0.5193116736268412 0.9859442716924116 1.4127476535761863
Ni 5.947601220592815 5.548985987630913 6.735113022208396 -0.7046609578620444 1.5056768349067553 0.415459160515549
Ni 2.2033271107133787 8.345255886883864 4.006469514725639 2.1519431548799908 0.18169343265017096 -0.9135854583140266
Ni 6.200784041391095 5.67340062209804 1.8945450424751484 0.2401667462957154 0.9650139492976477 0.6954499807867377
Ni 2.046937649950798 2.240387178261772 5.966834590792104 0.8771308150314184 -0.5970973144477524 0.7753603812601356
Ni 0.69714999130842 1.1627550462721616 4.182753609972738 0.7864014695656456 -0.15892014350939726 0.02368037433607535
Ni 6.025160295817488 4.659635827643085 4.473636726534708 0.11646017457297363 0.07060763501523323 -0.8746921236829387
Ni 2.9857042820422697 8.847487483433067 1.5978788359055651 0.36141508628595176 1.454097934388199 0.21073429996721127
Ni 8.910485939818392 8.7039849020327 2.5835897445778957 1.2467806305223366 -0.20527713350738194 -0.9008898651242291
Ni 7.473265057647973 0.30110756116027937 4.324513856015759 0.06763055466478031 0.16333318497542837 0.35654978777385044
Ni 3.7339207050263314 6.720859712912391 2.4270237637502396 -0.11604391297116143 -1.856925007962034 -0.25018376421208527
Ni 0.1549141920321872 5.64772747066459 0.4124267847893528 -0.4191708050391813 0.8028627004454625 0.4388610843792571
Ni 0.04510773621468937 3.0350658774417467 0.13201688721792196 -0.005515016280958244 1.7608025165051482 0.4334491693350664
Ni 3.166669360154933 4.182958483001633 10.354210626044502 -0.045935071969217665 0.604960519245913 0.3105697214993103
Ni 6.770568860771601 5.084939431065553 10.83920819364962 -0.46889773995066336 -2.3160157891246045 0.40469677979272234
Ni 0.29840945653866635 1.3189158541007078 9.514182733151497 1.9620648724261822 0.09141197335509417 0.02173302080171741
Ni 5.138901523497815 2.4462937184189735 4.3444597087575 -0.3443794709599037 -1.0683095614642053 -0.03536038177716491
Ni 8.160806138056506 4.244895989773035 6.425220615322493 1.51488395532732 0.000540445884502295 -0.18494973480393953
Ni 7.766242635085705 1.8314642710335718 8.076778014022114 -1.999639745356163 0.47440195759834425 0.3195048192054111
Ni 4.422385543288366 6.70132360622844 4.986772324202174 -0.6879552150715893 -1.5362035427407028 0.8472345416926182
Ni 4.037946792236634 4.03223961500312 5.860133241818801 -0.04156882458072196 0.37138890966921195 0.7756483448141996
P 3.490871782264484 1.1400726752158894 3.849435252689079 -1.2518444181984891 -0.9612552535861638 -1.1373035721354154
P 5.010407720687504 3.849774573643187 11.380228473928524 -0.16070243222080066 0.018273858608523364 -0.5823255554552165
P 7.938774992991157 8.941061410157552 9.063024885171824 0.4226716191035882 -0.6127967274608802 -0.14088925414961545
P 7.357987394424886 5.199741496185848 8.341063306685397 -1.1153957163187307 -1.3672100741557034 1.0106358609018207
P 3.2966631262125135 6.849390100192147 13.11085863027613 -0.9755755268635778 0.3059700179437698 0.3687946665794746
P 3.634840815650284 5.3845479435903005 7.513510717873342 0.24504207211014573 -0.28084056986599376 0.26762587094793266
P 8.05220514050724 4.443174668050828 1.732932234087472 -0.8092729748471804 -0.597468581744242 0.47796370680767364
P 1.302809541427282 6.849207177844919 10.143510605778191 -0.6465475986590801 0.21375611751267057 1.0893625254797625
Ni 8.682400065059795 6.220283563605599 3.1528806736208863 0.7744304132466985 -0.823178272074363 -1.1810125829875917
Ni 5.464110018517119 1.6392494685663863 11.439475192972202 -2.3948275572171855 -0.44696468732299793 0.7929112456597054
Ni 5.9877435296920005 8.044010219351426 8.202956934528254 0.40159345827705034 -0.09253425988499547 0.2426360337718144
Ni 1.383085013508291 5.403663328875626 8.601693810851064 0.5205134072444261 -0.6387360730344612 0.1452130783359499
Ni 5.309714411339324 5.869392771035482 9.133182007615916 -1.2942362529011386 -0.023149184422953682 -0.04137393496109648
Ni 1.1471700622883358 8.20811900316703 8.244240679074142 -1.7587366351150548 0.1206688133376825 0.5936386664751906
Ni 3.766407713894025 9.057162223943166 5.793670236176979 -0.21996301765433088 0.20619424600501263 0.3083315761974109
Ni 7.129471652150303 1.5359074884999262 10.21459240068752 1.247015372240962 -0.8733098986234313 -0.9825015645594498
Ni 3.2611853369676425 7.346829131243978 8.244922979429303 1.7858154936097181 0.4161716132015413 1.991826419959331
Ni 1.7194517717085043 4.640840556465408 6.315332759060477 0.8831970758301563 -1.7348873393012831 1.2126394658642534
Ni 1.0720987309859635 2.866018190250988 11.439154164252816 -0.8315808943157613 0.39670424850554903 -1.663156132204568
Ni 9.30672318226633 8.003127074745967 4.813232978775231 -0.7158249448986639 -1.813629687608509 1.1867469143682077
Ni 3.6156248230739823 -0.15309320006553245 12.330545737635706 1.010664657257227 0.25706712159547984 0.8841396422490837
Ni 8.697765542226948 6.388855652693565 7.259667547401571 1.0206230540215198 0.8675542270865769 -0.3525463230414122
Ni 2.8628353414092205 3.3077299282198074 4.016027207368302 -0.47640047608561176 -0.6729800818189957 -1.8952645269721808
Ni 5.063107648923891 6.009218613256569 12.153405565803581 1.076422420379327 0.8353488459986259 -0.5008902336968599
Ni 8.785229862554017 0.8931000681060013 11.69424303590921 0.5218272409598432 -0.624331467573357 1.9217052376622128
Ni 2.17309004671659 7.026705877477611 6.312308138049063 -0.7570271301685866 -0.11132773844241471 -1.7101402142635904
Ni 4.6197313175952965 2.775032614739779 13.229608159649606 -0.7368318861676343 -0.45901699050184175 -0.14808654322900303
Ni 8.808351247243637 1.821046843358937 6.243140625503475 0.6970677188958189 0.10220932108091431 -2.5421026602884864
Ni 8.981459810542857 5.316519122656206 11.461121308931428 -0.7898135805709882 -1.149169727445382 -1.4793520809692975
Ni 1.4616227232906343 1.9137884734035344 2.0475897681186654 1.8603224636793574 -0.2191070974119388 0.5699487790574185
Ni 6.191802554142199 3.27207836274507 6.640217481525189 -1.317919969671324 -1.3176106659610212 0.25106488126545795
Ni 7.592438966867017 6.794678026136251 9.786432464813087 0.9496402950550548 2.812235356818673 -0.7749808864335298
P 1.6316216066869786 7.12625221883909 2.191947511492325 -1.0771698400683127 -0.7832809216587929 1.6695319538239246
P 5.313436881105413 0.6975826026596142 0.21775350597542306 -0.17257784350214794 -0.3181364781029747 0.3861408711674059
P 2.6600476272722564 1.9460651215719156 10.410674181575107 0.8019787551786123 -0.9980629093328167 -1.0761185159856628
P 5.7462311546468685 8.011212242493446 6.107498217363493 0.6324718372923043 -0.8039410211113057 -1.0472861651350027
P 4.311406555225137 4.61883499809388 2.8379551583510034 -0.09031642629807027 0.12827285093718555 0.657150570985907
P 7.214100676095339 2.5976253762807002 4.659357785675299 1.4660044560177978 0.23787049406237096 0.6124308594810292
P 9.035101788867468 1.0453646299385908 1.0496011115003914 -0.7269830183980125 -1.5050196609387307 -2.106445170448192
P 7.761998836630015 3.1093049120642315 11.598826166536403 0.9648859083602157 0.0484678656934004 0.854622092405941
