# total energy = -381162.52084034705 ev
CRYSTAL
PRIMVEC
9.31454584058748 0.00000000000000 0.00000000000000
0.00000000000000 9.31454584058748 0.00000000000000
0.00000000000000 0.00000000000000 13.63277936643076
PRIMCOORD
 96 1
Ni 6.400220162054828 6.429290860120777 6.134451015401092 -0.7784899280280528 0.521112988501638 0.7260607636940593
Ni 5.778697765659913 2.195233572184168 9.01744272058606 0.2645138076815122 -0.9245121325288593 -0.95942385680438
Ni 8.635590112952926 6.033310880569469 6.159930955984048 1.8502455390593295 1.410909829036499 0.6212096341149237
Ni 4.931865816071391 2.6097774419134447 3.9229551773555524 1.6429552317766607 -0.2873809420876728 -1.3373084015002645
Ni 7.761913641792451 4.882237914983477 10.955683311357678 1.1962491974316882 0.6402339977362265 -0.03485464578533997
Ni 2.572686919741509 7.5369580413468436 8.887808458085885 0.29101828172994393 0.6013535186209449 0.8671582771997388
Ni 0.7815639943120357 4.614631008403944 10.671003773414773 -2.1418952837256855 1.4573048713612706 -1.638997018459861
Ni 3.3527615181481476 8.40906966877932 5.731779466003395 0.155560483008545 0.6469296645888472 -0.0730668951890032
Ni 6.5326636916285965 0.5567686040576281 7.234289320714172 -0.993005035193935 0.0027078858494663043 0.04949707828886314
Ni 6.463736051228717 8.106896481993848 9.983216765321375 -0.41268802552831507 -0.0904264695133733 -0.2512597708850834
Ni 7.817223415940355 1.3481501298536467 1.4296421613529045 -1.8851924874481598 -0.3381761703626692 1.0962068020951057
Ni 8.739186493564745 1.2137039728898815 6.656654270707381 0.4879293026608178 0.07285812161230679 0.21759426031183815
Ni 0.8798585353406642 2.271258896636035 10.366079069740906 0.4595975455956601 -1.9573034464817969 1.325482355399614
Ni 0.9935081054502658 8.74253041557874 5.645742867510744 0.31128860194320584 -0.002983508108356152 -0.6455307273587915
Ni 4.037408592784953 6.615451376476452 4.11863981699621 2.8747406744417456 0.282972528607332 -1.073613490175622
Ni 4.748201598043712 2.3773515755758505 6.516264501941025 -1.459262509308274 -1.8801837213796588 -0.07232307504444319
Ni 7.72819498527251 4.293018364116507 5.079465043441734 -2.0929389084316408 -0.29113578114441474 0.4490953605127556
Ni 8.697559787490817 7.353992414269164 10.082108368748603 -0.23862896949495033 -0.4941184621906652 -0.19162868948601192
Ni 4.03857291103495 6.106225146657341 6.895827594167363 -1.1595847521311191 -0.3158415114212109 -0.655165165124762
Ni 2.0707074067103854 5.549261868588314 2.4098118369311936 0.036789143803891484 -0.2520133612216563 0.027741945999958672
Ni 5.009157918779256 1.0107307010042357 13.550587286218347 0.13104835679979368 -0.19645722122290682 -0.5238944079015171
Ni 6.781790538944162 3.9640938012190805 1.2255558012202608 -0.9609798884375902 0.8153135246143056 -0.32589709588500004
Ni 3.191694388716429 2.8922689930009513 9.680568536689902 0.4363725136294485 -0.7360299590916292 -0.34778309732481394
Ni 1.0910034584320956 3.2667323712922975 2.1684980308004147 0.4355366479917144 0.33747400208932204 0.6766909550116798
P 3.1232883628925485 7.474531954054953 2.183316542031789 -0.7377047756908908 -0.5156193123769184 -0.8963333561017983
Ni 3.596895768807721 7.857862780138284 11.179165350626086 0.5609355198152146 -0.5459449599436532 -0.101722868362799
P 2.507140459539624 3.848397825353283 0.7221213561039396 0.8267767880588986 0.7384956470233024 -0.841853222776047
Ni 2.6016365287094585 1.7489271005949474 12.919839763465049 0.6912128027769386 -0.6471932026628789 -0.767535228788762
P 2.3763269755158523 1.1135539742980562 3.9953590063226256 -0.8717276417379761 -0.6819396050051287 -0.2257539133044951
P 5.4173120099525445 9.035221394536228 11.615591883273124 -0.509280257532768 0.6645849157767652 0.6205468037199442
P 1.6959925356770396 6.3946500635468375 7.39597400454569 -0.23003274318550704 -0.4792626281247553 -1.2847036308203552
Ni 3.0050867741527543 3.083217186000618 4.484312126772773 -2.4059288093366695 1.7409268606271435 -0.6776520333733684
Ni 0.11853877530499309 3.7516103778674514 6.608926537003463 0.8499177449517363 -0.18046650222160532 1.1546351214353276
Ni 1.8827957557067136 8.503686827047156 12.650442601144318 0.6625498876246073 0.41951173331836783 4.009406551843998
Ni 6.815034153618105 3.3587135130421375 12.475602052542422 -1.2533806523373574 0.908705761624222 0.6705889558789999
Ni 0.06813310962608107 8.130238734269808 7.690728155442176 -0.4530767137580068 -1.6697970345598532 0.11075849620250604
Ni 7.6823767334985895 1.2659306323117903 12.813272042679234 -0.2918734306413877 -1.5152233409446099 0.053134675041450426
Ni 2.9436293996448617 3.938748921553125 6.598606020035482 -1.9599072026532314 0.8253464833702752 0.015412220790012168
Ni 5.090054750789116 7.753055508546467 7.963997374535098 0.5814284975622438 1.7078383056032909 -0.22791029752586556
Ni 4.472314060070193 8.867242871972522 2.9144702133919127 0.5704426879747014 1.7143393399466025 0.9086471404721447
Ni 5.101893538755095 5.125617687417053 13.563961111365124 1.7026410776730676 2.576762159343885 0.085901070839194
Ni 6.585654143822505 8.488615891619181 1.6272223111045594 0.0036244841264647257 1.475318277219556 -0.2783399149313271
Ni 7.984671009382063 8.321997292771474 5.678789013809487 -0.3301214183789927 0.6535847080115196 0.003438336257587627
Ni 5.902637114735696 6.1765033962272184 11.366071030661761 -0.6208118844558728 0.7856108553435502 1.4498013638953742
Ni 1.1496012673179934 7.445610288725003 1.0994703807460808 -1.0899788189075228 -0.4262863330380401 -0.7709666230678143
Ni 0.0869624643650482 2.5961875192994683 4.604416677260363 0.5125208759572528 -1.2018336334980013 -0.8739642443779787
Ni 3.1895334140444325 2.155097193470238 2.0849698395455607 0.7052535971407209 0.29223904151092245 0.21993782084335023
Ni 5.225860831468878 4.657906389119869 5.170422516586175 -1.096391407302086 -0.8801135518088261 1.1745639991487706
Ni 6.207250712573165 5.0968450548231035 3.1965323639088203 2.454585136891792 0.19370974038475672 1.0799147498033013
Ni 9.257019363887842 5.715302965584024 8.54164546490629 0.008886760966668565 -0.9108192084227991 -0.06000466268840633
Ni 1.8016008582248553 1.8459939844607778 6.0605475445280215 0.37068108496891 -0.9815803382967612 1.4177502489971001
Ni 5.716793292944021 4.048679193444933 10.297983218298825 -0.7551808209884672 -0.44802989536271876 0.2863080207384682
Ni 4.547473131744062 5.955869745125604 9.453896265416498 0.27852914812399776 0.6207828309901502 -0.30781838400641826
Ni 2.6951731996412955 0.18048423202328495 1.1533373317185869 0.5659077762188255 -1.5762790706053498 0.223552277667486
Ni 1.6147603800111814 0.40885920230548634 8.273134115910159 0.4638504073347431 1.0078588123773158 0.3689167939796356
Ni 5.116806126901069 6.683754942294334 1.9913400231537242 0.29715601919656565 -0.2627505451335023 -1.1979515248347754
P 6.653454724156386 3.4451152417379864 7.007780053995767 0.4892446790381317 -0.427517891452296 0.03012304463762554
Ni 6.589249558578499 7.434274486243023 4.009277732410402 0.5234894591536146 -1.3835941719406817 -2.4061990322789204
P 0.3152489464602497 7.033870097341722 3.995739971254025 -1.957455398678629 -2.577295920360168 2.3298483241323233
Ni 4.789921449577639 1.8006694036248567 11.255018355976954 1.4871157840751161 1.291085365976983 1.332766033545221
P 1.7180400660590012 9.251579669023851 10.894853737250182 1.1956596434768052 1.5090197832370593 -4.414676173421055
P 1.079369590478116 2.5505928166295475 8.317795501070881 0.5203408862223038 0.8381341220532468 -2.1339994259173762
P 3.783382294273396 0.3375125743094109 7.405571712744073 0.5972029867876812 0.5125206188469368 0.6335162193964186
Ni 4.343475259798418 3.2117392917083936 13.162380295304024 -0.16420427472647203 -0.6488788178954179 0.5089005055958461
Ni 7.625995786560688 0.325983029270631 3.542750312909816 -0.32957120230247755 0.12283419642011749 0.8799173766376199
Ni 5.650455096332137 1.9982122951925119 1.8396619560899887 -0.16103693274208394 -0.13518526178630266 0.43773519830492996
Ni 7.591941806384748 2.9002143007389374 3.2520722073429233 -0.6824985628323924 -0.8340170145610798 -0.8822694218095645
Ni 5.614985305164199 8.830608762554586 5.317520621381718 -0.5129204253885166 1.0416068553620383 0.8231517897118016
Ni 3.1352296108645272 6.511882939502633 13.545488503737955 -1.708594209932709 -1.8945795850900145 -0.37344964885298265
Ni 6.534135389896594 1.971386402712559 5.226071340208478 2.8422678986250216 -0.794512014487922 0.4479435062964995
Ni 2.4097103083797937 4.885721555187472 9.025908711445444 -0.414063565719603 1.0459517625942953 -1.1692366733985864
Ni 1.205320881489896 8.543105985719087 3.1590972035348854 2.778576274003331 0.5445401091763267 0.05439760091427406
Ni 4.608548609865956 8.090139613739879 0.10457161357801746 1.0724168987643594 0.6937584520169278 -0.5130538656425874
Ni 4.667742549695852 4.092969859674856 7.95146837871052 1.5892225181398951 0.8780684963543395 1.5590747909119214
Ni 0.7191639877489447 0.9290225720377784 0.15344503643993215 -0.8298209742018612 1.1827156817216276 -0.9052170317446732
Ni 0.5703100910324045 4.913776967739422 4.480481054002979 0.9665195873088966 -0.061087097119307696 -0.929764124956418
Ni 2.391230249115826 3.813328559663344 11.760167609011871 2.0635023483380786 -0.6701395270464071 2.1243145945294444
Ni 3.8413932867612948 0.6279801711367038 9.692688623945081 -0.7654942870993332 -2.3123419398174434 -1.5307988267853634
Ni 7.72250379766652 2.122710517028295 10.69603382142593 -0.5139784343393857 -0.17687492821560508 -0.8370010368900681
Ni 8.038965498015967 0.2580175814725496 8.94302136095539 0.5134696130237673 0.9090484896756216 0.7923492025086483
Ni 8.703726016942808 3.0439936327946864 0.4962100832387339 1.0404344323204922 0.15180975771686112 -0.2725965846896467
Ni 7.720743348472523 6.511650075852634 1.7274775640661846 0.06323165426613626 0.5562846513067646 -1.0380335361884834
Ni 2.317840941181954 6.35347977022691 5.2053222575389135 -3.6572973163400047 -0.6679574317934239 1.7938517336506332
Ni 1.1603875115859745 6.672950068934352 11.678384032222816 0.15018739162208974 -0.6880745142582729 -0.5748930104365712
Ni 8.412581252621315 3.4018584901140616 8.806939569714027 -0.841337459481893 -0.26029745560731943 -0.3643116911074565
Ni 8.740676820924742 4.706425859233785 2.376029841498452 0.12196439222065446 0.29121085735672425 0.6659540282101498
Ni 9.015036773354263 9.272267275689815 11.267137511777532 -0.7205130944029527 0.5223273205247134 0.42664577325998776
Ni 7.05805997330368 8.097106894147865 12.736192311620167 0.45933426463194443 0.5252074702859858 0.13153480951790894
P 7.261266108839325 6.649048943898394 8.19842679971729 0.22945475919484998 1.0825097642239871 0.1222065901384476
Ni 0.4930785328735393 1.1253555040800356 2.5003883451442355 -0.009393782510074146 1.2488179726673396 0.7999815222429255
P 8.733243813216756 8.887436807700487 0.8921369698778427 -1.3462370714484622 -2.9358563108061437 0.14024107904265523
Ni 4.408593250884304 4.408462847240305 2.2570700487142603 -1.9801865217275574 -1.2054380630198078 -1.077124588652674
P 3.2513913140303243 5.657105682176126 11.118704632540192 -0.335274423334842 0.34221254521557193 0.3692070715265448
P 7.3637447439311465 5.972412378821574 13.120650197769498 -0.38071815748993787 -1.322829234047483 0.1963014123713329
P 9.102593505754111 3.2657264003242994 12.060333511134349 -0.37809563226542625 -0.12830524683701772 -0.34088508465340006
Ni 0.5538373164314333 4.878707702049485 13.516219405842206 1.0323727383582801 1.4100338541894493 -0.10314854506573204
