# total energy = -340892.89202575415 ev
CRYSTAL
PRIMVEC
9.08183875526025 0.00000000000000 0.00000000000000
0.00000000000000 9.08183875526025 0.00000000000000
0.00000000000000 0.00000000000000 13.29218902464978
PRIMCOORD
 96 1
Ni 6.402033334002785 1.8760717548601364 11.375415331164577 0.7285462491200744 0.21508872028116507 0.5434309352725479
Ni 4.778681905623682 0.40754569686890724 6.16725690449452 -0.6667269018204325 -0.43566494603946254 -0.43240015924526176
Ni 2.6899952241366196 1.4879593765165504 5.097261910243758 0.32173088032245234 -0.9896996249697857 -0.32914825583244606
Ni 3.45507656469585 4.413246878601587 5.29508978704223 0.2747308574238301 -0.04809659839691072 -1.244071716231606
Ni 4.98404044310128 4.488617058264005 2.648907169331377 0.8940041937479893 -1.2857482700347855 -0.1841966586879989
Ni 6.985205444698391 5.991743105468136 2.655380703981741 0.9649794965152864 -0.1548536867495075 -0.11320747196363083
Ni 5.273533134620647 4.3710799013546175 11.80240070384592 -1.1283553618031923 1.0530688332550509 0.7792810564707805
Ni 5.615682327126 7.979739440899382 12.524073579803096 -0.7422175759595798 0.20775079185885514 0.08998861064500631
Ni 1.8602330281061592 6.586839670422901 0.5768239054197851 0.01946350804125035 0.11167149493507865 -1.3151220952112124
Ni 2.8092670122444074 1.708838776392398 0.35824675166327985 0.597414588577855 -1.5626121146412186 1.7341846568073036
Ni 0.5997846101098109 9.166299835314879 4.752090281807372 0.5716145967956155 -0.019985956203623645 0.5719244147265505
Ni 8.670249803604882 2.3338599999792455 1.3499681024080183 0.6809751842093305 0.9768266256618596 -0.27425263223583085
Ni 6.767059678281801 0.6425909488037307 4.763655095252621 0.4602274658701751 0.16812057906174271 -0.10285081131965514
Ni 0.944720110739086 7.581201111687926 2.600749811254749 0.05402093430114568 0.22722946940875705 0.08204904408295546
Ni 7.63703625623119 3.951571606503865 3.82539852914129 0.17470311737526686 -0.5134279611525545 0.003743011982200005
Ni 7.709091564755304 3.8588369511799763 12.618434792444436 0.20629220503545762 0.6185315730621284 0.09058767768158592
Ni 8.149515334212943 8.833623000610212 6.752843876109782 -0.8053713257999291 -0.0177030737067179 0.2303379331307517
Ni 7.055834904541096 0.6808600008656052 0.30244157718784204 -1.6750860508729344 0.19501226124626414 -0.2323454504790837
Ni 1.7603146383428239 6.59780144977614 9.149225978492929 0.767253178771969 -0.013549970770292793 -0.46668993366606726
Ni 0.016069405457848157 4.889425847159231 1.207183433815112 -0.20455619618095738 -0.2386474814377116 1.1080906980168852
Ni 6.586040468614214 1.8701685596823352 7.002909581128552 -0.6820792159067866 0.2703952061629537 0.007944708768373413
Ni 3.485537051813304 4.435143191791862 0.666001204511143 -0.09230851702743458 -0.2218232107915212 -0.8194679131023113
Ni 5.906046875163934 5.727570580342169 4.999657572990121 -0.1272122708831551 -0.7146640918213434 -1.3589108102613885
Ni 4.954115784469196 2.7780345688344723 9.57113369513749 1.7404627765065313 0.8061380287626245 0.3980684758429273
P 0.23674628032990366 5.649929940995982 12.505025331240141 0.4935379070968468 -0.2921590802026065 -0.37980490164704916
P 3.9184501406370327 6.217572107454602 12.58924485456602 0.38661112593560515 -0.3371076198888388 0.7318115501349073
P 2.4758727122796707 8.757371882590492 1.3718998347693596 -0.06546157203791951 -0.5149875923301904 0.25550517642499865
P 6.374615262861583 7.76813259837205 5.714830576964601 0.15008351905437378 0.09538098530517121 0.5046281034727375
P 4.808624727933236 1.08492553713123 12.685799331261881 0.04130528650669016 -0.13828884041229086 0.41699256644093985
P 4.030020529497474 6.116364096590885 8.27695260352744 -0.07169598298340556 0.03641581962487277 0.3628327925690848
P 4.786519532452055 1.011571525668 3.729761318157671 -0.02255345982048374 0.4300807670834657 0.6542943324840345
P 0.019605873461287785 5.754452822998002 3.4748304721285193 0.6361413157240915 -0.8109321077171582 0.2893941158629597
Ni 1.3757895862995941 1.2391351588528656 2.7846207182851512 1.1948739143507163 -1.6634829194163674 -1.666333758601601
Ni 1.9032082890005513 6.5405041291965285 4.804847591203317 0.9605466575549135 0.21494113895970723 -0.4925994544429774
Ni 6.0071822313177705 5.575458863368337 9.178774649001383 -0.7493117638021999 0.6039804147208309 1.334281955969115
Ni 8.675226651231705 2.3994308756465137 9.968051824318609 -0.5776209508906955 0.17715749245303036 1.2798175063726476
Ni 2.3641570139994683 5.072942562478965 7.167706810447543 -0.5688156938942397 1.0074543778500455 0.7512444620485383
Ni 0.3181222799478289 9.04575658978418 9.20700736107712 0.7934192956443755 -0.06711941935631666 0.05741813290815272
Ni 1.38513479835799 1.1286818361568391 11.216215239058016 0.09619011147002789 0.7660920685843323 0.5116117338794222
Ni 4.125706782410262 6.604540174117568 1.6912844903013646 -0.005399059528384249 1.3632228073731814 -0.2443676717509404
Ni 5.8974100465268755 7.809000872679904 7.96760428798157 -0.6693286011093376 0.3633040757785485 0.3146726879240903
Ni 5.322002907949762 3.003191514754542 4.914560744042435 0.34328598078540873 -1.032586654141299 -0.4022791714901653
Ni 0.8502135886779841 7.353592069309385 6.766800845877851 -0.23433265611244158 -0.4661222340880553 0.6762114442721
Ni 5.204093395652237 4.264495441959735 7.131139694964622 -0.4401070409712163 1.1363167827421141 0.6001913799920437
Ni 8.082418709638182 7.1141312273815664 9.139841714527973 -0.004733400919927332 -0.021542759167782255 -0.5720108037927697
Ni 4.371188883419438 0.4884866764114222 10.553200143122966 0.14711158091024343 -0.7392178699013076 -0.18403133675472821
Ni 8.179512647554908 7.513105484852306 4.314804287632702 -0.8738395458746564 -0.42861652383311344 0.604748660345423
Ni 7.3689767041266085 6.1008250705151665 6.89584105972909 0.34418406711964594 -0.15790841441543127 0.11731300949157215
Ni 2.1145608400433016 5.394430571862014 2.6100014803741733 0.05372294344475263 -1.0727215744889718 0.3866304092093148
Ni 2.240035524007148 5.3048382327404635 11.340682747106142 1.4539714361126637 0.2511854660037222 1.8173477598900443
Ni 1.0320873993705426 3.30266514704376 3.679476993449288 -1.0507034183466677 1.5290034254478375 1.6141563052670975
Ni 3.329547389699593 2.686017378770655 3.259510973926287 1.2812624663492902 0.7045545141911672 -1.0355143693110553
Ni 1.0403064634257888 3.2965893969299924 8.196429388566738 -0.6837997981423192 0.3115886496821279 -0.6882560341414599
Ni 3.6222550521311776 2.60979350626714 7.080682815320272 -0.16921072680212793 0.05582276339657483 -0.38725827260130075
Ni 4.205309098923227 6.896820990128604 6.256845610880577 -0.32144908741597544 -0.0058631436489963535 -0.6418843888554558
Ni 0.7540450901283628 7.366451952958257 11.214779400353999 -0.5933249918895136 -0.32047309665595136 0.8258792159452937
P 0.14097738268462584 5.5954389085855105 7.968241833060773 0.42214531428647295 -0.7007050585380901 0.4117606286180392
P 8.519609344506133 1.580176367032539 7.947944831671745 0.47306009885846917 0.41063705653655735 -0.21440352128868234
P 1.7393719182197325 3.187825296238691 10.432693224947208 0.30582629327705396 -0.1336387432347892 0.31452099283757445
P 3.9453414651316008 5.882243375839293 3.801419750329062 -0.3952857708914676 1.7915901913099663 0.5520842400721717
P 6.836226962088159 3.9006679003937488 10.58342722698493 1.1134141671123274 0.3808400277797828 -2.4751148814140276
P 6.1774394620842905 7.818800176675054 10.363986390364717 0.7420108592654124 0.577919713078037 -1.0373755908895101
P 2.5782159529852717 8.432514511036729 5.941767563276747 -0.2393499068213749 0.13469315264123255 -1.1122610273444908
P 6.996439679213682 3.933871102809196 1.5722397481619537 -0.05633904091136104 0.6661337483211237 0.36558978648893165
Ni 5.392659613308674 2.822980588734376 0.769474225955388 -0.9362589886521423 -0.4330035971572156 -1.145546528870498
Ni 1.4228516746247715 0.7985152216785489 7.1202133347824486 -0.5643265477746345 1.1685507030751552 -0.21835170730315298
Ni 7.039269630688313 0.6293895880184204 9.23118594034152 -1.890207424164248 -0.502795678249689 0.48012677589726344
Ni 2.7684713926464344 1.7681159378162563 9.08498559220035 -0.7140133456112219 -1.2580353775005495 0.9789066481193399
Ni 6.633102556939391 1.6980313882976545 2.550279308852296 -0.5456353991230345 1.0579724412042553 0.49995460925646795
Ni 4.109513863945617 6.986622211541062 10.468901607800094 -0.18703361391616177 -0.16977662660792697 -0.5815367410053339
Ni 8.20637672653327 7.270802027400409 0.2856329100569585 0.6403782366235745 0.3480129539474329 0.22840883442883889
Ni 7.365716324020715 3.9336349750020845 8.237581924427001 1.585486705246547 -0.6155246679150044 0.5409385078679974
Ni 2.805053039071331 8.273773051786288 12.349679571492748 1.3478398971592076 0.20581963627441327 0.2275410871119049
Ni 9.369188112656534 4.809541993645479 10.359174832202873 -2.3749002221656386 0.057297033949256164 -1.0485611751926844
Ni 8.63539370653965 2.415278684239226 5.713421075592916 0.6345477459847265 0.1294740703341383 0.49499212304487006
Ni 3.599804746778063 2.7370663943005322 11.778953212599694 -0.2898234900908944 0.3583673005985635 -1.4303458262739237
Ni 1.3153681131951156 3.197579191040165 12.74088249955788 -1.4719437043203683 1.0202512725043977 -0.1340048683249563
Ni 3.282803165730143 8.517484194242124 7.996514505226946 0.3634663123880256 -0.4826024911312656 1.621113710421537
Ni 5.57755676811614 7.779285096338726 3.4339040740527613 -0.6789015895097533 0.5567762462312025 1.1590124245674167
Ni 3.037984038948628 8.427083571473151 3.626441779788049 0.7489340687478069 0.3893223542191811 0.014321301718678563
Ni 3.310520937549603 4.298906528926947 9.383847108558825 0.007891486932934797 0.8307594268557305 -0.43411431372289105
Ni 7.543765772421932 6.477249122406706 11.349562060837428 -0.7836537316171794 -1.790759724988871 0.7063301180343512
Ni 0.7679702734608589 0.09219156136753036 0.031454040275071385 -0.6357829039434082 0.041052547065935745 0.8002939112770218
Ni 4.729031493259007 0.3500304121596542 1.6059224716626135 -0.45987471051644674 -0.8532321540369499 -0.5571002052295244
Ni 6.098781656799774 5.846542667771699 0.4182958693796198 -0.2758960813765248 -0.7444143265005825 -0.6094828325962988
Ni 8.0927538421187 -0.17065138256762177 11.559007425745813 -0.6821643194214251 0.5460655446819176 -1.0076739500600196
Ni 9.437483539944326 4.940302307753142 5.669610285534897 -1.0155934620174123 -0.33089583465117206 -0.021933052627665452
Ni 8.326847317354089 9.057226952106584 2.1142157301713684 -0.1150920905808534 -0.40155514883994714 1.0335099372865169
P 8.526547869299733 1.6402254847488789 3.6405840190663135 -0.586369643617603 -0.20941198161136193 0.18488057212890097
P 1.857326839710934 3.234306146884823 1.7017858204307361 0.04606516978917873 0.6343852522649333 -1.0399492651539575
P 4.817897285281752 1.1661716664552437 8.299961441962761 0.6101955423926072 -1.3600037862152514 -0.7682456245922253
P 8.503470917073898 1.8308532797981796 12.459552564693603 0.8795185985373047 -1.054043024242862 -0.7834637270935604
P 6.490027269506962 7.863673541865077 1.4882336480463496 -0.23121519352938244 -0.31918677374436 -0.5646710755982468
P 1.739889583027632 3.192102842282913 5.9846619958063965 -0.2880962229871426 -0.082525983719374 0.21969999380093133
P 7.018690184114625 3.9992694235404977 6.015699179683527 0.2130963724414846 0.06395079182034794 -0.48501752833066153
P 2.2180120650745825 8.511926108936256 10.216907828417867 1.6768153748592154 0.46151121767860515 -1.3444424414418845
