# total energy = -340893.16355033027 ev
CRYSTAL
PRIMVEC
9.04912727062876 0.00000000000000 0.00000000000000
0.00000000000000 9.04912727062876 0.00000000000000
0.00000000000000 0.00000000000000 13.24431246037181
PRIMCOORD
 96 1
Ni 6.440336162020054 2.1447607653263123 11.36653346361604 -0.10705147966456402 -0.700423008521297 -0.3429170274817643
Ni 4.5722343600346615 0.34838777434468526 5.8970962482081575 -0.16533478878648944 -0.658478288658395 0.38574517839088407
Ni 2.780869155999453 1.6657452214002475 4.710895944670306 -0.398471624818617 -0.31605594142486215 0.4968070647664219
Ni 3.2832857426494773 4.292589184745208 4.917414218816452 0.6141126180588262 -0.08674413556577963 -0.29561644262358766
Ni 5.118792588760275 4.433954648563343 2.703044852969833 -0.09193159330399006 0.4603655341099362 -0.6267205366308239
Ni 7.257761912731856 6.3436914844129815 2.864744610332055 0.13811837627269763 -1.1368754834590613 -0.9033630092550701
Ni 5.346875837738388 4.846585795960805 11.42388140180584 -0.6790152322694822 -1.6222732779472773 -0.6407564458985997
Ni 5.780410468775583 7.850805507456302 12.347606343845593 -1.0869251196828635 0.46536555842768884 0.3530988531107725
Ni 1.8446826610071996 6.514701888665645 0.5428535160840094 0.3200774038794294 -0.6092411488991378 0.33622547439420153
Ni 2.8584201753901466 1.4632981495439348 0.5431005572542972 0.30761758084952184 0.18549455156381603 -0.3559764317688837
Ni 0.6887372090715462 0.14549910508507427 4.690115529159362 -1.1254183906620554 0.3275958237436616 -0.12466842141537886
Ni 8.506532405718593 2.162759479161562 1.2264408669134037 -0.04355165933870564 1.2943578660806676 0.5910979023312078
Ni 6.841610654885971 0.5688389895125178 4.798798260569869 -1.2675086070983073 -0.27441101219056613 -0.23239841520420618
Ni 0.5777876713182888 7.504775935638246 2.6461475613104484 0.8945137863945561 -0.5888577001467794 -0.2818409861060501
Ni 7.296980829655925 3.856267422556051 3.6606877332686523 1.591775366468736 -0.2474152003280126 0.491302847118741
Ni 7.647589259795064 3.8792250580512886 12.581381493780153 0.8755835251489565 -0.3208081113978668 0.6964907633464263
Ni 7.841683987322601 8.816881269315237 6.901121334456679 -0.05377410839766223 -0.141484207421137 0.0977127187621414
Ni 6.79479047118382 0.7828246033554201 0.13812497139762078 -0.5953173397291941 -0.06286270096249173 0.30199252135326055
Ni 1.6484613886072226 6.683232832088316 9.249721832302574 1.2051966364329632 -0.2230617111843126 -0.10923126092470221
Ni 8.984661135187215 4.769957787536021 1.3483507074304897 0.0909291201814047 -0.06701991766397489 0.9933032831606441
Ni 6.383199973404786 1.926893980863028 7.055085897959489 0.4125851814018636 0.37729987583700825 -1.1116979557521693
Ni 3.1611406248273552 4.298878328091361 0.6131199881457057 1.4781688592944737 -0.015885303771688772 -1.0939542586155029
Ni 5.8999584871151916 5.563104730193537 4.776772685167659 -0.4537305452919218 0.7692892353653912 0.02195850654896218
Ni 5.609798226116055 3.0290052706683226 9.160720047458323 -0.3371366733545613 0.16234176759643654 0.03695677973000732
P 0.30501621298673237 5.518754958194262 12.591857668243234 -0.02536187580355632 -1.1609451228137553 -0.003289212274233045
P 4.104973632233277 6.1759297167952365 12.610995667182486 -2.084181473953985 -0.044786045966438995 0.9907964575783905
P 2.4109408394660155 8.381527763727574 1.7661027558633293 -0.086832838624844 0.03986444029510553 -1.8212072428454507
P 6.271180828826327 7.7264795499990395 5.752720139798274 0.15687303117238144 -0.7684006621128509 -0.12815458019176637
P 4.700243312228448 1.1183635221070078 12.45226221368914 0.30471763359390747 -1.3945427005323856 1.0150686998621936
P 3.7189559676862274 6.361771640392282 8.11126743817092 -0.2801908520971368 -1.21056098606867 1.1458810293917814
P 4.560579084308265 1.000263364106081 3.6447947513134746 0.8641801684080213 0.3077733897010958 0.4420718780070709
P 0.07689857732557483 5.454008453673794 3.5471311419930545 0.8158094904141175 -0.39457897463243014 0.742595785234605
Ni 1.2890029121478843 1.097378596323225 2.47897760660614 -0.09853650021501739 -0.633727049855644 0.6137246385917882
Ni 1.636163624855536 6.554979553462376 4.663692982891114 1.4588236219986424 -0.7791329609286903 0.6859276431185993
Ni 6.112468188325349 5.73971654413148 9.158971756099364 0.3214434309890206 -0.741368083475091 0.6678327332901015
Ni 8.779879388534777 2.2322658245454496 10.291267314315347 0.1846370886595272 1.1288220170269656 0.12262336596089204
Ni 2.0922305824134795 5.300055654036236 6.860726031007431 0.6267097379975465 0.9553304034612966 1.0109541634731878
Ni 0.6753128289938224 0.19991150643819464 9.310778102784825 0.35954692272896144 -0.600381641625979 -0.074234176024227
Ni 1.7134793669411938 1.1431128847713656 11.516287468271418 0.41351694918751364 0.2924840676421931 -0.0818785799433622
Ni 4.100747689869746 6.619789401872661 1.7714661735054371 -0.6964108020381103 0.8145110833176683 -0.6182796049523223
Ni 5.528220345158401 7.651923791683996 7.914615427320185 0.35720721885219126 1.21472771585185 0.21290996746229138
Ni 5.144283979848208 2.7214797347321107 4.835167607364868 0.46808270024853577 0.29561335729979415 -0.2593775148962114
Ni 0.8015689652650915 7.611736618158433 7.021300076956328 0.14710078227696602 -0.5522583037561909 0.07843561570008427
Ni 4.961491612089513 4.789087642260867 7.077005598574434 -0.5710306992676876 -0.7231171076847029 0.24485335313810735
Ni 8.17891780758316 7.374025097928079 9.13799225979185 -0.3121625199077269 -0.3263557806889734 -0.1623474240233914
Ni 4.625678504786287 0.37620660092705055 10.306207423185128 -0.32127939460733057 -0.6708800047568575 0.39916967932690606
Ni 8.423126601083352 7.20700535873391 4.788785401415167 -1.6176388644990591 0.10656142740202293 1.057278243350708
Ni 7.256033529452554 5.969365292100795 6.742838527493748 -0.02720355699798541 1.011270666272342 1.4962457714008426
Ni 2.2552596565491547 4.999642732013803 2.6090895759418635 -0.970704829034838 0.6167099464723572 1.1378915834284016
Ni 2.3841735214546182 5.0835643368947006 11.552007087739433 0.4768288218722821 0.5538439030757558 0.27125961104577795
Ni 1.065833339194175 3.1287628480035625 3.9547517877059617 -1.0309938557328824 0.8970571216417002 -0.8055423041601547
Ni 3.5351500976904546 2.736229811932441 2.593316042464627 0.32744978508410055 -0.5171984839385803 0.23039526873124838
Ni 1.3060062220002897 3.400643872226829 8.255180231272426 -0.6993387743181827 0.31493853999096727 0.6807036757154986
Ni 3.745614696172223 2.525584230908337 6.856037678248234 0.28554928819557274 0.5545951794194837 0.761356867892192
Ni 4.064207314572241 6.909723434693878 6.038810103420289 -0.5330233667859787 0.27204302617902176 -1.3386602875424685
Ni 0.5431032719924322 7.282447931506397 11.57137040994389 1.64870061890087 0.3988318363715131 -2.033295742847711
P 0.0314321430400904 5.621353961444167 8.092353857584165 0.47705070807510097 -0.1902680616930594 -0.5447905346242359
P 8.66208690085582 1.5095663364919647 7.939501431804006 -0.032040059154680306 1.502154937796426 -0.31444488818400035
P 2.0067344294142644 3.1020317265006327 10.618640300756763 -0.9777079998255485 1.328985740567182 -1.43999183400412
P 3.9324791711334632 6.045984251398462 3.8685841894746824 -1.198116075437098 -0.4152663277784525 -0.06577704639580931
P 7.215013836232249 3.9828466126653885 10.466424028612915 -0.4214775987954871 0.6813114845028266 -2.0404269545758535
P 6.292373884533795 7.873193047943184 10.188955168395044 0.15915617077960334 -0.9769721501007883 -0.27379266188027684
P 2.339660865167241 8.510260646090702 5.75171387686289 0.50719277887612 0.010813802786052344 2.9582634748567505
P 6.920066586988343 4.006546276584201 1.3969834312941307 -0.6827191634836307 -0.5035652094258617 1.2514065593301222
Ni 5.35325547235571 2.880527192936409 0.3775313931369452 -0.8525356421905574 0.6653071386547703 -0.12084750500739187
Ni 1.6077041200733035 1.1630933574451876 7.054384590607939 -0.35202078955524535 0.14760934648226837 -0.48600868859933716
Ni 7.078390115023299 0.7830834083909597 9.18206965306491 -1.3794148437520115 -0.6197222509361199 0.4538336465286894
Ni 2.9598427921148716 1.8753230054245729 9.097425022927386 0.6152356759196759 -0.6881205370048601 0.570293821101663
Ni 6.22756403612351 2.016561781463073 2.46287287507643 0.9654173553836535 -0.2930270846298566 0.7531961864582706
Ni 4.104928386597693 6.74219694438117 10.54631334245058 -0.3064366731675432 1.4574953901055223 -1.107846700326879
Ni 8.166773878992458 7.196345486990357 0.21335488968286376 -1.193019891861113 0.06664376527147876 1.418747579913363
Ni 7.829205241028579 3.73062029253974 7.963658981554928 -0.03432114187937315 0.050523205560532344 0.4790214586482266
Ni 3.0964303168153537 8.272078571250276 12.730419712480595 1.7974751893358334 0.0009772763116047685 -1.0329108702499374
Ni 0.27425370535328275 5.067637873169191 10.402440365508388 -0.9159133351162548 -1.703505996776524 -0.9515804495005612
Ni 8.54033089549972 2.2378129394680277 5.665095632101195 -0.05886386421574378 0.44543873759677477 1.2898851750212945
Ni 3.90606476907962 2.832412984056558 11.49240772672298 0.1884178958581981 0.34211561462639145 -0.008771832655359087
Ni 1.1568404106075016 3.336042153740229 12.766947419000136 -0.6552106736507167 -0.4023331646565522 -0.4583287061855655
Ni 3.0996608551960394 8.505745131659435 8.107704796825049 0.2606666660212801 0.04514188664396097 0.15377742296619323
Ni 5.296345511918362 7.722488884940546 3.666211320460727 1.3931879862767038 0.9839228703870087 0.42362446993516073
Ni 3.063907753957693 8.370180158323148 3.853472147189682 0.3290886062391042 -0.2379831083808353 -1.6817086983957747
Ni 3.6535760242675854 4.53722328721989 9.446572019037166 -0.44247656964465726 -0.16714818784614438 -0.6994066514416406
Ni 7.33357549971613 6.073882710299455 11.510486072876859 0.389877969612335 0.6349529518429452 -1.0722220091447339
Ni 0.8796113522582256 8.779264047890836 0.07329611982038987 -0.8127308514887938 1.183108289174356 1.436870771876635
Ni 4.802217925707296 0.26975538426353785 1.6528502152588547 -0.7491058184389808 -0.8724130978407749 -1.0706639206289947
Ni 5.88297327551702 5.708316073036299 0.363088986258585 1.5906484519531445 -0.3182133540874971 1.2086745676792345
Ni 7.8988473233192185 8.807732601800186 11.424583614070102 -0.07450388474584589 0.5250655453914829 -0.6912410849117128
Ni 0.017715476156494884 4.759895158182176 5.8237621220538776 -0.29648316149925713 -0.541275322382126 -0.8177889827379915
Ni 8.056455970311951 8.956599791998121 1.938729334219048 -0.8105592977587717 0.3756343152091273 0.977334932756846
P 8.254595657660682 1.5379443991301462 3.6496559424006016 0.9815569412579935 0.7348169126201345 -2.203586075867263
P 1.5977953258804438 3.0501440316130903 1.6655389013019852 0.25684960626803505 0.44588276711272884 -0.26985733138161266
P 4.930706481638271 0.9001402020353234 8.186163443665555 -0.8832952919709174 0.7238838106473984 -0.07477282213651638
P 8.752840596709877 1.4737589404909177 12.447547618461304 -0.45281986055219436 0.21259012222902743 -0.21972390506033126
P 6.2288128156656235 7.626875807824784 1.5905098736387346 0.25603302390401067 0.9491777535963395 -1.5758985473374794
P 1.7560283626442326 3.2620926869420086 6.071629477647379 -0.25433609581756195 -0.6312148249567516 0.06282593418728535
P 6.650420697162918 3.939311262106622 5.948139659535706 1.302502863785305 -0.8757177367339757 0.5339793029413449
P 2.2980801260656967 8.38125628991407 10.489349992163243 0.9799528299956671 -0.303762982990122 -0.11460538075242198
