# total energy = -340892.8787166663 ev
CRYSTAL
PRIMVEC
9.06026703492983 0.00000000000000 0.00000000000000
0.00000000000000 9.06026703492983 0.00000000000000
0.00000000000000 0.00000000000000 13.26061663144446
PRIMCOORD
 96 1
Ni 6.435081694094905 2.077057109634965 11.27583367094699 -0.020124538664016953 0.1092870538633021 1.7015205909153792
Ni 4.74293190003655 0.4610081207564271 6.094420191563946 -0.6589791395542135 -0.5336178058368681 0.035854290694447934
Ni 2.734343226807028 1.620347179460878 4.444255673978109 -0.1666141697195453 -1.0635249955913684 0.9686075801861769
Ni 3.2070173471288443 4.424445400562667 4.951395049306715 1.6068826544238195 -0.022548574724477296 -0.7144938847920662
Ni 5.35209894009477 4.327518666056191 2.9022852387237847 0.08594580803420038 -0.0005818406453989979 -1.2278899642654206
Ni 7.49698120719052 6.445935893752669 2.4745500418598216 -0.32086184745393775 -1.958301291618692 1.397992863864515
Ni 5.304813407528936 4.7202268713701425 11.574674793861668 0.22691193816833824 -0.9512366930078971 -0.44927302374120043
Ni 5.4429190547604 7.990928834020206 12.462406985704256 0.33233488109054377 -0.5361811956886701 0.061916534999138524
Ni 2.0258213007329164 6.378654352301456 0.6964871736488961 0.18189654979991254 1.2512378949627418 -0.7521183800130595
Ni 2.790263193658211 1.5137984415849999 0.40686124812312685 -0.8132252746267091 0.6191296116574434 -0.08659526869274119
Ni 0.4168746550194211 9.093246197427412 4.807159225540658 0.5925315494539408 0.7106593415373246 -0.4977786846510717
Ni 8.622655938475615 2.2432586442944134 1.4787705440083048 -0.20847301473686033 1.8505515003355224 -1.6927184192427172
Ni 6.941595911012505 0.6551542363878625 4.82960966070925 -0.9067797482461029 0.12460440094666284 -0.5800439585098913
Ni 0.6424073469901097 7.4832820837493355 2.644007836416599 0.8426062988919877 0.23720946343960436 -0.004623871925256553
Ni 7.6851085875693235 3.801977888803614 4.010978311896571 -0.11401994056259718 0.34584988485784307 -1.3011262951527527
Ni 7.771960305365086 3.9034981785909624 12.60721270025368 0.40001737203918203 -0.540099814016786 0.015214502956909282
Ni 7.768127812497612 8.947937638069133 6.925475884275365 0.6376227853656246 -0.4063438284778421 0.9656610959633433
Ni 6.71945628896822 0.802201460950083 0.3515247624555492 -0.30208482395675074 -0.24363285046744487 -1.012691457879269
Ni 1.8875253878981033 6.316962995481995 9.18833369776817 0.10270271577756505 0.8781332881540038 0.120981716592411
Ni 0.2432536678560142 4.812822798333704 1.3234005583395552 -0.9081048948154297 -0.32476143961866005 0.9142158928091739
Ni 6.308899358006695 2.0041129014173893 7.079591022988689 -0.29264527581040567 0.07292959828019052 0.5504454189171681
Ni 3.47177646432348 4.320134548592855 0.6233454516145093 -0.37727262214349866 0.8341363137477634 -0.24345827256279362
Ni 6.079067569426983 5.640414751037473 4.732409306144624 0.05254126443182564 0.5718822486347055 0.7183657090426467
Ni 5.103231530913255 2.7949835926746514 9.332185366220799 0.86019418717708 0.2913178152482338 -0.39657517912685253
P 0.44213739701085913 5.66618214989113 12.53707717475222 -0.6423780406624228 -0.5842698236657808 -0.9896988536388374
P 3.906723633581082 6.172605764140467 12.652657186600434 0.34129286161477995 -0.051330274842859985 1.2690749231441627
P 2.3599367604819608 8.59781268683823 1.3935315537076023 -0.4426220940835861 -0.6704868830834968 -0.7108601446942209
P 6.3137012994245705 7.77126266481947 5.70320511822295 -0.0018411669737968292 -0.6345577732870555 0.08860844246802804
P 4.655699651034087 1.2418092314630726 12.634118068620706 0.7385172442898571 -0.9781240043170445 -0.6113399404096955
P 4.0623246560538995 6.242415120036186 8.212590980002751 -0.5962434510878893 -0.32733254277994595 -0.2548189489912515
P 4.678884873842283 1.078189872849086 3.8752165556930414 2.0700990277189897 -0.6769395806873761 -0.9307917948899841
P 0.28027844824119924 5.599580128451879 3.840539290442519 0.7156516525455933 -1.6647527872677266 -2.4699911870342173
Ni 1.252436924450182 1.1437680841369777 2.540548649528448 1.2481831672968182 -0.7349948329588954 0.31972799095981064
Ni 2.008797059366524 6.522123677494018 4.869298159541332 -0.32770149608359045 0.9471129006475107 -0.3832800046798432
Ni 6.059542694416566 5.637298019249267 9.105348901853821 0.15650202098620788 -0.09748594746331599 1.4787645838969437
Ni 8.90613356693314 2.5677067993399234 10.174685081960364 -1.2578991090330014 -0.8192542544296083 0.5429462823266455
Ni 2.567290027065919 5.03149233818356 7.102956545106725 -0.8715597487015442 0.302177383670557 0.3007028560075595
Ni 0.5092848465130452 0.4301425097596793 9.127163306291216 -0.19107410253412255 -1.7181823678417765 0.09574839594691897
Ni 1.2556623794403021 1.0347096523502477 11.542292494198216 0.7309466310314509 0.5256923803422043 -0.5239712838860395
Ni 4.349988127785118 6.7124889437788875 1.7266911553064845 -0.4351756651078698 0.35083628232884095 -1.1903791118041562
Ni 5.620328139483831 7.699369447553731 7.8746847046136335 0.13113551719696126 1.4523590973202214 0.4428920599155211
Ni 5.246410927567379 2.9767597260083027 4.975900352991484 -0.3773955208746081 -0.5754887350390411 -0.1949556969767159
Ni 0.8105613691505994 7.613324093505498 6.679810373390222 -0.5000489687424873 -0.6147577078419929 1.3894568013690458
Ni 5.064951903572643 4.477185213757861 7.24695317782857 0.47188253361060023 0.04962177679218551 -0.7219372284439889
Ni 8.027831300803237 7.142779135887834 9.170684297990771 0.6349182419502678 0.7510169194187646 -0.8416272228081699
Ni 4.411326134198358 0.1338210470493629 10.535347123510117 0.7300058643847364 0.497691267143588 -0.5595478954390686
Ni 8.317632995505436 7.0054345510697695 4.812012810479443 -1.5323548584185738 2.0135694680633773 0.9903364872228362
Ni 7.206219124204747 6.044439229617323 6.879978848381018 0.6508161441274468 0.3312689017198746 0.4308040184027355
Ni 2.188706777733983 5.182173635769762 2.859956578138554 0.8124817115924652 -0.14241134722109666 -1.0841136183759974
Ni 2.3109388374859785 5.157565951069856 11.462622849915567 -0.3319211905918929 0.7485077798436658 -0.1439285551965715
Ni 0.9960041924688062 3.2297133155284254 3.8778422210192676 -0.40654283186252566 0.6031774592035613 -0.5727404828699426
Ni 3.8753207487615424 2.530133872811754 2.457484123266029 -0.9204474755411824 0.49183583680407555 0.10998716525412025
Ni 0.8459716099873592 3.2527354535337496 7.885266190239929 1.6695730914745053 0.1997613458954753 0.36602918801919543
Ni 3.5840422305666775 2.691542526320153 7.236490381697697 0.030664004742760095 -0.5576506784163556 -0.19215345164123035
Ni 4.0356874715849305 6.892371481345868 5.977408657557195 1.338454599289566 0.10150689569725099 -0.04729904219627983
Ni 0.608806441438538 7.365797603814257 11.037155437838198 0.8239305768593552 -0.7053813809678369 0.6763381996579513
P 0.21303224183060782 5.735511311645061 7.9421275188143525 0.006674069586065925 -0.2977556004537775 -0.4717647770858133
P 8.248919931895685 1.725029502370563 8.143623322895186 0.3394822907686025 0.21108139889398486 -1.4673838528638277
P 1.8319497111863143 3.3110926321611753 10.243309354955219 0.32662600363122457 0.21912715201659677 0.25650559266505496
P 4.192339485009584 6.021580176414871 3.715704216031362 -1.0652530340260686 0.23811783418648666 0.6847809311086658
P 7.028311724805874 3.9339950367278846 10.29167034119332 -0.7872545615945603 0.71230201934707 0.3478653726259751
P 6.413617921983684 7.866821299035191 10.350998780424513 -1.2954071332807886 -0.9736371721902845 0.4243659760868756
P 2.610308173956622 8.578922030505643 5.740361272477114 -0.9545066220084207 -0.07935607063182462 -0.8491037336908731
P 7.193398846645703 4.008633514841956 1.724516691268201 -0.8281834385984381 0.07573390049820505 -0.8207737763979285
Ni 5.250071275365156 2.9940738959131328 0.5059098971202931 1.705032974944012 -0.4177142750983129 -0.40103115801567707
Ni 1.6550933027392787 1.0415048524698827 6.921272826494699 -0.5301820406824418 0.3384952442649848 -0.42569497931094424
Ni 6.807540203052343 0.764799773464929 9.416244709780733 -0.9168461313431693 -0.6470595052984921 -1.125025783209327
Ni 2.6838231789842477 1.5062421790519656 9.222387616661052 0.06126450323743642 0.06568422957168688 0.36523754535583547
Ni 6.431774696703349 1.840321397733705 2.507051937045378 -1.4479967065864676 1.689011402704775 1.0859175043539555
Ni 4.136075228019005 6.582256668419374 10.564454136715902 0.27790077051137946 1.911743755574127 -0.6663754320182846
Ni 8.389499031970695 7.103720325600171 0.44194894346087454 -0.1691510772087861 -0.16720552344664108 -0.6116068209178369
Ni 7.647644384243068 3.8626816765390206 8.027525969811197 -0.3998219681989243 0.7133170908751457 0.9054373752855955
Ni 2.9962121188841118 8.463430809272326 12.360247041078981 -0.38290230962545024 -0.737813019133981 0.5996807589042124
Ni -0.056825087507119065 4.944894307858931 10.07614561995883 0.6192895342740753 0.38873845669125306 0.10028073659963375
Ni 8.565041701727935 2.350713408852909 5.909513736041848 0.44678445299139186 -0.1858316231882606 -0.20757518551293927
Ni 3.725663261326699 2.786213254386909 11.328491035714068 -0.5795767890654857 -0.21228647494567954 0.8004687462919892
Ni 1.3492096344206117 3.4465345609457416 12.72289871722376 -1.0013881170513075 -0.9974111346814307 -0.06965658395587358
Ni 2.8989773353055464 8.182372272057393 7.93467544934982 1.0593580086978724 0.461398860470457 0.7559709209899304
Ni 5.5820032108090905 7.865099848338218 3.540783080578398 -0.02215776704396184 0.5953731326677939 0.31738005955292437
Ni 3.0299797333452845 8.452205138674689 3.414383298086359 0.35867480453665324 -0.6352938801221316 0.7856239679696728
Ni 3.5256578711387725 4.540362454336815 9.448347953225936 0.2596654784502754 -1.210131097620103 -0.3222106481723483
Ni 7.435933129315718 6.167794762455766 11.542066893554246 -0.4300848808485238 0.2537725100046081 -0.26130507093622735
Ni 0.3744390832856413 9.108920459036703 0.3936522851172389 0.9764985528984794 0.10579369599806294 0.38446785434035724
Ni 4.620274007743723 0.311796398449432 1.5827207973584347 -0.037149612467103764 -0.8762898071873618 -0.04930553110334734
Ni 6.1338912439922 5.480745668759702 0.43193281848453247 -0.17269071493092839 0.5523367224026101 0.46372827993458193
Ni 8.048189720361664 8.930315419092214 11.338755412001447 -0.5201405972860398 0.0026672624195179873 0.4641635676997877
Ni 9.294837134309917 4.904666723150691 5.8593089855046205 0.08591521190658105 -1.035961484150803 0.9238593294362089
Ni 7.726776754702926 -0.03713169153373397 2.364540282056343 1.083530749289334 -1.7582445259699846 0.2571262569681894
P 8.371695607657252 1.6741832849420402 3.5507158510999393 0.845220596586383 -0.18065650674522435 1.783081896728639
P 1.829358474874027 3.2256271351898183 1.6617544109098863 0.11930021512493003 -0.4126268332730765 0.24674851327829117
P 4.664080397848305 0.8761368623584432 8.42771795552357 0.42570294973074424 0.2444841427241467 -1.4472004359374173
P 8.428594083325663 1.6037397103684898 12.523578283207895 0.13744654701665363 1.749525143819116 -0.5057568177605419
P 6.359464707163605 7.67256917828189 1.174411718596484 -0.6024444376922785 0.6962511365317945 0.21651516831504647
P 1.9585760003490078 2.9986402703935275 5.804595846194684 -1.8997040508007732 0.2943342334770544 2.6192254707144182
P 6.9133006977143445 3.9385885920087578 5.9979355980785884 -0.617303357081982 0.6003394755341338 0.22782750800407214
P 2.2574017208100803 8.523654402865946 10.176714581729428 0.2329244629110053 -0.4231878966183744 0.11613930089844512
