# total energy = -340893.02657312196 ev
CRYSTAL
PRIMVEC
9.04893167228719 0.00000000000000 0.00000000000000
0.00000000000000 9.04893167228719 0.00000000000000
0.00000000000000 0.00000000000000 13.24402618242656
PRIMCOORD
 96 1
Ni 6.149952700267395 2.0580709621860853 11.465605647541418 0.2523044100995139 -0.013700380305228018 -0.15964802281435733
Ni 4.669882260024153 0.4272914668679956 6.17165022905823 -1.3310621634802366 -0.055137050183459886 -0.7052744230763273
Ni 2.836333394909625 1.6473942390885674 4.70260953184741 -0.4748961236259434 -0.7455674662684192 0.2879280728403944
Ni 3.5349109337587437 4.320068652552271 4.844426201592892 -0.08788210582496478 -0.788801594366706 1.2720861991666608
Ni 5.3796714254358875 4.370769817709935 2.96421199492597 -0.6154976713318109 -0.1414358706817048 -0.9000920518132821
Ni 7.287367238132405 6.228949875321187 2.833387062699143 -1.274292205679044 -0.41737437526039084 -1.668936743442087
Ni 4.884893929720964 4.622411563537073 11.34410473469322 1.3001999266837414 0.35219022525357413 0.6460002107960423
Ni 5.516391736763237 7.779212879927806 12.38120462385132 -0.9878715706221115 0.8961613493003081 1.443158661767876
Ni 1.8165549710995186 6.329718780406988 0.4795028987514869 0.5992871230102195 0.7511806986901386 -0.3673725894209673
Ni 2.5080471963097914 1.4501365736821954 0.3297123102594532 0.6238581274813643 0.6558961297535155 1.105753051022644
Ni 0.5339177455405449 -0.006663633414617756 4.634627621535083 0.2683882030352539 0.01569015704174717 0.4655231670514757
Ni 8.752497891890675 2.2973518671056095 1.476973895764044 -0.2886158429360384 0.597742404230919 -0.5779163706439273
Ni 6.7746728573537345 0.8200856908427981 4.890582088282112 0.6627154666681941 -0.4291448855327577 -0.8017075037950967
Ni 0.9475408008485459 7.373350188574689 2.6132184067408 -0.5732763007687547 -0.3026101003326014 0.06156712207951977
Ni 7.5364933809051395 3.741787613722067 3.884313719724618 1.222577808023888 0.48184350147805405 -0.2947661788081504
Ni 7.702115980562593 3.783195525869393 12.61337216344326 0.1987465314777158 0.028830293968130995 -0.9474299176672974
Ni 8.114864909053848 -0.23227069741503661 6.96925837318469 -1.1023139434341078 -0.22305142677166748 -0.3440393140116656
Ni 6.885594663975658 0.7054474879099248 0.3153199841514283 -0.18375828559899965 0.03721851803182623 0.3612042558267263
Ni 2.148551231758007 6.354657636586627 9.04792198958268 -0.5982645952829762 0.006498463240150098 0.8067054712303203
Ni 0.24244803106715584 4.916338967901025 1.4919127773558316 -0.8001391308667123 -0.9001064499909853 0.5404219732428951
Ni 6.5230311115265955 1.9795533805203627 6.98434294257927 -0.3080742087709662 -0.15468682215434004 1.1839377270541869
Ni 3.332196762446594 4.21951692183088 0.5097788149364788 0.6124953941703775 0.47577158425236127 -0.9041009158623592
Ni 6.061743712589918 5.6786481337723504 4.92834056621418 0.6465907931921897 0.2990239256432399 -0.3416960105904696
Ni 5.522526912557792 2.7980202174551283 9.118233999846481 -0.5998933891356508 0.29594117295285804 0.10590116811020471
P 0.14736728454250264 5.512283521703166 12.532557057980728 0.32447913249155086 0.19176778616703746 -1.5193427624296219
P 3.8945969258793864 6.212761336240863 12.668890979918066 0.006738861385730329 -1.3611070465817592 -0.4147631628897889
P 2.248786249864635 8.490956614619224 1.354360869191433 1.4993393227245018 -1.6666296925754653 -0.5164006706276332
P 6.1613543543988705 7.923778615169432 5.7835732132570286 1.13721229797319 -0.944732316230476 -0.07144144377043825
P 4.433868019502614 1.0025673554306895 12.71964281909409 1.4852185670524034 0.7658326442753585 -1.2895691864427725
P 4.156418720038199 6.049735780024467 8.08910712454175 -1.0521563487431105 -0.049747503736772385 0.4738818234288162
P 4.724103459671612 1.1175792792489834 3.6491129781764293 0.2976003058228358 -0.37498742565374776 0.9621494832656592
P 0.035882634359485674 5.640452592431908 3.595607549038334 1.9482601053326059 -0.6223236931147088 1.8540307171333748
Ni 1.3934540645714324 0.8772794646031072 2.473918244942909 -0.539083971157762 1.9596662902870186 1.8367187082174885
Ni 1.999714400683003 6.639762332396462 4.692716334655394 0.3897771823684126 -0.618169047516387 -0.5385268131027112
Ni 6.0808550566579145 5.665056638133084 9.063430048987856 -0.5809384452997027 0.5857142694217914 0.871457418795725
Ni 8.610483955430857 2.4632730815141253 10.166895709229806 -0.0467331423904808 0.29139829077718205 0.04834985205829737
Ni 2.4061743215382454 5.128645006974575 6.8943902257342256 -0.08330837041135329 0.14285409118547013 0.4023059109630427
Ni 0.5267781383105974 0.06457860704340179 9.28260603712221 0.21753409649786407 0.7757892412674381 -0.5031522902581592
Ni 1.4995889862445066 1.1449522980963744 11.46551244354336 -0.046712059344558264 -0.1970765999744606 -1.2445908219598694
Ni 4.13531661096312 6.782427791949508 1.50254798695958 0.38462212053003436 0.6247065915245886 0.7111211116650914
Ni 5.54718525185007 7.911309187079612 7.864422146696883 0.0460235179179659 0.04629039842610737 1.2807567303574652
Ni 5.173663442930201 2.628787093989374 5.1005788399474445 0.04017580088793726 1.0557240114897108 -0.14496805220467937
Ni 0.732369869951167 7.224024715179764 6.569196047147665 -0.11244899653105152 -0.3737838922639498 1.826415269408951
Ni 5.231531362113364 4.4194892667923655 7.06772794468731 0.02320189203776004 0.1402343941744359 -0.037255541917348735
Ni 7.944889773176363 7.50626089959303 9.140642774680755 -0.20970457315111626 -1.690977011071578 -0.10326578736988666
Ni 4.4112909345359235 0.2734351932955874 10.422055679760373 -0.15947293068907373 0.6228168307010435 0.28636407078738424
Ni 8.055639650093129 7.150601682145805 4.9995800919926445 0.14152740195424657 0.6288231847961235 -1.114936517294125
Ni 7.278273061622777 6.169688420633068 7.083607010298352 0.15626882192947927 0.6991084034749315 -0.6698297091154722
Ni 2.7302075221684015 4.977772166233236 2.761458913206864 -0.9372627473263084 0.7875001019464631 -0.9508042334561688
Ni 2.2153956913367434 5.309877014073929 11.350183807110303 0.5160461155016919 1.334133860427025 1.5737084816646962
Ni 1.0436314081677012 3.365813544270745 3.79091697941732 -1.0617792165448554 0.23751311072295223 -0.7139521533559833
Ni 3.800741404727274 2.5355740469986388 2.3650650241419817 -0.6460590890584357 0.9908555929511 -0.09230671725522167
Ni 1.0782797682227954 3.292951545011508 8.10880121982091 0.08465948512260903 0.4635912401360855 0.3764208156661646
Ni 3.5589087010259437 2.9117833886780704 7.279989643994793 -0.7594051434824598 -1.3601703937001026 -0.691063421683268
Ni 4.191293303389553 6.6632714573437415 5.96100376408604 -0.5639686502145835 1.4553071242049518 0.3508450240795893
Ni 0.5721377189969831 7.424558093915974 11.034273832602231 0.6909613488877648 -0.5145191373342042 0.6927912030076521
P 0.2675561022723974 5.763934316462155 8.157089034854078 -0.5153681155980608 -0.3324582940422855 -0.7768603628444297
P 8.48294830993164 1.5962858719976372 7.980360681136656 0.2048107353939247 1.0028011953487503 1.1829373108141303
P 1.6959327095339907 3.3983173074773005 10.70655047756349 -0.11950847448099418 -1.5741910777280697 -3.4003340673122406
P 4.257404799488409 6.070955525213603 3.8203051953877893 -0.7204192491375657 1.7743923393744407 -1.1396669301612694
P 6.83188020451182 4.083185714573097 10.310381906901682 0.8508312579049412 -0.29005026138971984 0.9666753961604707
P 6.041202637289562 7.908703094706704 10.278251864580547 1.4598631190067501 -1.0463279149867915 -0.9109961003202957
P 2.292519737497508 8.493734636697289 5.916729150328513 1.4058100459160885 0.6186333887473153 -1.589326133597295
P 7.063985306473994 3.9335435285634097 1.4760065649492387 0.08871128659447948 0.5259870287644877 1.0991255184037974
Ni 5.465093342103448 2.974999226584805 0.4532980970059796 -0.9419583530297648 -0.4296909878442148 -0.6515257685999618
Ni 1.325062237646282 1.0928485485019026 6.967748106458863 0.9020648592689369 0.04382162517064066 -0.18038371269981193
Ni 7.030323279990592 0.6431383529745975 9.381471951839877 -1.319113732869109 1.0116146798753223 -0.9669291640424894
Ni 2.642423834287893 1.6762874784868218 9.21418706340151 0.11966556888414875 -0.38532248903116867 0.3600955961435799
Ni 6.443952496086149 2.084864849395052 2.569460486991931 -0.01877856615908379 -1.217719194380006 -0.19607798350661715
Ni 4.159721580163588 6.723890251809419 10.402746164084853 -0.16893381899165746 0.8212941676777727 -0.07752261696751164
Ni 8.187564027539779 7.015329199914516 0.37521757874863 0.01845717826392305 0.9849950204052649 0.4763045739376959
Ni 7.7777831486954465 4.085963736651164 8.075280356674373 -0.16298300072486124 -1.0138625953692346 0.6552147874157748
Ni 2.934840067032831 8.252073862701117 12.575110564900312 0.5158818220096857 0.06200009585188033 -1.2437007060454324
Ni 0.13736188059554058 4.993354426879585 10.2232497421144 -1.3244238322281126 -0.18062565350728893 0.018555137294368047
Ni 8.69577918705251 2.5616711664551266 6.016482765260702 -0.3192276542846244 -0.3559252668159741 -1.3612037200606233
Ni 3.556139727879729 2.7980202174551283 11.578139973819079 0.3598307725179674 -1.4737992694718682 0.5758826280433501
Ni 1.1880704583634216 3.2785908901649594 12.740700588403103 -1.0391303687970876 0.8180232102359846 1.0247139362614417
Ni 2.956539405610036 8.331034842027508 7.992028373864532 0.8564025813451316 0.5746970923756812 -0.35521692789503984
Ni 5.730100360273594 8.200440657562863 3.359426808170749 -0.26531907719162695 -1.04123018874891 1.4515332589848162
Ni 3.306045349399004 8.435233292284602 3.377703840722141 -0.9381572341161198 -0.6176404287064267 0.9162984863698155
Ni 3.372717879272583 4.190053599726052 9.488285543401728 0.3775713843308401 -0.004340279246566719 -1.133299336072029
Ni 7.032404534316178 6.235211736161649 11.397160431918351 1.052473365762897 -1.288072547292588 -0.40619213339132626
Ni 0.48313513999622826 9.072278094551155 0.18268979002044997 -0.9311836310117639 -0.39298643333432964 0.016141128536236716
Ni 4.597074554356017 0.3873368131758402 1.5733504493296713 0.23744060561380398 -0.6628062266097875 -1.470201781928597
Ni 6.143926111655044 5.594384480381638 0.3902216126497404 -0.8477749875771206 0.13137951488696728 0.24069973598105
Ni 7.676697530994884 8.778341641255352 11.471684719958503 0.8291064646333399 0.30199329268420894 0.6335979804769475
Ni 9.20674522184776 4.928527879103483 5.852959517792535 -0.4569863332250581 0.07597635552631432 -0.5149824501238679
Ni 7.966480524571362 8.745937416299153 2.591180638112392 0.2620925998345292 0.0050002814280688075 -0.4770746193345009
P 8.41262906052236 1.5674288283267843 3.574033085720665 0.4923863099909068 0.5548643739204702 0.5947748369621628
P 1.7925119591730663 3.2599138948257815 1.733868546530327 0.26260450647394123 -1.1730269936789541 -0.497729062360059
P 4.64080804198889 0.9829221243835206 8.24965146364477 -0.13698169156509313 0.9486820449068436 0.1464844888492058
P 8.585246484500153 1.7189893878887517 12.287714679545962 -1.0538432495272303 -0.8194157197081372 0.8027071487042047
P 6.338342412460397 7.771530336786836 1.3447717161095882 0.017983838171930316 -0.28413518145686545 -0.7292178212658023
P 1.7344178166936448 3.231889352885163 5.787202739822215 1.2337582501207396 0.11643703464452206 1.9985459980713516
P 6.9371735755228086 3.959296788609583 5.9148614507945965 0.6136444201731561 -0.18370480665324493 0.7995796588188164
P 2.3992971333319586 8.463158295974866 10.1383019894758 -0.6332393115859482 -0.35303637530395326 0.9202212184629894
