# total energy = -340881.20999022183 ev
CRYSTAL
PRIMVEC
9.13847450899993 0.00000000000000 0.00000000000000
0.00000000000000 9.13847450899993 0.00000000000000
0.00000000000000 0.00000000000000 13.37508117508271
PRIMCOORD
 96 1
Ni 5.141479359386333 3.183478961136796 9.404968819341127 1.1987701640813289 -0.23874466913720815 1.0666098051642792
Ni 4.618913974627218 1.337662475296592 6.234726938452369 -0.6104292556699681 -1.0871673176006567 0.15123845859442342
Ni 2.7173710715605464 2.064792610730432 4.789803446935342 0.0357200791094288 0.9953403681953311 -0.3700591351141949
Ni 3.6186256992595736 2.8723413213680957 2.7656194751405034 -0.9229872112439007 0.3570892052170882 -1.6479699113824329
Ni 5.142064221751452 3.1608246829629008 0.49984165417936227 -0.7127727883359015 0.5878032907403361 -2.120938221858044
Ni 4.738107096943521 4.869189374525752 2.24867242447631 0.9592621344155351 -0.06016252842250929 1.264838259354996
Ni 5.195250143079434 5.022414175712401 11.485409239880822 -0.8320488350911155 0.19984002165221065 -1.1312679074642968
Ni 5.67008527576019 7.748667844443188 12.545652304605252 -1.4065973177040743 0.7459436186609154 0.7339897887331488
Ni 2.3612812759477997 5.068508640863318 11.728006493542281 0.031674962505777705 0.6815850498791873 -0.21463363502161745
Ni 0.7462469101462126 7.544623986812396 11.710471588758066 -0.10821464673472976 0.2113505933949715 0.6000754232394697
Ni 7.87195500331532 8.929349605552135 7.336445883338172 0.40806775314748434 -0.03727353963947774 -0.8390196099819938
Ni 8.349010785288636 2.7936590563107186 2.198167731553418 0.9593354108556317 -0.6400383367856526 -1.0662915025929118
Ni 1.5818699281570197 1.320856820773884 2.8857410664614322 -1.250995697044949 -0.6004891137381206 -0.8475739273099081
Ni 1.8191412789061177 6.740785496803455 0.3372124489310946 0.43429120562038753 -0.6658936072858597 0.9669918989596249
Ni 7.48550719556313 4.37721960224191 4.1480138690467765 0.19858069532381284 0.5458115196895826 0.05584975997976833
Ni 7.497834997602899 3.669755463835186 13.061287984185157 -0.11756369204979752 1.1992247351202443 0.27205588169482825
Ni 6.778006503258588 1.046702587124487 9.312052466472673 -0.46069977752090335 -0.47694914950023026 0.010771122473574998
Ni 6.821999119284861 1.0664416919472437 0.4578531056010662 -1.2095775391094783 0.11463906220383482 0.9616730578498728
Ni 1.6840654879870598 6.4944122254971965 9.84225396048637 -0.16120996798483847 0.8127005124714907 -1.6620135339596924
Ni 0.4825626266798863 5.191567337874078 1.9313882467891903 -2.78298211638051 0.04786854154650466 -0.5592231651097982
Ni 6.906703639008069 2.1181795784964246 6.743354321972749 -0.8612956477713747 0.5073519301618037 1.0579706414320424
Ni 2.970689583452589 4.325952760549472 0.5339957886074042 -0.061384830865384606 -0.05117883686666024 0.6595095581363868
Ni 5.842893827703859 5.821637736121577 5.095772365552306 -1.322993527539489 1.9179257160151229 -0.12909303284563572
Ni 6.685397203131822 1.8595059205737638 11.519783611543227 -1.2516212464440895 0.5366175118951404 0.43993374861814555
P -0.043608800099164055 5.726542770943056 13.030579054626642 1.4052235772849992 -2.6335202900705355 -1.26502260745166
P 4.037441983531302 6.068550177420679 12.994666677713463 -1.2152689330673005 0.5951805570410137 0.1888603827122554
P 2.541738731010288 8.696903369315265 1.65100705664617 -1.1318188948717605 0.12302985737069133 1.7340586727524003
P 6.1832471703051315 7.891328569159878 6.165283671068977 -0.39314121374463906 1.0442064977684145 -1.1027173495201137
P 4.642335884655331 1.312184408516108 12.868700118131127 -0.28454347263887775 -0.5692805493458002 -1.1274500763801036
P 4.154615502993054 6.511647388319289 9.203459974524147 -0.9874488812623963 1.0340503831710193 0.24277127379809804
P 4.659315170192684 1.4148460305433521 3.958636349068783 -0.3289749634793753 -2.956828285072121 -1.152976502785982
P 0.23219218664702013 5.886859028306768 4.2727631838317075 -0.22097911762367103 0.45913037615125446 -0.5300293171546613
Ni 1.035891771844246 0.2842092970922112 5.09903571478018 0.016140100094972205 -0.08796900911181624 -0.3851985618587947
Ni 2.2324653400304033 6.83796403415771 4.943697184452095 1.400758342424794 0.3696009645308538 -1.2763881689761243
Ni 9.071690483662902 9.058339172484175 9.832824882543722 -2.8110991863317007 -0.38420431626632545 0.38523172908957526
Ni 8.866440347404053 2.2210696623850437 10.54920725817106 -0.6514270382385684 1.6178291261329945 -0.686686889882127
Ni 3.542876884502245 5.116979109372532 5.612665499217215 1.3706957187114588 -1.3674962379375546 -1.1035156770516932
Ni 2.4345627026022836 1.725380530998024 6.958600121590455 -0.5265125622506546 -0.6609321495155263 1.988707671824691
Ni 1.331146743010191 1.2124014059421826 11.795149606905355 0.9120952469217453 -0.15224144593764102 1.0367004191993565
Ni 4.3430417077802845 7.148562503933567 1.5707164200847166 -0.09857506676243667 0.6136855578237366 -0.7540482500459207
Ni 5.860640745095431 7.959985927740141 8.364535225692755 -0.36311407125492945 0.023729739516772038 1.4185686311333374
Ni 6.442258951782627 0.6756997150486588 4.973229992348252 1.2206859903178138 0.5630764774176173 0.3972045851807353
Ni 0.46168121255025724 7.3158879712042495 6.06293732641043 -1.8304642426673443 -0.651756139443213 1.2201820540982018
Ni 5.609058543349835 5.2878777201551115 8.282465328154919 -0.6096430123232468 -0.0691027683349326 -0.8450385624825639
Ni 1.131251752781961 8.672156380491181 7.876130372293802 -0.2544011447275425 0.3957172020019314 0.43630720760915176
Ni 4.816103976416774 0.46359480910113 10.476313302833466 -0.16088318077303906 -0.39224852672704064 1.8632517215110103
Ni 8.04450767797425 8.12710121009836 4.494575891192762 -0.855619937542836 -0.5831611639826344 0.5283169624492449
Ni 7.458850265577954 6.402497449429009 6.892914594902949 0.430925117361632 -1.1404814556427647 0.5543205856018584
Ni 2.4984223620936827 5.5136620085142996 2.7010844823868814 0.6914742839684414 0.29199530093123266 1.2641299204340617
Ni 3.073597944290118 4.628015895184378 9.339832514968366 1.1961252702593144 -0.5565487036014286 -1.0147822789700265
Ni 0.2248868901677092 3.134578984328199 4.300877700492453 2.4919975161019794 0.3550577766093562 -0.5605557678782926
Ni 0.6033449297039101 0.04664003207588089 0.6966569785162643 1.1963970358634621 1.216179617807028 -1.3553549745893303
Ni 2.1017303244774608 5.921886800892706 7.284108926287057 -0.13809523634424603 -0.8171690897658057 0.6838705034792545
Ni 5.238575650470494 3.257244726937394 4.48863679664447 0.6207447786633632 2.489191928332384 2.1528648953633116
Ni 4.166056873010689 7.094398765838901 6.89195231354284 -0.027145964287172603 0.3569573076249143 -0.2828753409078354
Ni 0.8343673916206928 7.859654616698918 3.152600055953419 1.0634694597630845 -1.040022284483738 -1.0121214443084117
P 0.22155591622886905 6.39967366082242 8.14119822079261 -0.8680288527301502 0.13249511654864923 0.3104789615577169
P 8.527759345628043 1.6223625084670354 8.434513093831765 1.6618399844963057 0.8938797523549832 -1.5813839959320828
P 1.7532802935090777 3.33829385687861 10.404970146610886 -0.9934259247814375 -0.02626921810917411 1.666833323945839
P 4.127775803518778 6.6438811136828475 3.6890476972570942 0.2952624017182786 -1.332084434097164 1.2071493892839598
P 6.8885180748426595 3.986485849970334 10.757069170429142 1.2308261640756093 -0.17543665310718173 -0.9149237175094759
P 7.082317702609418 8.031028428153157 10.337278724780512 -1.2134869014662133 -0.18461883382708205 -1.0291748002462726
P 2.604163650012256 8.655734541895582 6.354032464004468 1.2714413664938102 -0.41793847529397704 -0.10136908456780606
P 7.006733380392279 4.4833812599854115 2.0099672470852257 -0.5710273568335779 -0.10511003966747703 -0.6502574434104995
Ni 2.603441710530312 1.8596338592161337 0.5578225330538732 0.24742959850571583 -0.03857554628035292 0.2944689592827057
Ni 0.9224741653834905 3.3860058320080606 8.282880214895174 1.1710269325297897 -0.12285527946604004 0.3805492360122414
Ni 7.732565852453512 8.772560799328044 12.126263037985197 1.742345081130909 1.4245413037770047 0.3740854826647686
Ni 2.8240993147202564 1.8564719470547104 9.30335903572365 0.17124138407891154 -0.26987198666963197 0.2914911076013044
Ni 5.968748897897843 2.4675891492825808 2.357638680030045 1.1057952171144891 -0.7297279281330014 1.7251384874446354
Ni 3.4454059159654298 7.35384005561578 11.300645735655147 0.17215258303927125 -0.5913647828393493 -1.6279492452861317
Ni 7.371596111481806 6.319858224932625 11.851151092212918 0.7778749201518732 -1.1240827025697673 -0.8542649661768384
Ni 7.814208983234303 3.940236030753681 8.315488119445433 -1.4882164733384629 -0.397557854755096 -0.25739082348348574
Ni 2.907149770567114 8.729436338374994 13.036424022888045 1.4555135837888031 1.388529918679402 -1.450792781274366
Ni 9.11266740311903 4.747145048179496 10.40958507621065 -0.03051616631098615 0.01628459609263647 0.6338036687298504
Ni 0.030372633698571176 2.074515947550531 6.358406137878621 0.3791263875227858 -0.39731128596192866 0.5222049360142361
Ni 3.7819028223466993 2.9223379151112905 11.457308430931759 -0.3244382519512864 -0.3864092943374442 0.6728049896937123
Ni 0.9253253694134441 3.4663056070439686 12.7788332741883 -0.47892041429398813 0.5266850832727767 0.3165737616015451
Ni 3.3160508100551893 8.65424497055942 8.787561605145893 1.493549712625918 -1.1437804381090109 -0.987910651390163
Ni 5.601939671749405 8.305502508408477 3.5578923118792227 -0.7109257078248337 0.43127864404630883 0.06012164788224483
Ni 3.2046253910256195 8.74948615132922 3.7656335962744985 0.038970210615610304 0.6600692872945987 -0.06147610502761026
Ni 4.580495828018482 3.4794467333102297 7.1015797790656245 -0.29236733955867067 -0.11560271166868478 -0.27622029748516297
Ni 7.466142768193028 6.099365113282871 9.317268707691577 0.7275975120535598 1.0172693070579384 1.0784574485314846
Ni 8.227313720971669 0.10212062433950933 2.303590086713512 -1.1616030681127285 0.7357185984987974 1.2394085064279816
Ni 4.67951119873819 0.43397884108743123 1.6288974315497917 -0.5757548442162344 0.6075125962438054 -0.3542900452053963
Ni 5.982730763813962 5.544970421997061 0.3598511916984163 1.239837366435284 0.4636226075946532 0.40172227054543075
Ni 8.357354212466033 7.364522932253652 0.6102033547823724 -0.7260689912241753 0.07021579889345328 1.1546006686529664
Ni 9.129866012043303 4.629587712790634 6.193652237319571 0.10845041689461968 0.6882046120782341 0.23548785276280737
Ni 6.743682393205684 6.527648857089959 2.918215549284649 1.2437264170770452 -1.4903456038663234 -1.6366699129885813
P 8.409279024319229 1.2828773209389877 4.1550623743939035 -0.11911766680047874 -0.20600295592981296 0.17049216461771283
P 1.5403172848102262 3.3543227410726453 2.1530803262874385 0.5926403071176632 -0.2241379749676269 -0.6861688125951281
P 4.803410635398807 1.252729493712009 8.415774651961828 -0.2176184286815542 0.24645772151074974 -0.457649934950986
P 8.56805087950005 1.8313137268801507 12.983632883656519 1.4624157102252748 -0.9466326185769826 -0.6827135070566759
P 6.567181897582201 8.227322859446124 1.4177849639280737 -1.7373211455537563 -0.5137552625849863 -0.06983167608115716
P 2.0393054054754933 3.743320183197774 6.251914581207296 -0.40050999540488447 -0.19314641168211896 -0.002662891544143801
P 6.574501815620641 4.2010846455966275 6.25272973312868 0.3406485431625617 -0.20703885339349504 0.8738765697601788
P 1.898106836671599 9.022297029233735 10.25924894679922 1.6997318744460728 -1.0519588880203237 0.7793417345053868
