# total energy = -340874.2907614388 ev
CRYSTAL
PRIMVEC
9.18886104639122 0.00000000000000 0.00000000000000

0.00000000000000 9.18886104639122 0.00000000000000

0.00000000000000 0.00000000000000 13.44882696570159

PRIMCOORD
 96 1
Ni 8.50272886130562 1.0794338936328594 12.91254141870232 -0.9154250826259267 -0.3296462785147871 -0.4750455047196141
Ni 2.2655872203276575 4.132304357105063 12.826186339657246 -0.7519988237160597 -0.3408334054798582 1.0838300256973077
Ni 4.9374691239915185 8.980770172276369 9.846383862048821 1.0102231988444346 -0.8400015142792889 -0.6164806040703705
Ni 0.4908910143626743 7.413233164745017 10.85670006121392 -1.2332080340442244 -0.038236674883695435 0.17218986403510989
Ni 6.516014387146102 8.165929534629262 2.553152629116478 0.7381125526522707 -0.16101636391679364 0.8759812748080076
Ni 0.638509149389085 5.331257767341731 1.2543447839615407 1.385148660911995 -1.276825256513543 1.1909689228693554
Ni 7.73046021723316 4.5259000343717295 9.149506147931586 0.5427454791697491 -0.1165715033398573 -1.013623225664919
Ni 0.22761635994781904 2.3011481128668083 7.995932847228214 0.5391693317827165 0.3809829811155503 -1.235928261188865
Ni 4.015173944392774 2.6147088097675826 2.321805591553441 0.33904777433434513 -0.2694413268901166 0.9855686335205478
Ni 6.67624974737807 2.7024624334753065 12.989845469542985 -0.5091025943043233 0.19906586249034747 1.999968075229859
Ni 1.8834224862957978 4.44049875911104 8.41437979939724 -0.6314809341339447 -0.7313083852462438 -0.7747998807709753
Ni 9.023020555711776 2.7458338579675012 3.9134743861613615 -3.3061003082376357 1.6631751583679615 1.7434817658385133
Ni 4.487003585245573 4.655435409597676 0.3974853221792826 0.55945482150463 0.7929757803490537 1.1107165656755065
Ni 3.77256963307012 5.1825544278169025 4.048244655568072 -0.20904971317593674 1.0151460900673486 -1.1732774191268631
Ni 8.997043645322064 2.1924346969415636 1.5370529607616803 -1.6712358238889091 1.4234627260008452 1.439347772662218
Ni 5.643642290018988 2.897643032551304 8.423767139918686 0.2673785308238169 0.169590735849366 0.6140640242090779
Ni 9.073678747073103 5.280048244313129 6.96955911325377 -0.2223518296014816 -0.11487766057720215 -0.4765130904040761
Ni 3.5697990347079886 1.251734228517 11.402090210886595 0.4803746302420114 0.3718151985733532 -1.6152994177326052
Ni 7.2016963928732345 4.9278208198142295 5.236959836743468 -1.1081053533049046 -0.31620789362169416 1.2787404712583847
Ni 2.428285195340115 6.957033776659426 0.30994947448013127 1.8597627345211454 -2.4361104751263722 1.3590923301445754
Ni 8.289924026599108 5.0156847098554085 3.262591516386432 -0.18853925192741078 -1.3280202913301193 -0.8005692764255954
Ni 1.7364742192451244 2.168718246387675 9.686154934019637 0.1830023812695816 -0.8829839313780857 1.0443561359724014
Ni 6.8040024835464985 1.3797166862134593 1.72124827636725 -0.11882816058451794 0.6715250945400241 -0.7477775865458605
Ni 1.5598826862173705 1.7882993959688487 0.41586855773841075 2.175179499700112 -1.351441755577853 -0.757989751192172
P 4.981299991539774 3.3338474588371043 11.896671471875553 -1.3693075801146803 0.018766224863909615 -0.5918008419355033
P 0.26944681242998386 5.795037965852335 9.124961780990674 -0.7344536157434447 1.0295270413793687 -0.30462455965946894
P 0.9887674009497058 6.114562233620786 5.130149433956429 0.4969731580306409 -2.507791288601126 0.23621418940587063
P 4.28662209077496 8.731393670307371 5.568607887875267 1.8898981204539451 -0.08771909788453926 1.0611984043407208
P 4.043429692340548 1.454890759046223 8.90406523518081 -1.101512016358103 0.2794979397951703 0.6303979854824111
P 0.6531442484968644 6.315458304314187 12.866156966648475 -1.764167319212323 -0.36001923437968963 -1.7713365832672523
P 6.008798442115455 5.388945437460799 12.372544211621692 0.8344075651312792 0.7720878811564509 0.03818653837205037
P 3.6230760514888662 6.186713171144666 2.1593575535634804 3.0247959113613456 -0.06995148948847307 -1.9023031789865172
Ni 0.8485674335064621 8.510842625675664 0.11447483184825459 -0.7364287371919447 0.14285023453072818 0.7618078393866816
Ni 5.542923183269211 3.545843673764948 3.9550043628848623 0.8516995194425073 -0.8048226523853108 -0.2718825893417576
Ni 2.6172725020204046 9.1568746956647 1.842784747987168 0.5910454518267175 -0.21600146190342154 0.41544476233784583
Ni 3.788953372449269 7.487874283632749 7.660411691133818 2.1741052927993265 0.0517053987940916 -0.017610256882595477
Ni 1.4136603391952745 4.345421613089697 3.7587321271076632 0.7941106652844453 0.6892253400332646 -0.2130657763138653
Ni 2.2726258879465178 7.760562926266302 5.426669387907887 0.7110856304414657 1.0678393066960061 -0.8827720724775959
Ni 1.8267823463445503 6.562041392502332 2.912572175214963 -0.6474641969360785 1.5606951001241636 1.7049147041985926
Ni 0.2951177337443576 1.1982550567914547 5.766332882595732 1.6821681545306963 -1.9282291548236596 0.44293062646294046
Ni 1.6669880514464004 1.9416614880821386 3.259296390788359 1.5227438176913712 0.2500642079150855 -1.68110731736635
Ni 8.72801216941476 4.006830458494699 13.066758993785998 0.7711211463678074 -0.3747136031670708 0.35034391607345466
Ni 4.237700594165545 7.885623326126211 3.6046082784074236 -0.3090242313890613 -0.20406048749146144 -1.3949597334651458
Ni 5.0209958715834775 7.600759442507031 0.8373432396468825 -0.26376124578620375 -2.262734818313277 0.3006149242794436
Ni 6.194404247903133 1.9339520336014286 10.644141487985456 -2.4989798609570832 -2.62459084879139 0.5338165521112356
Ni 6.717875288257232 8.650825735996447 5.586912099228752 -1.1464628700371804 0.7435396372051131 -0.0029541975323174926
Ni 3.4403555480932537 8.7961200080453 13.019338957083788 -0.5125681842554205 1.4854427672480675 0.08231463903951632
Ni 7.3766982529270155 3.1419380943202633 6.921680552381614 0.5412498684608291 1.125823339409958 -1.1074438084615057
Ni 3.2573134345583985 1.1856387504720092 4.6956449469780575 0.11650645442987677 -1.3723749061860948 -1.4346015162264842
Ni 8.850821298299968 7.123655395370647 2.6159713592856386 -0.998837839825628 1.875883551342408 0.2958838373523614
Ni 5.16928571235785 6.646597292539869 5.44898086159634 1.0810324083475125 0.31905641881408275 0.3263655508809863
Ni 6.995351327534945 6.9081949798001006 9.683585728450144 -0.1207433753293598 0.6983622693375263 -0.19610755119297194
Ni 8.079113174755904 5.658206634896134 11.365993607744075 -0.5600394903635065 -0.5753480956961189 1.089721194370762
Ni 8.981780946999704 7.8206029448324035 5.323758737780698 1.1184442733370674 1.5017150220455298 0.33914007693783527
Ni 3.4662497587328733 3.4893229890082766 10.332209057275362 0.897032696161668 1.1217350282731973 -0.38942005613930997
Ni 0.9164161462533833 4.372583886564046 10.768421753536172 0.22896162160851538 -0.23094471347681517 0.07303424217885486
P 1.5011750525138468 2.894408553436632 6.131104940297332 -0.9970339538476699 0.9885254021560266 1.131762073491896
P 2.1605585377120247 3.4218216152117376 1.6900870105329426 -0.674244036133084 1.2016282023554143 -0.5120675904699181
P 0.9370433016983151 2.4794855295075955 12.008686445601656 -0.8362800995636436 0.3486647285988189 -1.9675387510565598
P 1.0638587740323786 0.15539283042108148 7.724723611235177 -3.5222853469067728 0.3223014081139417 -1.0939686567932063
P 5.008783875153367 4.298236811232193 5.979106475174431 1.609260667737693 -0.09142380042963609 0.24559254529697702
P 6.20493468274806 8.061663527486692 7.930921654795527 -0.9186474462179663 -0.4255247722816672 0.23481653772739558
P 3.3863709890060414 7.932532462150078 11.087549062504184 -0.5687015369138787 -0.3744924882952002 -0.44576372503636136
P 1.4409880121698053 9.106069482525431 3.7047751346038145 -0.29900027149415603 -1.7443533698101896 0.5186539854381843
Ni 3.1954080771846876 3.324787241771573 5.173723013393292 1.2753669268004617 0.3006475772895919 -1.220932044890349
Ni 5.955898168640547 5.671328328577246 7.7619228777122435 -0.37276136453670644 0.08597023351423258 -0.9231995843650229
Ni 8.360650690649198 7.900931968754176 7.758681966394787 0.26204452020541324 -0.5862619143951452 -0.0498878859693786
Ni 5.553747661670018 1.7289852974313238 5.898776532366547 -1.39956252234448 0.40244037965837787 0.34597432625084934
Ni 8.909032733502945 0.4770388062224235 9.628270622272577 0.1581956066385469 0.09092860596077242 -0.15042136200976675
Ni 1.2554832838544607 0.31373712303430135 11.53074161767268 1.30529585314941 1.253871475930847 -0.3666655360516136
Ni 5.846596665603544 5.827685989416057 2.836102472964106 -0.18204078868726067 -0.1543690338036051 0.18452730255454028
Ni 3.583793670195618 5.7164732032658385 11.7759812943649 0.7724316376491149 0.562359910966567 -0.43677669104640254
Ni 2.3570715216506004 8.904456680664575 9.202359558214775 1.5975384942047584 0.18005949659117376 2.3842983755510874
Ni 7.905315055509003 3.1160990168473712 11.107197604239706 2.802675995265012 0.967390162839308 -0.1217011112569388
Ni 2.241154038606313 6.333569549584126 9.860142343805636 1.94630066761339 0.4718290546648455 -0.30275639610247856
Ni 2.9112333581496 0.6913496952667048 6.876627566304234 0.6797482537807649 0.1483840198647638 1.2633825007450759
Ni 7.580121260428754 5.759063574562728 0.9875462013066947 -1.6287043782846016 -0.11614649998729673 -0.73064118397589
Ni 3.2568723692245793 5.525381647388787 6.348545555439503 -1.4761999084935609 -0.10786471959447876 1.4247693606274108
Ni 5.745473248964433 0.3733746694832933 12.799464212630603 0.8758789449021884 0.6693442848386215 -0.5144160360974366
Ni 5.452477223252966 7.381807259710418 11.820577594044554 0.16997974375766853 -0.04304309513340329 -0.9004594624550298
Ni 7.772131702417928 7.661709158324134 12.800579740370722 0.21148146254588093 0.41907336022936853 0.561084386688253
Ni 3.5986796252120072 3.0239531175237 7.472047389237546 -0.7789061896298649 0.523240576367602 -0.20705299446088213
Ni 8.393059803823768 0.5969653893739025 3.4191890065005057 0.3645204646841529 -1.5907919195095441 0.02376393518881714
Ni 5.587801580985287 4.883466187182063 10.085611266909424 -0.6674689221927795 0.07543102454580558 1.3032626247694652
Ni 7.270520962671229 0.8270278241521923 7.575105980028788 -0.03409102814643806 -0.21051009977154714 -0.23591002790189047
Ni 3.8603600122223294 2.3524403356455017 0.027746685041659138 0.8499737950006523 -1.2303677363819518 -0.2527618093519066
Ni 5.40871986659368 0.9702886012349169 3.5521582591274554 -0.179082220279569 -0.1348078238422259 0.3090607410539516
Ni 1.459292223523291 7.264327670275522 7.643183495417627 -0.4262400531811369 -1.9469035913047115 -0.13395267493078222
P 7.413756929828926 8.721184845601687 10.913024104342595 -1.1649845829904517 -0.006096085595408856 0.7139791499391769
P 7.566089869496639 1.634716771188649 5.187535709430721 -2.286695957114565 0.5543686652309743 0.0027338539913952914
P 8.211258186540277 8.801624135856915 1.3522934490832674 -0.025290399135672575 0.9011590596252158 -0.8773789264864825
P 7.632019948041448 2.2940267454978573 9.120590639755306 0.08874265405304717 0.5080798094667637 -0.2197503874228925
P 7.352494792733702 6.921822060842881 4.479750817162588 -1.6082250273843268 -0.8286956023481663 -1.8927052508854374
P 6.637564642057702 3.8302205477447027 1.9302424903667892 0.23924963379808475 -0.24294122371705903 0.18638003949256288
P 3.8989532289314854 5.2417674488820944 8.654737434175754 0.07395444000027908 0.3894239127940519 0.18659626926842704
P 4.867238658441974 0.420113811576418 1.3716185429073213 -1.0139983496161507 1.2007416859854032 0.8047288071199238
