# total energy = -340871.23876405356 ev
CRYSTAL
PRIMVEC
9.21320528310408 0.00000000000000 0.00000000000000

0.00000000000000 9.21320528310408 0.00000000000000

0.00000000000000 0.00000000000000 13.48445721688409

PRIMCOORD
 96 1
Ni 4.632031141635471 4.938904586749629 5.4730714941054215 -1.5128047042007882 -0.42141254988550647 -0.22604547640298492
Ni 1.3628081280125253 7.697937138722472 4.735633636240633 1.4797027794404969 -0.05448990351776423 -0.5333894918761459
Ni 0.2554379620655417 3.0041222417448745 6.672958825932895 -0.3734997853646277 1.9249021473329555 0.05590375314615534
Ni 1.0061925870003443 8.44858304783368 10.674795663078676 -0.6794826588242039 1.268741451064144 0.8087145312405492
Ni 3.89686341757866 6.093190237181131 10.127703549881927 0.480851826988746 0.8978405367749439 -1.5292908747812695
Ni 6.820434604602954 5.466941027239235 6.3429003494560074 1.6544125816839832 -0.20354549552825593 -0.1705117050017386
Ni -0.19661164565345152 0.8213148797309864 7.3840616575122775 1.201619717714982 -0.6141992642353615 0.00404460238301884
Ni 8.918060354867489 5.3013152339518195 8.003538240172338 -0.25844703266214203 -0.343938269657427 0.06596550825753156
Ni 8.11518478440309 0.7822822137777427 9.683580062759537 -0.016573845198281135 -0.31747364770799513 0.5792546298393766
Ni 9.016586373303024 5.233211219712481 5.160285935092808 -0.7547452761129454 1.3447036655230713 0.4299218729080983
Ni 5.535054254683962 1.842346255331693 4.1575409295492225 -0.09472252578556589 -0.12474966827527545 -0.48469948286961034
Ni 0.1896906857648435 5.078355663525416 0.1502664585825451 -0.35753734849810037 -2.1890608856678946 -1.0382942460490376
Ni 0.5129083572400117 7.580395064362966 8.63556781517562 -1.1879260222779735 -0.5321445637254513 0.29796051737573204
Ni 4.411798680004366 5.222440982612132 2.1539396255669025 -0.3255569389367619 0.06366231404565165 0.7923438031920096
Ni 5.979315018566654 5.154217196702731 8.923406777955028 0.1431150581563406 2.2076178227344756 -1.0642541604479092
Ni 5.007681164982403 8.678940822187867 4.154831325844164 0.15260499992464685 1.0167481444471458 -0.9083843737290613
Ni 4.002815279558149 1.824730606626929 2.103656714512515 0.19255685772723613 0.40066811824930354 -0.0544078853269192
Ni 4.241833466978487 6.654587694386191 13.332284871850916 0.2546469421897614 -0.1990946588457539 0.21613721615033743
Ni 1.7848742801118622 3.698558384774614 8.615570552877665 -0.2598192304193203 0.15985602506010532 0.31975395910173965
Ni 3.9987430427759807 7.641957702775744 6.062383120999651 -1.667583314737986 -0.03323202258025244 -0.7441297053806281
Ni 4.828207923994537 2.923046034317092 6.9042581898778925 0.08322943754430182 -0.285961693142643 -0.3243847730055317
Ni 5.316848698238551 8.746878998730192 12.428274103184668 1.4880079568720823 -0.4456693655503421 0.9639927071219849
Ni 0.49159913449458914 8.931751178076317 2.9924712222092866 -0.7588821810994544 0.7045262320563931 -1.0448400175873553
Ni 6.321253923393329 3.206600856590373 2.0326339568057774 0.14526912838486594 -1.546017186397015 -0.2370138024890305
P 2.1357592073717613 6.0208205088464455 0.514344695960238 0.3597636667254578 0.555929581960191 -0.3457262147957852
P 1.6188523189926975 0.5627978644242668 0.47223666204797227 -1.2976722751658814 -0.36185654469874456 0.506107002011109
P 3.501598479957439 7.116565452232932 3.753803528251798 0.28878373597247037 0.5248189765983154 -0.4969338201522731
P 1.5180322124151715 8.403871362078334 6.9961276674195 1.344999085276303 2.3578504657722035 -0.5508552527610772
P 0.8645091505586767 1.896731806746034 10.823488506180693 -2.2295578173406763 0.10702422597105438 -0.933019398668922
P 7.571366123081236 3.459438852094992 0.23251827101803088 0.5949537857421884 -0.16810823776656855 -0.24615201734487288
P 8.682782728835297 6.703353190512924 3.6144814363514643 0.8609161529447691 1.1906272232592203 0.0008145254814953714
P 4.086876565532137 1.0779726701901007 5.7043570382423345 0.807548535956906 -0.6884054152351305 -1.3490187479586573
Ni 5.902200489456365 6.430375128026813 4.073668514285719 -0.7821108126100917 0.26197844285416816 0.9597989807556114
Ni 8.452093279087086 8.96937790888712 13.349842477361726 0.054744442730731514 0.485292636368919 -0.5520940102641846
Ni 6.472986202953346 3.1873636837370536 9.667222937910983 0.1631742908000609 -1.2211176785385938 0.6691568514181636
Ni 2.6222717311707964 3.7054406492005865 13.675397539044216 0.03461759007386941 0.3545535832794281 0.5315208140985233
Ni 5.208768585814083 4.148061462523945 0.20786833999836798 -0.14505264149868566 0.011211809555419401 -1.6314562299981257
Ni 1.929936198969867 1.0885310035664915 9.036016102148984 -3.045255207656962 -0.2545950059059035 1.0969359669516463
Ni 6.681296776810411 1.3006834840709867 6.248036580162807 0.09578953359749955 0.8710686679977386 0.1528266290171497
Ni 3.128399169244121 2.7740408635523717 4.486009206775878 0.1049963969077482 0.25059514071789096 1.1780465583807325
Ni 6.479794761736203 6.999742007893808 10.838590792455193 -0.37583897502076563 0.05826993938548674 1.1741089138892231
Ni 7.378810130440251 8.11903590425591 2.4407135418032824 0.38541067786960076 -0.2599722110574168 0.7481519391661438
Ni 2.7144867039145097 7.812088753498634 9.134223343678043 -0.2741523592125407 -0.05165371962054975 -0.3589339717353109
Ni 5.449242459685965 1.6985373324066628 11.259467519738745 0.6141856373886067 0.39104447911661044 -0.0647141523489337
Ni 6.339763253020876 8.066972080599728 5.965092593406851 0.6549155110078012 -0.9813659082931098 1.1723178834270713
Ni 2.3522695340255 7.866308467215965 1.88104171796768 -0.4113538800979238 -1.7797680018640576 0.7858286277813111
Ni 3.37411535698264 3.091795104231555 10.9604234565646 0.6977421192550242 1.6775275704348915 -0.7908888159130378
Ni 3.728169626896534 4.7879093636207735 8.057273339286178 0.5950188346521689 0.15591246703132502 0.11431844563962248
Ni 1.074508504963641 5.2616800243661 2.3473745580020475 1.1743858216996936 0.9477520768934066 0.9433423778614851
Ni 3.6810072285075774 -0.070539064423788 0.6734447758702556 2.3244155831525255 1.490512211351175 -0.4393719625774046
Ni 7.948785081862955 0.05996783255985185 4.677812480536539 0.23066497745286726 0.20103764150473766 -0.6015358098350801
Ni 7.509600794149888 3.2807487335652366 4.4422252908032585 0.34710715430371186 0.05238314158740656 1.2257914298651793
Ni 2.269866625021626 8.03423756185076 12.617326313816017 -0.9630822794925736 -0.9870614160159903 0.6863043097317277
Ni 7.9094631212604805 1.1823490740479816 1.7116762846126585 0.38344609794406226 0.48617503897387243 -0.050484124792480795
Ni 7.963037910600543 2.67084374998435 11.538555780039186 -0.05818997807717076 -1.784516058072004 0.02088712786165435
Ni 2.24537792509628 1.6478831291750775 6.867485523206698 0.5052834776685492 1.4945395873430132 -0.6026622101300394
P 6.92203783363859 7.019578039097446 -0.0096397767990556 -0.4127836705659149 0.3130953161346414 0.5856307085690495
P 2.9326738339491407 3.706564660258108 2.562747975110719 -1.0979564377963607 0.8792895132456341 -0.17752695997730716
P 7.2388615405734305 9.005558166451769 7.7474949705127045 -0.9942903296642619 1.2110497527796305 -0.22339955413970558
P 8.916475683540492 1.82490565752933 3.469820291927904 -0.6277474352334415 -1.7988373597906826 0.962841367126361
P 5.5754633735224 4.002022943894651 3.8244890826412794 -0.137163468558596 1.1792305513865045 -0.11658615862787662
P 2.6162462948460496 4.274521919700506 6.30484704723567 -1.364816377112546 -1.5732238287187938 -0.116916802494418
P 5.093686437293579 4.733846274395066 10.955932940257748 1.2407922741493855 -2.2517595502486962 1.108526242892407
P 3.649571771718532 2.355319105009431 8.770790030677617 0.7394042748805008 0.9300639155850241 -0.0451817387429609
Ni 1.9288582539392929 6.315753639775784 6.987065558598366 0.005005937855023636 -0.9522041991274891 -0.05973726795963261
Ni 2.6757083224300167 0.34653997959820115 3.7526979436050554 0.7741241948601894 -0.004092939122451016 0.16601921644802378
Ni 0.5870451783684076 2.3884590047955374 13.241845283785763 -0.8672770621657901 -0.21710420804929706 -0.1487213485995245
Ni 0.8642963255141788 1.3040923700651095 5.207009784905223 -0.566155116342941 -2.3170336888661582 -1.425311606284126
Ni 7.393680243938938 7.262336787905929 8.723608284557342 0.4867486520891553 -1.76218242757181 -0.2897332443699333
Ni 8.947321495184607 7.4691640356952815 6.179832141984724 -2.717946833246732 -0.2012566994940792 1.192259873766637
Ni 5.710547390943553 1.3196442607626204 8.477597274246357 0.602349306875311 -0.34980089908579115 0.9440134357865805
Ni 2.187565061277037 5.460473357055791 4.545341328163853 1.1576841926742965 -0.2645477462432412 -0.46090803687696746
Ni 6.388279992602092 1.4126423559644432 13.3816925283933 0.19599339421261083 0.9728576137117825 0.8762774658921876
Ni 8.820851824802656 3.6062328535662265 2.369056915565746 -1.881420164889921 0.25461094674550344 -2.7278365815566183
Ni 5.0869331577430605 7.923467193452551 8.946195641486007 0.9293308940737414 -0.7099031800975903 -0.6210548537046142
Ni 8.732884139743511 6.844960157349859 12.18609302235411 -0.1684424811775357 0.6020947676623437 -0.17117967760304068
Ni 1.4201142655353447 2.2032367236446113 2.088027432889732 1.0908334535983342 -1.3702192932956725 -0.17544873729203977
Ni 3.8069148933607684 0.22108099784747975 7.667383385689205 0.0598658231176969 -0.8140148604075401 -0.7051741500530372
Ni 0.7666345057441806 3.4367835800421607 4.358406312131016 2.0171199044187973 0.12047778037279895 -0.009382983876796744
Ni 2.726445444510108 5.4342710009279935 11.893979132273962 -1.1184843825463835 -0.6074406053552893 1.4040485831402916
Ni 3.867768114958553 0.521959410214677 10.064097422513752 0.9226007744387594 0.40658782616784817 0.5594913311695203
Ni -0.02715960816776833 7.170564049020912 1.139430278061438 0.31121943926816725 -0.15831953381092087 0.783764803273747
Ni 5.274799628840778 7.3874244774794535 1.9403323799314023 -0.7384411396362831 0.9439036496815938 -0.8916680894156451
Ni 8.761776751845048 3.042200419619764 9.053855631744714 0.192324687111772 -0.4266028358371943 0.3131238553797317
Ni 0.6381195037657551 4.031597333195012 11.180381364675098 0.5254851494274048 1.1337906738861507 -0.04614744509033988
Ni 7.009194756623456 4.742386915791151 11.911145176555719 0.5813781039402826 1.1602915483901566 0.408820829263425
Ni 7.276460631768065 5.353250072732548 2.686454605196354 0.30487318533516533 0.13761161183960816 -0.8440777412311915
Ni 2.4830049185028 1.2862556044309972 11.906439071242751 0.34290700017943526 -1.9828787238477399 1.8636924085928546
P 4.17196973050975 2.1771264995707096 13.228778194581805 0.5076550632245193 -0.35774200830973873 -0.7435892594961259
P 5.0713259878132115 6.227859660359756 7.136649318661548 0.4126797979981989 1.3731449515828997 2.118389230183945
P 3.919979349900968 7.964935830910784 11.198302891798793 -1.2694153372027168 -1.2236106201637766 -0.7182227557068792
P 7.443330207783065 3.600115285187585 7.371332692946116 -0.7014951585395531 -0.3315483806335064 0.14684187218862452
P 8.596233877406139 5.90017358427067 10.29976568845446 -0.6685518708443131 -0.03827729831364376 -1.1286160716637466
P 5.815366028660131 0.5135311699243433 2.0398617164338564 -0.4749927971048077 -0.4668899654920153 0.31185450174900486
P 1.7266468220500908 5.6336355523518336 9.955400025328187 0.06473086451948207 -0.001371683536546025 -1.3593522686741815
P 7.252570790193038 9.11047814942763 11.474181271341527 0.2732396175902843 0.4968008941188347 0.3334198866246064
