# total energy = -340882.90700545505 ev
CRYSTAL
PRIMVEC
9.13058315012574 0.00000000000000 0.00000000000000

0.00000000000000 9.13058315012574 0.00000000000000

0.00000000000000 0.00000000000000 13.36353137369617

PRIMCOORD
 96 1
Ni 1.4562458713793234 6.887482079888121 11.093481654488173 0.9960826456779942 -0.9446394994063538 -0.24294379482022033
Ni 4.948657485947579 6.016113987085302 11.682960334022024 -0.5325217445592119 -0.9155418107094491 1.0574065413984564
Ni 1.8009162628039057 2.844441504943409 8.676794284294148 1.2899620510058172 -0.5861742397773453 0.6613964907464545
Ni 2.1209797320612984 2.7850287989909397 12.83990842188972 0.3142386857104653 -0.6523184397045861 0.6812515777991687
Ni 4.4767432847560364 6.029508552880949 7.033280148109978 -0.6103539223473424 -0.34479496123076747 0.810321727826669
Ni 8.730143369834288 5.601740722256517 6.769203589926714 -0.5081870244685893 -0.009693058918047823 0.6312683039025063
Ni 4.496803176407731 3.2688036279729014 7.432930347263589 -0.391337584876997 0.7054909099625075 1.6177993013363234
Ni 2.977264101146047 7.067098915833561 13.24129525799925 0.6669387607209223 -1.8801510683695104 -2.0232471003624575
Ni 2.854412101977387 7.147986753859213 8.872756690578624 0.15471176185500454 1.2107751589620053 -0.8737868382598499
Ni 5.1023891180548056 0.5856657479208567 1.8361630537656881 0.9849770226831359 1.458161048713979 -0.4030998676192477
Ni 2.6017140767828986 1.6017325867084524 6.295907018413794 0.12399376394585743 0.3356703732216799 0.1793655558479427
Ni 3.3921943315600642 4.524843197919953 0.8496373043954302 0.8112282988013383 0.2726210101696789 -0.1811488730006106
Ni 9.282242354132421 1.5070940901359395 7.398879662722551 -0.666042217048582 -1.6755341941539466 -0.07923162923881838
Ni 8.336743054993642 5.068660743106531 1.5247654211794937 -1.0080819841317155 -0.05319175353163096 1.203154923412586
Ni 5.696552699912955 8.407212897400457 3.795162584708317 -0.06183528813924189 -1.567161681685114 0.9836755302628929
Ni 1.462399884566962 8.489862938015449 0.7456171334159458 -0.5438798498845084 1.7336102723610725 -0.021440172151646945
Ni 5.957121287967598 1.5660137445867284 3.812696043943068 0.1333014145000285 2.2352828927499115 0.49489133580094774
Ni 5.1088170487433775 0.6561036332858979 6.06765795629429 1.7259830948331178 -1.3690594686596163 1.0088803116632947
Ni 3.6069639134586318 0.5517081953301346 4.273229886029162 -0.2346188198942927 0.4619441914509657 -1.164363404466685
Ni 7.1300086352146135 6.231157486484803 12.990007907934569 -1.3356202151645642 -0.8906445332471371 -0.08805668372961609
Ni 5.926378613779499 4.133396827919299 0.8441324756850038 -0.6521037525906189 0.983275466610997 0.5319064795727162
Ni 0.7232682045147842 5.024340891455496 12.957640902965933 2.1428977568482708 1.7958268550991328 0.1328144475612809
Ni 4.048299790962635 0.9527581129135163 12.334205583899697 0.17665355623341836 1.0960921308941123 1.2652568349496531
Ni 6.310721389922612 2.363862380139004 12.691091782807575 -1.439431590625276 -2.0875033392383666 1.167242268676377
P 5.075152587878654 6.77971380443753 9.482441351098 0.03561132144570641 0.3368032012745425 0.6406993674084192
P 2.77731345604798 4.623535673506282 11.886874565358598 -0.29443733471382194 1.4726443299318188 0.21365404471716753
P 0.6250742587801547 1.894212563621845 0.8594965083123621 -0.33828389958512706 0.48959743439186004 -0.7623531703671903
P 6.909596352796816 4.400886398164195 7.297811409344792 -0.5130988599479099 -0.5112070422418357 0.187613911899664
P 4.364062755455373 2.31695857339583 0.8522221725459057 0.6996205672246596 1.491437808489238 -1.447787675899455
P 2.1205779863932626 8.992108937143692 12.071986186372762 -1.3282432059742029 0.08145357659080166 0.08356933738222382
P 2.5772349827828114 4.8663635380838 3.1341759154391116 0.7008225579525608 0.10783618034938847 0.7271491116622316
P 6.9801118481204565 0.45309332970240407 11.962953325126195 -0.08651736426695422 -0.16228160378246242 -0.17715800667366263
Ni 8.186006254229953 3.5907845197368284 13.022988488105295 0.39838883529682356 -0.42886103574375173 -0.6102202249829555
Ni 1.6553291110577677 6.331904343328133 1.6914223070974344 -0.4010712672249932 -0.5359145722908447 0.922071898518483
Ni 4.797208499681465 3.9639058089250336 3.2429549464681466 -1.334065983303567 -1.7513136031781062 0.05878981644469875
Ni 1.0312902604311414 3.5662323810698253 6.677369095505423 -1.4477069432601903 1.2105103353363929 -0.43452517600806456
Ni 1.227953895518007 3.922179042949502 1.7670198851217256 -0.09528559737788751 -2.3951715708201653 -1.4129674828964762
Ni 7.460307488423553 2.2834310712815733 1.5656978264023185 -0.006691038866930413 -0.37392093206244637 0.499328802747011
Ni 1.1245226471655296 9.097987181837842 4.894032857911427 0.6950121219183708 0.3044060158907596 1.204660561423835
Ni 2.6815975506384624 1.5840375161481506 1.9569688892023753 -0.7262834212278266 -0.27841087737857856 -0.4270671770681225
Ni 1.1440255732319924 8.933563636610845 9.60466425307285 -0.1135129190191916 -0.20510769780905322 -0.17577655294510372
Ni 2.428762566693507 1.5853797119027246 10.66086457103888 0.057676271665545835 0.38427527871357686 0.0037152440680581172
Ni 6.823896697338099 7.110414403314506 5.864171949317509 -0.839796083136702 0.4717953732134326 0.7787596367496716
Ni 6.860026415711223 2.087598319280873 8.498791735487545 -1.2669987573414245 -0.21649177127627875 0.1400140506335137
Ni 1.02352926457136 3.9406228213456886 10.767638525961084 1.0366466831432857 -1.6937365760945864 0.1798592076549096
Ni 2.827769059719925 4.666851160987227 5.608059085944716 1.3574198275381588 0.488131905589927 -1.7048388566553347
Ni 5.869294206584963 4.363925796704906 9.377858736183267 -0.47237541408661876 -1.5355476543242585 0.720281695118437
Ni 7.936631761380125 0.34022471038443225 5.058871844681505 -0.42389829242183774 -0.027520831128088088 -0.008678758720920537
Ni -0.05053686586388835 1.2491642406736216 11.917463845746173 1.358579395063899 0.33742540823957373 -0.09462173854164349
Ni 6.5382737885314075 7.645201801553644 1.610131810345409 2.7172726899978428 0.45497778743546163 0.7645854021318187
Ni 7.3318036581523 6.082210280060548 3.7736207993765722 1.0934690914489684 -0.4527987775062718 -0.1571244850615552
Ni 8.276700338789025 0.20188632877133014 0.5515968022130884 -1.0563742434792 0.08016828212047483 1.4549212016204427
Ni 3.4051141070207596 8.174930856608878 6.154561022640442 0.3542478791135512 -0.7473762373423838 -0.4145302209433764
Ni 1.8634972811838386 6.804402901855001 4.2335538490772855 0.382803836374373 -0.4822523068806984 -0.06350239142901967
Ni 2.2070354802712293 2.7871562249148565 4.017972558317618 0.4648263980947672 0.3765352297568419 0.2512399733907415
Ni 7.479271710071514 2.6715904312710266 10.702211504746453 -0.22060219390022653 0.16523040199814124 0.2419680611705123
P 6.937663766059133 3.8349271883188285 2.958939933391935 0.4365365500111385 1.1988452402936385 1.047592640631828
P 4.354110419588123 2.365524146311334 9.435067319311557 -0.3592329910329684 0.8059359400541475 0.20624386829602545
P 8.90090353991621 7.155601660385163 5.151641310839316 0.3643384305803338 -0.0660197585342347 -0.2185275707593849
P 4.9778114386302645 6.445406625131598 0.6769058413651219 -0.25036708386748496 -2.0642209716716575 -1.3270970081849016
P 8.819723523222896 6.9676942547448055 0.687840628002386 0.8000511991385962 0.2370762802958498 1.5685230808090147
P 1.8785810049019085 8.97757304842749 7.459844567846975 -1.1733437535884244 -0.7816539275783312 0.06769226114065116
P 2.1302107518427564 8.774700616652797 2.9688420510506797 0.5314169415308073 -0.24439312567223717 -0.28276015548620975
P 4.625790927597301 6.508261561012464 4.821428285114002 0.15723272850464534 0.6694700117832084 1.116823964124825
Ni 7.0426928665003885 6.156578881563985 8.641955630408757 0.9173968616403169 1.5919540581384453 -0.29898870152993023
Ni 6.626329134498153 7.651154941907265 11.061570265629424 -0.3222332738801676 -0.20910267790105924 -1.5978552541142288
Ni 9.217963047246702 8.098535265598533 2.772892427582914 -1.1525697542658666 -1.193709204618654 0.2434032509551421
Ni 0.3815442523419094 4.66498852198088 3.7321807337186845 1.0000866246310647 1.1871019837147814 -0.06617479605486022
Ni 3.8597075915699426 7.901415101343446 1.8329153052629534 -1.373047763883403 0.2628374484203538 1.5155041054098222
Ni 1.6044443699676938 6.70350995567784 6.797374178781047 0.7928981330335828 0.21423074315624394 -0.4684452257942771
Ni 5.225478512390941 6.130584110725398 2.775070984773672 -0.3581431004028993 -0.39827390698551407 0.6376842347311792
Ni 7.820015950649383 0.06516497347207197 9.302180809025367 -0.5326487570553795 0.2652200897199174 1.159540786267061
Ni 5.545660679232072 4.498035805161932 5.5400389790545805 0.641188905450328 0.5211279008999734 -0.6987484490323514
Ni 4.504874612101903 3.2843347502758293 11.522197239665834 -0.6686452018890677 0.568458310554821 -0.7265595577073487
Ni 3.673224556934438 8.03394551887842 11.117443044411496 1.441655337749472 -0.20785183621309364 -2.122875805200389
Ni 3.591651925156451 0.47502773011881977 8.573173119807691 -0.008638392401288348 0.28928510108892114 -0.06092280362730152
Ni 8.087450737394093 4.114396083937881 5.239640047189202 -1.3605876837431794 -0.5751951150580223 -0.7992834677346363
Ni 8.696917176971057 7.822417294074233 7.6222109926419614 0.7511408465911387 0.6682230267499847 -0.5040341786424803
Ni 7.000911317024671 2.411551417051521 6.240382114857907 -1.1328833315805327 -1.1290655004963392 -0.6268796879165075
Ni 5.394029081298669 0.7400383469802675 10.238817050892276 1.0990645832588748 -0.6582764570602341 0.6883007713364662
Ni 0.22252966470001273 1.4778488316196094 2.991974384004511 0.5457899224230278 0.09714681895634236 0.4292361596949833
Ni 5.381994972424326 8.055356736868054 7.79500180446414 0.386692887016134 0.6983581555724683 0.4806335403303529
Ni 5.341436921119443 8.325238519954436 13.115103291435874 0.12881509659390072 0.6453607774398306 -1.3927951217136596
Ni 8.4742861627957 3.831777137058093 8.771889310034885 0.188859611381307 -0.08144046396467909 -0.39105450641893946
Ni 8.748934110398324 7.892512782563108 12.177905518692052 0.72657806965011 0.46880929400191523 -1.2416973024621583
Ni 3.6480424080152876 5.232983851916519 9.829345083213529 -1.7421401642089547 -1.7655616284566884 -0.20468886510407974
Ni 0.9076594225014938 5.558562193526038 8.971593429382112 0.5333822927872943 0.6264166322371598 -0.244184866316173
Ni 8.464406871595365 5.321915733886251 10.992386922418659 -2.047875440434099 0.5357765040510837 -0.050747662866512604
P 7.057968332469112 0.199983515198179 7.158202050527359 0.22335430272406692 0.47249034239792825 -0.11741045430138489
P 2.5561524657942987 4.664075463644435 7.693879680644531 0.8633584438376745 1.8118612828541765 1.1422256920273814
P 7.458590938751038 0.32228402713162657 2.700381899794143 -1.3994972163241832 0.013161477082622495 0.419267992738678
P 0.37193887864250913 2.38423271162509 5.120811896109254 -0.8750975866514734 -1.5154480553609062 -0.7580578854259461
P 8.667498437370803 7.185878674821677 9.99981033545278 0.22988181942993957 0.8611354680444266 -1.4406086416525126
P 0.0815461530862298 1.8524949282296779 9.726178621778619 0.8412284447078544 0.22886160569554131 -0.35165543579602665
P 4.650836117765984 2.5339834093854168 5.517882705462409 -1.054708168630687 0.5754712515375444 -3.110301546534334
P 6.508517217346668 4.432496477771917 11.761845835115851 0.2866021549401193 -0.392061350416899 -0.15135852911205547
