# total energy = -340857.66982218315 ev
CRYSTAL
PRIMVEC
9.35809315934162 0.00000000000000 0.00000000000000

0.00000000000000 9.35809315934162 0.00000000000000

0.00000000000000 0.00000000000000 13.69651526924948

PRIMCOORD
 96 1
Ni 3.6622429249706365 2.8929047371702024 12.43253262764859 -1.0888596177014152 -0.4640093015101105 -0.08636026986379965
Ni 7.626303067016114 8.03392288412345 6.022467225311734 0.06488924447421728 0.16821108189301995 0.3085565477240234
Ni 3.9233711534605384 8.35116223854603 9.317780257569275 -0.23491706786100186 -1.1341624554032725 0.4588362419496033
Ni 2.3402812682405085 0.41530187569275034 7.766033433404336 1.3371844743278907 -2.154449466241612 -0.8076904608514088
Ni 7.332337290010907 6.336318014240614 8.190515598379935 1.5922445927956708 0.4502873239383277 -0.04270910883275225
Ni 5.972278836470916 7.435566414454431 1.668988757142753 -0.9179360219732385 0.3821096385208258 -0.837254547661771
Ni 5.487660629741485 1.3881233745993802 11.680127909223602 0.5074583738326809 0.516810247361226 -0.07254521835757828
Ni 4.960360160607292 6.111003207856176 8.382527759024443 -0.25421885351340734 0.7357042003210942 2.516189797077466
Ni 0.4166297890966608 8.625354364934868 12.190582875057027 0.3989706759422226 -0.3029764825330846 0.018589332966413148
Ni 1.7841485144167595 6.679703880647168 13.13669731220594 -0.8684733964667366 0.8929634111883007 -1.2830370417512096
Ni 8.170813069270752 0.8343001981405721 4.839759608033542 -2.375649441626838 -0.9891110994561675 1.862710761405876
Ni 3.835816834877127 6.485888415471767 2.6545213538403027 1.7412305079104915 -1.2387644450860795 -0.29320963295430796
Ni 1.7296937709540754 1.3803093669019508 12.443352454833942 0.03199557906999005 -0.8333050760957198 -1.0356148994446617
Ni 2.8795881707588946 1.3289053617738318 9.938452035927266 -0.6304949160715915 -0.6749325775596763 1.4248948304616813
Ni 5.624204565445905 8.55313796086174 7.597963953830334 0.6762050165141967 -0.7979035566679742 -0.9039685040495529
Ni 6.600833872414911 2.6287725608109893 2.280181723049574 -0.917643173323168 0.4216292938820029 1.8430310235887613
Ni 7.231195020317713 2.9330322401720905 10.77647301186484 -4.663424233627878 3.1530474221422926 3.0140445863821124
Ni 7.8511686849341125 5.880728612154807 2.5714111936467225 -0.6377256294920759 -0.40677834491209947 -0.6975426016497084
Ni 1.4118929309484467 3.3298434598057387 10.188125022713667 -0.05524889317097582 0.6110774307769282 1.7378947586690392
Ni 3.770712581522617 5.122039934246198 6.641618313548967 -0.9306637539525522 -0.28236780514379756 -0.9610048281382547
Ni 1.9684000084942281 6.484447269141942 9.332805611771661 0.3812346921150402 2.1025743746388756 -0.6731626301434471
Ni 4.580496447488668 2.95867341513132 10.287781227230392 0.46002074917600766 0.9467742863611693 -1.3072144103283616
Ni 7.871204362155904 9.103056940899748 8.64165148398286 0.6065975406287036 0.36952768809075714 -1.8875368193106203
Ni 6.202422418869574 5.522631823472375 0.43320390769895667 1.6046684203813204 -1.785907539102892 2.170803225009287
P 4.2162420335788 3.2671629525513897 7.81232791972671 1.0358781804083772 -0.036949323530839594 1.9454185221187528
P 5.090737112991226 4.653133965749082 4.779015290231406 -0.3704430008161749 0.2556712696892177 0.6569004026483138
P 8.549946851131411 2.0295083561160405 9.879227472436583 4.669463497843422 -2.801311767927634 -3.398711444107153
P 0.3333830007445385 6.520101603665542 1.9972528809884966 1.7396212544418428 1.3892863372294526 1.9096976716783753
P 8.780614486740916 3.5493188161264695 13.360553191883755 -3.736975546197938 -1.2273451475055444 -1.263196867096831
P 8.423528372107972 9.342567974442272 0.18953226598604248 0.8918771201026574 0.0657600771149448 -0.4432689836389656
P 5.953366130415222 4.728606986203894 10.285562423368042 -0.2677174022204744 0.4917011109984242 -0.36946932404899596
P 8.397222772542134 5.906921914604034 6.119657572309569 -0.09474643704496587 4.256730220899469 4.018833244474537
Ni 8.469317521405602 3.701228740620326 1.8603701823156362 -2.7641030200878203 -1.5810065579880062 -3.5766664927608143
Ni 4.938050466774152 4.839584611693493 12.500384417122818 -0.34051510290849096 -0.6908860155651392 -2.259616070178638
Ni 4.22440229071911 8.99393221783421 12.033429611026799 -1.574346115248695 -0.17435241890406747 -0.3561548663282769
Ni 7.5988183477258735 5.116986563998759 12.004201479001193 -0.8006260978054599 -3.139897000803263 -1.3035415894624647
Ni 5.546176785588221 -0.008179909135716142 3.8018104605397753 0.7634597731678078 -0.14191718119349753 3.1179865738834174
Ni 8.393451461042657 4.0505757123002475 8.791053439539098 0.483175075805284 0.49807847527967775 1.6722946041707263
Ni 6.660014452868256 2.882442389139393 13.58847703461076 1.0015943195248427 -0.060714801381553496 -1.1309056390288716
Ni 4.943936707303115 7.137361421297205 13.158612094512334 -1.0827344786402835 9.178838285790644e-05 0.8519617719649585
Ni 2.7049100058724083 5.209350942410289 4.185750558991334 0.7662846442111125 1.1083084704546462 0.626169035002728
Ni 3.383643136754866 6.298062129848889 11.124734444750867 -0.21882093363008767 0.2717164960775385 0.8360764681932698
Ni 2.326403216246152 1.3841929755180384 1.0800287487060551 2.6277196242283583 -1.981795003865258 0.6002713413003598
Ni 2.546477490522135 3.086327162437468 4.140113946610432 -0.5861747539979776 -2.443868007584604 -0.443471586568075
Ni 8.12570706076583 4.679720308106443 4.753690418817294 -0.9049403810445188 -3.1938731979094026 -3.6949729765139074
Ni 3.2397718141916583 4.72845725671508 9.218781926994025 2.1668488683472296 -1.7347924655946316 1.047820697482234
Ni 8.476382881658965 3.2129234452288737 6.725056942808631 1.577747170510444 -0.06944781037917717 -2.1078168539847377
Ni 6.931773475063881 2.0748389588541816 7.867908441783407 -0.5194556554038732 -1.8364615979013597 0.793512112468498
Ni 6.621140934335177 0.4562407253621445 1.7427717059925873 0.2934934827433139 0.4378190162679879 -1.1830794928189496
Ni 3.888203439775581 8.885350264165622 2.373907703999997 -1.9675541776755274 -1.0925977445876085 -1.6331356745830778
Ni 9.215204328020699 5.486444077644878 0.3714676320334345 -0.5359497964041544 0.5514406929509019 -2.4155735315152853
Ni 7.821101131961848 0.8703382144792551 11.841596189959562 1.4059879662548496 0.14692337615883727 -0.7404692258099054
Ni 6.405249727652907 9.095102561806558 13.201550768666687 -1.1426308978855997 -1.1430319899787604 0.5390860280402909
Ni 4.342398485996818 1.6751922370261372 2.860243120804253 -0.46468575875184487 2.119400187946963 0.018667494502516237
Ni 0.6413456775258471 7.819304378096092 7.675088677708613 -0.27711632693687116 0.4405400147435768 -0.43994017637604876
Ni 4.564344378882963 3.155446037710777 0.9253404063854119 -0.23318645832314033 2.4171161934120566 1.0435038152744351
P 1.137700804559609 4.074307836277111 5.754481386234196 0.22064924508807804 0.5583597886682383 -0.4510895081246489
P 6.342915469841437 8.782111781629046 9.968282829145345 -3.225348899920181 0.6633438442808124 0.4343912215333616
P 2.1114291026828624 4.5235711674605685 12.050111347699177 0.8219318012617716 0.4297447239002857 0.036837480543323656
P 3.1782891428478126 7.41509090685925 0.8777273647521775 0.23007568060830053 1.1971776227832285 -0.28190732056761125
P 3.083697538290189 0.4686532999847436 4.28007920113423 -0.3970775726845678 0.45392774890439247 0.4204836103133339
P 2.505648130541435 3.3024429633529566 1.9202788224083345 0.747206544533739 1.4738851443174554 2.2837042214760928
P 4.261207670687959 1.2724011959330197 0.24106822022617788 1.5067885799136953 -2.795663568502921 -2.1113366942125382
P 3.0606485551060354 7.292902285894778 6.901797631403516 0.09281605279147241 0.2599159038981846 0.9788287436935529
Ni 0.23753179686227543 1.3851662171953232 1.3238257888658505 -3.5394870554970392 0.8874849045722328 0.7695897973249456
Ni 1.1002871485424564 1.9192980942566091 5.8054867365983505 0.8150597567322866 -0.7822370537753108 -0.36989304184997585
Ni 1.5182476584709428 4.485511803022909 7.932117125632955 -1.523511806205647 0.3411542791543867 -1.6261024218853801
Ni 0.3593601312442919 5.629482529926563 11.25945355231038 0.700051484114491 0.5410459799801391 -0.3853410009739299
Ni 3.193496044055385 5.299038906209286 0.5490758158541303 0.5238645831048462 -2.4557794143102094 0.1906133608476201
Ni 6.169781390308336 6.4965753577357965 3.883880000786105 -1.4141401630483388 0.04507940883714172 1.386112053266529
Ni 0.5891144169720363 4.290601440960565 3.018534328949459 4.126663768396971 1.7034412049768601 2.8940584009337513
Ni 0.7253626369360514 0.404807710145568 3.670885123903063 2.101389610302155 0.7128874595368948 -0.745663111306019
Ni 1.3042842189571413 2.1931065388303637 8.285624705483269 -2.1201833459698904 0.5187339467465001 -0.7299261601867365
Ni 6.29877334492075 4.22762147472859 7.436646338392495 -0.7235927617695409 0.4523010119342469 -0.4722592002237286
Ni 5.721734611221484 6.837808862740663 10.958568401303403 0.3687471011709908 -0.07183045167874082 -0.5715539187610091
Ni 5.761113466779308 6.4494480011319 6.327940649341526 0.4358467230329655 -0.3497222233290557 -1.8637638852607388
Ni 1.7494112730121396 7.349322228898133 3.360563271863644 2.4885095575533787 0.24931498845388675 -0.8509312738179152
Ni 1.0535247575675408 8.563225985170517 1.449419819891514 0.3209965732595891 -0.6138930458488524 -1.3114701002809221
Ni 1.7490837397553611 8.577169543816229 5.634389913922411 0.7073323340466205 3.9831054520556246 -0.36124565058762304
Ni 1.311181133535591 3.2579545889893886 0.20912530540653085 1.5507536726407358 1.5816639890663469 -1.074939408075897
Ni 4.73281812807676 1.0231390294315492 8.602055520666259 0.5257954815789718 2.339943503584796 -0.334904698700249
Ni 3.746578059544569 2.3048421698570776 6.044093778352163 -0.08697193530586957 -1.2650159225834408 -0.7431858534101201
Ni 3.9811480199562617 7.580560708183737 4.792356187684646 -0.1987907544520899 0.41992105294164456 0.5399146945891734
Ni 0.5085562087534127 0.25872413438514785 9.648031104569707 0.9408620346417925 0.03575736010526744 1.1856665368198354
Ni 6.131955978196948 2.684163113578755 5.004788643175334 0.42574537293290554 0.14959243835056818 -0.1289621636947263
Ni 8.028308028292962 7.683340644160822 10.647246169116853 0.38499827292253047 -0.2662331043654641 1.660637479547772
Ni 9.07398134579087 7.683481015556584 4.000300293194057 -2.64772100705095 -0.31075175560312934 0.676679385047454
Ni 1.3351565679317754 6.561922921509629 5.485824571884915 -1.4481064926914544 -4.183234465703163 1.8179046608347789
P 7.564792321393115 6.835778156548636 12.902541915316396 -0.25382496050909836 3.396917328321208 1.3091558503254486
P 7.2161659228781065 8.326363291961375 3.0553228643508175 1.8053239959562908 -0.8763700256059939 1.7204038009731273
P 2.3771802291398667 8.59800065894734 10.860076343562199 -0.8053420152238905 0.16571042695835334 0.7272426998173024
P 5.3377252628813485 4.531806289345284 2.4869310086305028 0.6924263634690655 1.095218212929591 -0.39725395036143196
P 9.295028861744138 6.65730060588352 9.352774846532794 -1.6030676515531037 -1.0694621870114096 -0.9698391386004329
P 8.728480550354833 2.1782552451587223 3.453795145500985 0.29569794659380044 1.7577326193305727 -2.0066514007873058
P 6.033761507814761 0.7811621383701374 6.042285794774748 0.13519528908863168 -0.4758859983430385 0.6357811041711954
P 9.026414158813585 0.8550339891039547 6.958994296130089 -0.34543388036634703 -0.6836648152263516 0.7353054222207788
