# total energy = -340857.6088214715 ev
CRYSTAL
PRIMVEC
9.46857980747269 0.00000000000000 0.00000000000000

0.00000000000000 9.46857980747269 0.00000000000000

0.00000000000000 0.00000000000000 13.85822364694621

PRIMCOORD
 96 1
Ni 8.961367068840623 8.871425027799198 13.22165993610858 -0.45178807685357025 1.329635201225723 -0.8756244056892211
Ni 7.942273276310099 1.6954723334035708 5.468455264442671 -0.35031794793152576 2.241107726961805 -0.8997634648292698
Ni 8.24198223778859 4.67235599855354 9.103550106096158 -1.5748595645500039 1.056882036353554 -0.1294804980920415
Ni 2.780420099556906 9.148466208853101 11.555277920916565 0.5794896286683181 -0.15817735180610176 0.10644907019387474
Ni 4.625164596032175 2.796346251049872 1.848340663144131 2.6846932133999246 1.1830326987414144 -0.20086512048261534
Ni 1.1492488926626852 1.268998023418648 12.442024637054152 -0.6225874882990569 -0.3477990381644139 1.0588018790840863
Ni 3.673685932997053 5.730592900639305 1.329182211361326 0.5041984721344865 -1.7924034312398807 -1.4781045817154415
Ni 8.408089536029427 1.8491568547366957 13.446676004571463 1.674673388815548 0.5182469798077527 -3.1226680385194867
Ni 6.0479891694833485 6.313971049143802 5.533269587985861 -1.4020973729511916 0.481317710881571 1.8481356918051781
Ni 7.205674566890525 7.693732520936234 12.271900767194222 -0.812857092654013 -0.04296776181077761 -0.6834601554147133
Ni 8.301511199998028 9.335148731347333 6.6307859471782935 0.3749203198612382 -1.1787368995795378 0.732138594457023
Ni 9.412071474943557 8.016762594856566 2.1351231192610323 0.8404619988554751 0.5379249178526543 0.3773538690033953
Ni 5.571123076950531 6.324377018520003 13.296120848915168 0.8630262573092363 -2.1108301868897645 0.46112323821156714
Ni 4.891572561790834 3.301277214584562 4.510477368122905 0.01979723723158526 -0.8142166920057009 0.09127030557090732
Ni 6.802701272366684 2.707190102145139 2.955487515014028 0.8116142213858474 -0.09836963561984995 0.5372070658500232
Ni 5.816596012417309 0.12470877293908708 2.1477201180400103 0.19527245688618627 0.8673842771676159 0.14979529838999364
Ni 6.224530842840266 8.05139866035078 4.110030290732431 -0.8524739357146867 -0.44150932063538156 -1.2726148179766212
Ni 0.2359626937548071 3.0840395845589383 1.2319588323305501 -0.6915462748569574 0.09142354331931997 2.4347074241312585
Ni 5.155783816998739 7.216762274023854 7.6708460163145675 1.8184096254956557 -0.6915177356118671 0.9437905211424973
Ni 7.39450645703571 8.067315343263784 0.793254904469103 -0.45243368085736924 -0.6118832145076752 1.2838767640436857
Ni 1.7119571311141843 4.456983678780066 7.146880366485996 0.9476854853215291 -1.681211447044382 2.8212465591783475
Ni 3.2069228152817097 1.3246543364243843 2.313367243294783 -3.5013128584201634 -2.0222541403215684 3.4932113123589517
Ni 4.926672587703093 5.434661902564912 3.297023928466464 0.4461205941551478 1.0784651618409684 1.4624141675633782
Ni 1.1682333954827773 8.324614535100784 8.56510321007654 0.004972770624243048 -1.2589632886314577 -0.46919573080705645
P 6.901193441112119 2.5446240528093975 0.8069227996415732 0.6732333354803824 3.837100731056315 3.003226926941318
P 4.217788411826866 0.9087914640007969 0.721965965949166 1.1504280253325154 -1.5468329974300907 -2.4580011045518764
P 4.058403805357733 1.8204007773977333 10.30424084682432 -0.20029022181575182 -1.8773915033465023 -0.4904145309765166
P 0.573938921142228 3.4432585710869463 13.154129076974826 3.490257114826634 -1.969304327597415 -2.682046519805697
P 5.712782501734271 6.782088173793446 1.5710656081652121 1.1204826439233349 0.06199238254239646 0.4250540032928357
P 7.189899912676921 5.093262783521897 7.054875121871255 -0.7339651061428004 0.4720743379064321 0.6756535148861009
P 4.833691132494463 7.377017989849321 11.547143463872803 0.6378824667849143 1.395641590023519 -1.4202532179246121
P 8.472456942598498 6.717663955744615 3.5701697357247637 -0.9575927171329122 -0.3165665625126935 0.8471903187182442
Ni 8.040443513336891 7.138864266691736 8.147845615824822 -0.4865923290169491 -0.10075124847814908 -1.3106458046074136
Ni 3.75995416501394 1.7611653411670616 12.681369507570722 -0.23064620839978986 0.4656206118612884 -0.6322406951181047
Ni 1.2294288277651988 7.272721581588317 11.349150722616178 1.328081740695674 0.5742744030159658 0.585089748463915
Ni 2.092281582373357 6.506543028373246 6.239997768205164 0.16574667951292743 0.24483818362945575 1.5881511394525873
Ni 8.26133601522713 1.9217524572911329 10.808070614509644 1.8761820564194331 1.379897954036017 2.0070308956139113
Ni 7.916338835799261 0.10700158155561859 3.766457185730568 -0.23405934784639693 -1.181226755880927 -0.1151244864806856
Ni 8.330096842897708 4.395835589397445 13.17957304504373 -3.0893902503029635 1.9112387909132507 0.30610345819784057
Ni 0.4787418182229231 3.2988627266947246 9.269557984247411 2.2349494206698926 -0.40963175520049455 0.9557921735890638
Ni 1.3987933175123253 8.208870613667962 0.10338079657885887 2.0152286009333555 -1.2061374030796777 0.017038443539525494
Ni 4.0541902872754685 7.87272655650283 2.212617765086849 -0.9630406276213609 1.6397256690957696 0.978069239819709
Ni 0.6082691515037283 4.830367660928452 11.416265911089683 -0.11813396273097075 0.2557733424847208 -0.40885528204578614
Ni 2.880342023876324 5.619602206346477 10.760481531629951 -0.3014147944729196 1.0703001095316726 -0.5808973076491222
Ni 0.8320003336660192 9.385218582176584 4.712461115832734 0.4588246719853776 -0.9536450453390737 1.9866929553875075
Ni 4.216084067434039 9.093122358986049 9.255380679473086 0.23515232380025952 0.2073080478944817 0.3414774668217603
Ni 9.248700596311204 5.378352257541924 6.5873819766409865 -0.9774845709608327 0.5767084663787553 -0.5760700614638079
Ni 6.328439039322905 8.014840473124655 9.851118165399562 0.10955933368808227 0.07826052357480069 1.179991597922245
Ni 8.600453206499747 7.3307734453239695 10.404061457338162 0.11747910275579122 -0.008779288854526815 -0.24985337745586006
Ni 8.265729436328636 0.8192774027735714 1.4733508098345045 -0.5064263330237407 -0.8786112562316868 1.868896064280981
Ni 7.105657956771505 4.87576003325739 4.3999165473602675 1.7838036053860116 -1.3254275909022786 -1.2042435284910746
Ni 2.095349402280444 2.7066125187675705 10.994283495437852 -0.03547171054404859 1.259237625338767 -0.11833065212280912
Ni 3.336841200914869 8.292800106434694 7.077131965925574 -1.321471434468008 1.7035419922207822 -0.7274879830588891
Ni 1.2764308586873625 5.471248495530914 0.21965685220544018 -0.05735719776323025 0.27738732121007065 -2.0992486526997527
Ni 2.685062030778279 3.3780200551615427 0.7452870783910049 -0.8971427393769711 -0.363267051893026 -0.31471613956751604
Ni 8.738656599598034 5.700170353227357 1.5327614147944388 -0.5265567852250287 -0.2272209847683248 0.652385802607412
P 3.2858055549296834 3.9686984788153126 3.1162299158494458 -0.2544597658796198 -0.5545797528005159 0.10044888674638185
P 3.119613039469206 6.643780626315598 8.482493637356253 0.09556173385740961 0.10023574229431124 0.2426550599352079
P 9.107656629224874 6.613263393104049 12.598441790563774 -0.5835494005599885 -0.5913884369884331 0.4984535992309093
P 0.9817213074278272 5.533741123267875 8.882303479315409 -0.9885907081763233 -0.1473128982877721 1.2424832886985633
P 0.10682641282635588 1.2813639888465982 3.3904002234594333 0.6786005133295667 2.4227669639399307 -2.4612800324134647
P 1.5414374746119204 0.6539995521372441 7.154114361575547 -0.07481755933152276 -0.9111686213424179 0.2422323705754925
P 0.43395732872742593 9.354521445945792 10.884595677747543 0.5463079997100269 -0.3367669487199684 0.23548965253502024
P 4.139719970055464 7.294262600997647 4.986216699640466 -0.3369009031946714 -0.30926205843148025 0.3673628192289544
Ni 5.58468208345346 0.22333160808797273 11.359447803322837 -0.9920015336300853 -0.042785213486326315 -0.015618680373863424
Ni 8.733799218078481 2.221650790368828 7.7683241001462715 -0.2675703351196489 -0.05318686843562453 -1.395585282864287
Ni 5.126317596162766 4.235968085350345 6.907271322588537 2.755719938230447 2.113388434535244 0.8891378667946236
Ni 0.012314835096165508 3.7539794910590882 3.535676645787949 -1.4440462065791517 -1.2421475026256994 0.7045845960981544
Ni 5.5576587562472035 9.253330731911715 6.124170523268694 0.4459701846202126 0.38196797073663896 0.3321767582461247
Ni 3.371401517769401 9.26023332670266 4.752469653596334 0.10768011438749843 0.5474490552930056 -0.542053338198731
Ni 2.016561348432072 2.0645859859899307 4.339827992075188 0.2400790716779156 0.09497295123347516 0.133794294976047
Ni 1.6326767111078844 7.178168342106301 4.27515096294142 -0.3979669172680565 0.10917855330989584 -2.818766987289604
Ni 4.230845583591906 3.8478131184641318 10.971957530749824 1.2371814168696758 -0.42466808070832673 -0.14999610154689008
Ni 6.062722279901336 2.052683980980028 7.206400806973467 0.4797267122453673 -0.617833004333207 -0.15124720034517178
Ni 6.098153706112201 5.78227241006178 9.880082551497647 -0.3952811429057773 -1.1188991014862988 0.16578935982540483
Ni 1.8206090861568565 4.320058543976399 5.038420768392734 1.969844773481917 1.2513937038143157 -2.9956390872917313
Ni 1.6068464249766068 5.104416770714948 2.511886437597194 -1.0750461088570904 -1.476094236153632 1.4987351134815994
Ni 5.883908147353985 4.578190970849891 1.3106522003793208 2.2890567440372576 0.5812456921274763 -0.7229988369392839
Ni 3.719883134622603 1.2611106963118466 7.486780609321318 0.3352839364165387 -1.1219648848958161 -1.5254054236839343
Ni 3.368693503900799 6.987168147150242 13.036389178886406 -1.8396520798141995 -0.31731243953978255 -0.45078920327541067
Ni 2.0360950288898523 0.8413780152585475 9.417951463098808 -0.4223165497570146 0.6260813603849282 0.1987485883602448
Ni 6.116759465733887 1.4128730959130618 13.333427053958141 -2.005829161996326 -2.2582104480803626 -2.0935852837663878
Ni 1.154901634898892 0.8058253912241925 1.1648531124370052 0.008182021590160102 0.25782379725584625 0.2717663754788674
Ni 6.4786769975505365 1.8622613694015373 9.625907991047496 -1.9605265814047848 -0.014355240280407534 -1.1893180175294935
Ni 5.719760845164898 3.9577149260615436 12.826257718120873 0.5726543509140396 -0.8677899972464669 0.7283660147884682
Ni 2.85541125284126 2.9526441004519968 8.518289603895584 0.30998942351580805 1.2745991953965017 1.7242113476446757
Ni 8.675056148005735 0.3272426451445998 9.207847461215158 -0.4572131045238836 -0.8834282180043559 -0.9536499304350801
Ni 5.319722810428702 8.612023811211046 13.72063989713832 -1.1850582138118753 0.683625477347984 -0.4852841517284868
P 0.32887408147173286 3.0677820327673686 5.718111418535841 -1.6486525392717544 -0.2693914474887877 0.8787470104786026
P 3.6198949302434644 4.605659321314274 13.071700354131776 0.15605722013930542 0.7759008271446379 -0.6676301303609921
P 9.293496448102653 7.529159132648942 5.903506214155494 0.9872537345324545 -0.5060707494565349 -0.6714615882919404
P 5.935701279735981 1.052404256830315 4.186860242245046 -0.31316653569220904 -0.36188714082636386 1.0474242333747639
P 2.0418235197657406 6.942694227077437 1.76613350507215 -1.0007260579872765 3.416020110588929 0.10773642154673059
P 6.7513058203430125 9.133060829257944 8.188298229988554 -0.5120195108408021 0.8454399116860408 -1.6125730199403776
P 6.577121823396172 3.859270100215908 10.863946598570456 0.9428739228654988 -0.46521951976812786 -0.9926515085092582
P 3.5794262194938016 3.210331504067362 6.334829383938008 -2.8159477726732534 -1.771075359186066 -0.41396920623358385
