# total energy = -340859.96873907757 ev
CRYSTAL
PRIMVEC
9.35128912552550 0.00000000000000 0.00000000000000
0.00000000000000 9.35128912552550 0.00000000000000
0.00000000000000 0.00000000000000 13.68655687799796
PRIMCOORD
 96 1
Ni 3.881916395417176 8.441258860623186 10.931657647852838 -1.9545832193371566 0.6674853772530117 1.003235968893324
Ni 6.020874108443864 7.948698420906069 10.569442953719395 0.6996383078364725 -1.2678508209290746 -1.6750742237983927
Ni 0.374731394313065 2.507903464903345 9.439727769819388 -0.3686897655704941 -0.9581956408242336 1.9509535930043693
Ni 7.142159105409298 8.242506566549418 1.2141778954146931 -0.7538109372241341 1.4153771207792334 -0.9081234067581908
Ni 0.7354377255485052 9.239634500918756 3.471827777810005 -1.3303096015849283 1.0759598789206113 -0.7211458428909452
Ni 0.3156499511043482 5.980654214926819 11.510640829236037 0.4680441337011165 0.8522690187927322 -2.485872634151164
Ni 2.759340920584886 4.862632817784091 8.901462905651083 -0.09320480358945885 0.14253784549663195 0.7762803219712437
Ni 8.859794497484936 4.758328541502036 3.291219789570025 0.9642878697649007 1.247551190139774 -1.032722151277899
Ni 5.551252380374578 0.2941045815011694 4.798916875801357 -0.9686965403555576 -0.5851388565342954 -0.06625295759096332
Ni 2.4005974248875135 2.0427703555013865 3.2485040370481677 0.6322828612099498 -2.3009771496239275 -1.1635532498605639
Ni 0.4860799965161598 6.334796876490181 13.625924819308121 -0.3114606087446959 -0.13468518222143255 3.4374101462289315
Ni 4.906424903657219 8.664726611233935 2.241939717059661 1.3218925811658266 0.1882633725582048 1.2512708050832062
Ni 5.212782478991307 2.001203876384143 2.9335217679705843 0.5454741909548219 -1.2112664967761269 -1.088205529057184
Ni 6.972882073917655 3.787646052114378 10.419206081537231 -0.6014093115595449 -2.2830994980125583 -0.6486484470521667
Ni 3.7618738999327976 2.2026586929471987 11.463038093140126 0.3500639229391907 0.8634980547393323 1.6896986585797866
Ni 3.465933660422469 6.292416835239483 2.6272988511965156 -0.45428898889855307 -0.2457478399279187 -0.40923271998986294
Ni 6.572637558125271 1.1279150607886328 0.8368056971190163 -0.26430657676671254 0.6687529311115257 0.16874664268151582
Ni 2.8753810644242286 8.956449419454751 3.999937142243477 1.123464352259478 -0.30760472533371536 0.29677009661205667
Ni 3.7667926778890792 8.96817593572315 8.50141850744095 1.8816345948935724 0.5163263657462721 1.1660335930802563
Ni 9.191484714422762 7.89786481449857 1.8439759806276124 0.0809853787051315 1.1711084365000024 -0.5269560775459763
Ni 6.14502181975107 1.592879846990566 6.764060311966847 -0.09726868924618731 0.5891171244557531 -0.3918176098372091
Ni 6.238637572831549 8.727492462265417 7.343234259643407 -0.284877973160161 1.5326983578009217 -0.3147436503713418
Ni 7.005976285300315 6.352975782092862 3.0274797782244467 0.526189888803913 1.248256700847231 1.0085782070418434
Ni 9.121985935390287 3.1459045007308077 0.7847143423557754 -0.842743081580168 0.3329172359565751 1.1160053248782715
P 1.0622970666456184 6.316571214443046 2.137252037933104 2.636222519493047 -2.3663757296343952 0.8304066715020022
P 2.814111419615189 3.0564874763620598 5.570318723292946 -0.9564843145600819 -0.8609066398630721 -0.31711883547173775
P 4.15990216025819 0.48361593189357405 6.5464165440769575 0.24484692538020414 0.47123975782027877 -0.30551930355959644
P 8.238476161037712 1.614284947260391 11.191497236602284 0.6103359246252134 0.002493198735498932 0.03701025867576206
P 2.688355286618857 2.080727237106987 9.726885278803975 -1.6503193854512157 -0.3223944820483802 -1.5653130585121493
P 5.274818929489348 5.691222472484117 10.063642959191439 1.2556776759016504 -0.8491584981882085 0.4957300296521591
P 9.149151429616516 1.8130559439119396 7.39090432501933 2.5548653592707935 -2.1842922606346575 -1.5000389198946877
P 5.281056239179158 7.379363899399849 12.607453503175638 0.00952747987446101 -0.42965010730395037 0.29679503631272114
Ni 4.8554697304941445 2.7904900638783703 5.109082295971563 1.7342597330196132 -0.4635724710830081 1.6979547279409917
Ni 5.1135372499988865 5.709850239953532 4.945541345085212 -0.643168397774202 -0.16136063463008984 -0.4165732195153342
Ni 7.366328202686815 8.757107994180897 3.5502654538926888 0.529874536744352 -0.5192458533859122 -0.7692000180856946
Ni 8.729147640398994 3.2685934109711314 5.1618301112149005 -0.7148764649424656 -0.1581660389521921 2.2503048200800406
Ni 3.052812419828184 2.8073410864586346 0.006601074827640577 0.7443068543884407 -0.8866040446291763 -0.15288113640416898
Ni 1.9314526125516298 4.158639736258003 1.5118715015919477 -0.6022562329408724 1.1983927261372522 1.0172327973930482
Ni 3.816896883763138 3.7286768243723443 3.486759915909986 0.40361537380308554 3.4728036952368773 -2.039909648619803
Ni 7.583343563963278 7.369844287309555 12.534189895235938 0.7997136132935195 -2.6713923825259607 0.7553710826224024
Ni 0.04647871117130183 2.4624936060522007 3.2413325335982206 -1.1010507604509683 -1.9518336816164772 -2.7484923101337566
Ni 1.4210873187874424 1.4164490794978692 0.9665894302403867 1.6157838135681915 -0.8169968258539994 1.3774320089940277
Ni 5.525255797259631 4.623295929926558 7.962469128925879 -0.7390790303305981 0.5115078613117062 0.34196700486366916
Ni 0.2213478134193239 9.22802020011704 12.597968490854237 -1.7057464560712687 0.03336109195894899 1.0035666127598653
Ni 0.7681821987266696 2.2408213029083845 12.515466744619843 -0.972870469227589 0.7103862903815958 -1.6927395022886396
Ni 3.20762300740658 6.132060933349158 13.572958183904753 -0.02740538859614635 -0.10211573292584349 -0.5807381563634385
Ni 0.34050474184579305 7.066890581131525 9.323364071384441 -0.5473595809029927 0.10297473849202912 -0.38641546498503127
Ni 6.783107017178545 0.013791280855368074 12.186277062331275 -0.6524315682436829 3.613669295237409 0.8288508969791081
Ni 6.466238593131795 6.638900791201714 7.516013348824455 -0.5021485315839933 -0.5772828508249864 -0.800176411862551
Ni 8.473221566050123 4.167803999370466 12.406274549634844 -0.7301567881403038 -0.2959812821621742 0.027269120128598202
Ni 0.3059040378229103 6.929613660222383 4.065947890519882 -1.5100073439613093 -0.5482229573445526 0.3809287308388472
Ni 4.047995286108345 7.769565130924086 5.932191160253002 0.8083401786202659 -0.4850938900945516 0.5499628228537948
Ni 0.8154987853825394 3.958185507606206 7.831242491928741 0.2148897168964815 -0.1291205436494615 -2.2597302271589985
Ni 3.173621721001564 8.125961453110001 0.9781999905265442 -2.3853826097542012 0.4336605140149241 0.2804168520650138
Ni 4.103214647005381 4.325485432638175 12.284286986061291 0.1367340943306613 0.3798082440811588 0.003189967692207409
Ni 7.675435056954642 3.0241320168017305 7.8043070394092116 -1.8268819246327246 2.4374857582073437 0.9553054637606323
P 5.4755723993856344 2.6273942343431966 8.489223491599152 0.958731972943678 -1.839344832986426 1.8985498825916725
P 0.1408650104563385 4.872143078585493 9.633008624763459 -0.1855338894421837 -0.7519317179235502 0.22764341701772406
P 1.3218607923728027 4.441955735766469 12.984354396511243 -0.05331722336590172 -1.3098269082505443 1.1501428899919288
P 7.211835558930688 1.587689881656467 3.9820621535297285 0.2001909772337262 1.0537856568164174 -0.03856114810264972
P 7.903447533966061 5.948195891188697 0.7277126257962543 -0.63778579330605 -0.86143011646671 0.24712389433983892
P 3.8048898288280335 0.996407885124786 1.3885008823915237 -0.9115823118410686 0.588664867409683 0.7642429311907354
P 5.590789629802633 2.0730217750614055 12.75821124214899 0.13981479013851406 0.11553971964123327 0.16764286809437579
P 4.139544404344075 4.576025164586249 1.0931292012457228 1.1954002191678317 -0.2991103147094591 0.7177201050388479
Ni 1.5179105639572832 6.206450436471243 7.400088225838463 0.8617589605610384 0.9464050759472089 -0.8555129796513266
Ni 6.1897303319354435 5.15439303116047 12.1566185144869 0.41197377307010985 1.674587256859645 0.16321131468558342
Ni 2.0320444271442484 0.1530301021736889 7.329712295908079 -1.5858132353480303 0.6537518297170031 -2.5445053561927082
Ni 1.0383484157976406 1.4861535868859312 5.146897973114919 0.6351069609223062 -0.05578368262852328 1.9629943262189873
Ni 6.535606454119808 4.083202888780206 0.6676371405785021 -0.19597899603490762 -0.8958795563938313 -0.1976622972746015
Ni 8.72483669622058 7.579621750984951 6.508354928035787 -0.3071846070771612 -1.0872627055279405 -0.21107265714323648
Ni 8.394567875194076 8.624759202516925 10.654723903011979 -0.09888334203147485 0.03448183582695352 -1.0508196322095578
Ni 3.450859382731356 3.045378145160421 7.7723218908889375 -0.1011497694681484 -1.1396566457486244 -0.830436239188357
Ni 1.1214533201654573 0.13889095337160284 9.509118073900737 0.5904623256297379 0.2510155160847612 0.6885098020234788
Ni 1.561955134630448 4.002482563079408 4.084848715624894 -0.07495382779907091 1.5892081199621921 0.8973258019220546
Ni 7.246968351291428 0.9292731119237699 9.121200427123503 0.056618519824992816 0.4825119882999883 0.15998997953480834
Ni 8.129131540043803 0.3642345725337385 5.593887711811979 0.27649823373689797 1.0176053502411184 0.801608259213071
Ni 2.372487450483366 6.314373661553834 4.919728982361404 0.7025403119746159 -0.3559648618046579 0.48014580206065693
Ni 8.228227148413978 5.41418118782102 7.693870187872917 1.6792095861230047 -0.9085242417410354 -0.3504372471182094
Ni 1.9931430653607314 4.029853785661224 11.058395666182648 -0.3644682712899788 -0.6537466875106805 -1.1224521089448796
Ni 3.2859681057292502 6.293118181906253 10.924801282838493 -0.7427140559800242 -1.6195445661622045 0.9892903053465092
Ni 4.456983257013131 9.312873795507338 13.241100578895791 1.8317171412378388 1.1279103038459735 -0.5017135009291037
Ni 2.364651070393321 0.6340155165024304 12.369102241167138 0.4312753016121992 -1.6563018282868958 -0.11890786478251782
Ni 4.8885545905879155 0.8893870594201074 10.169467755047052 2.292542645703329 0.8905136640962277 -1.8101566414582437
Ni 4.139909104610795 6.691735573431731 8.550689513474888 1.5789926128817708 -0.48122643671934545 -1.3832239330854565
Ni 5.908808262382886 6.410589072945807 1.0223558415375031 -3.5626488383254835 -0.4435569471930296 -1.3366226882871497
Ni 6.832107770963552 4.4502877341676985 5.874516150893383 -0.08202821814734905 0.060569791163256975 -0.06766577877808991
Ni 6.749433025884688 4.135990914565772 3.1113103426101487 -1.6884928111971436 -2.254082284844602 0.6493544719802559
Ni 7.532977522000291 5.935618407631286 9.930294514745096 -0.056375293465935165 1.2302463803127393 0.207428632632746
P 3.460089104866051 5.080760982438495 6.571641645858457 0.5096276135698579 1.519856468841247 0.4805846893702885
P 2.404637181688109 7.505606299418475 9.339117252648988 -1.1271957942774524 0.9400729630815939 0.16921149813307632
P 8.300671583446888 8.456950323381056 8.387108352046308 -0.8027030349391466 0.28478772743919983 0.7635261076293689
P 1.66195781802298 7.625106420147217 12.56167239815555 2.1820865112325905 1.8876599751520458 -1.2169779453386071
P 0.26417671653675395 5.221984147259332 5.8776235841916185 -0.6462375236178289 0.08245527838243864 -0.9635880154843987
P 6.40024654743317 7.493393516127784 5.134689865468674 -0.06255982501009226 0.11163472815987226 0.5611178110293498
P 1.1247823790103928 8.385871176526125 5.479590648221782 1.1533755379966135 1.1269865064801237 0.18311165315393627
P 8.787724114007636 0.9673814844093924 1.0410846029269332 -1.6999938698582078 -0.8626449627104175 0.24235655485818255
