# total energy = -381177.8658046153 ev
CRYSTAL
PRIMVEC
9.13125831587397 0.00000000000000 0.00000000000000
0.00000000000000 9.13125831587397 0.00000000000000
0.00000000000000 0.00000000000000 13.36451954702494
PRIMCOORD
 96 1
Ni 7.7873468970997335 5.369033642320024 6.79990725992141 0.9593472379301736 -0.4904106743217748 0.7355126531355785
Ni 7.339814808056925 0.5800695604845186 3.3406223675550297 0.8915127947847035 -1.2343418905383514 1.1529505346440532
Ni 5.540619112626759 8.01880602654123 4.354895119684308 0.8238531866542005 -0.7380446755288128 -1.433927372977595
Ni 7.053896855513447 5.537377516013546 9.35686040590793 0.7424523176782052 -0.31377125915574344 -0.02658520668769615
Ni 9.074123783674434 8.555176125302212 1.600922297175716 -2.564981878879505 0.6967265335063162 -0.3486559868480705
Ni 7.403468808030756 3.3969558379378375 10.631274482187896 -0.6434234512078015 0.01705207038628031 0.9677863698364622
Ni 4.7436337774214925 1.3569232110330218 13.351034306977086 -0.2568408645172867 0.014694111677065016 -0.16073559945158125
Ni 0.02631354636703314 3.8272937680435177 0.9888056733849063 0.6425665025241449 1.0488092866477485 0.6357466513888341
Ni 0.6585362872920243 5.761458588938206 4.831380601800853 -0.559278958048398 -0.4203342292196631 -1.3525907815806317
Ni 0.9178831919910255 1.0023655916120098 3.1242106382794903 -0.5642936376541702 -0.2726840021971304 0.1970758286435122
Ni 3.785070830749156 8.721730272414918 11.205921901633188 1.5101443837598056 0.19822099799154894 -0.02583778699871034
Ni 2.1032574577495735 0.8611579906372123 9.945073222335163 -0.38797509616266734 0.7357787623127715 -0.2674114409442814
Ni 8.659829473989642 1.4962388153366706 12.06380359687654 -0.28392666499048524 0.3018536817825511 -0.9369125630757413
Ni 8.917340082691695 6.337038309831973 2.440481209985056 0.44951522165899355 -0.9853796574381932 -0.25883835456328974
Ni 1.6992449446464115 8.25041125611177 8.12990421717121 -0.2665300667805926 0.9643410916003392 1.6690771256746932
Ni 1.1719878414346865 6.422579935388543 0.026841333083212654 -1.0603864499623867 -0.3580855076920865 0.615823944322978
Ni 6.708297000254582 7.660860710377958 6.508989030461325 2.2862084759551853 1.8502355117570004 -0.34263523457528733
Ni 2.66829970683588 2.7237629683250564 0.47384472228403507 2.0668095583344406 1.7862435822860723 0.9341949070342622
Ni 4.5549545920163474 3.769739448457367 12.560229007230474 0.6050430516573903 0.7639467401065553 1.999094414375654
Ni 0.5428523788616038 5.679122034962589 10.114388661886844 -0.17483758607060212 -1.3884368447449635 -2.2839415342978797
Ni 0.6081573102936568 8.555979676011967 12.71869194657144 0.2545484689386842 0.08239228635498713 -0.7602718623581294
Ni 1.033402737776269 1.9518703302834794 7.714561639060514 -0.016779790561500134 -0.47614902219643807 -0.032365560814899094
Ni 7.5747986031116605 7.713228475382966 13.199881852843273 1.1947813546369102 -0.6282261746420729 -0.8396868112523475
Ni 1.5755163978603828 8.864890136364096 6.000121367867487 -1.16071835151493 -0.3810727126158792 -1.8602872395660477
P 5.127429685167882 5.788432325263367 3.6380630546512234 0.27887573283013906 0.11748733028590733 -0.2811331614057481
Ni 1.78863082984851 7.719876031254571 10.453165641119249 0.2686813087956405 -1.2766612201318528 1.140795644449074
P 9.111388447839287 4.163031864591761 8.445307002007832 -0.42462514328553314 0.30417153128245034 -0.5600137793318936
Ni 9.170248537328789 8.133047196197317 4.1619781174110155 -0.06851989924826908 -0.1365425471451455 -0.3932821101978775
P 1.6507214392869312 7.770481463452959 2.1351018071268126 2.897356612069049 -1.8427392033799554 1.1420819673606655
P 5.973495532474618 4.324326407058803 6.7519690682039215 -1.0748561043334715 -1.3275922026537652 -0.009011459469990933
P 1.2632182407659938 3.015853651320738 12.449945324819925 -1.7249867923581195 0.5653128229473038 -1.988281897141182
Ni 1.9512859297672944 5.3770965431917634 2.6429001994011925 0.3513037088835627 0.4536768092358509 -0.014273222089562514
Ni 2.126569559590513 2.9742516395748235 2.7523556767052106 0.364768576139217 0.43785526882256204 -0.06760535785379969
Ni 6.050298544062609 2.3303244520616158 2.8694421463744755 0.2015865720296722 1.4644985608962326 -0.6419954605120234
Ni 4.669341861801482 5.018283757512279 8.37832374534336 0.9781047210433349 1.2990596424317111 -1.0621731095491642
Ni 5.482708673976059 5.745414968517316 0.3765064244327887 1.1004185261836081 0.6914328892075446 1.7627953785654609
Ni 5.455442737392805 8.173964363588329 0.12386277627958998 -2.15653360246415 0.17886444784180808 0.30730107805036755
Ni 6.081061752484907 0.6870760343753994 7.995377044597052 0.7736284861706934 -0.5970260948901848 -1.111047980872996
Ni 2.2569091372158834 1.933973064475316 4.860568668206871 1.00745077830562 0.26677355024996635 1.4654465266317986
Ni 0.9140571948616273 3.0216246064180643 9.986342856287498 0.26699620778373373 0.4040478333548138 1.2260480259606756
Ni 7.466310126036767 2.3510341453539194 6.735249734686192 -0.21742688149603845 1.50046777990199 0.8761265421366201
Ni 2.9469491779593087 8.080049374385798 13.313266510492829 0.2158101718282219 -1.3921407759591122 -0.29186623155253605
Ni 8.404729517416854 0.2663514927609616 7.318223948361312 0.41602068944597387 -0.06644141945268557 -0.8431135775457091
Ni 5.030684005965079 9.23243240475409 2.396285007822764 0.16397390388322083 0.26862525874672444 -1.0080917543237284
Ni 4.244190486276944 6.437591723648043 11.883704141549632 -1.428872841272823 -0.6981501533267203 -0.03228662794784762
Ni 4.359116500287937 8.52867721439645 6.169075209599778 -0.380700416878125 1.1289821967539138 0.7985527602161989
Ni 7.1041461686472855 0.7216323673980597 0.840135095193266 0.03464587220864356 1.1114375030019312 -0.10602123862783676
Ni 9.206317006687076 1.5861086572162346 5.206522816278673 -2.3817414134571884 -1.5224129167145135 -0.17666564041827637
Ni 5.0297069613520815 4.293983236507513 10.468040460507767 -0.451049656025649 -0.16055716489218802 -0.8901241419672928
Ni 3.231132191470363 5.483987050105213 0.5551996660176235 -0.956077051819334 -0.45369943494367027 -0.7631108744688213
Ni 8.696098831025369 7.322492811506882 8.200121765442443 -1.3907876043653273 -0.8713327202924026 1.5987934496577823
Ni 2.80541467794577 6.53397215252823 4.933058073484773 1.468373984691239 -0.04815881909341383 -0.4735144127870684
Ni 8.049715335092573 1.8564760772743545 9.1581569253986 0.03821019252113419 -0.49627407508108734 -0.7696836425903325
Ni 3.1369980520742615 6.792048899230336 7.271527607740715 1.3253851677001176 -0.15987427989255046 0.6044283008915269
Ni 7.2525838997582595 5.94976339276267 4.467665243666062 -0.23311858119968237 1.16732840063228 -0.26940070346016826
Ni 7.05456343735222 9.123313870872686 10.435777899511134 1.7431719479075785 1.050056271680972 -0.4790697953876588
P 3.7071811994513832 6.947618142890378 9.389163144440053 -0.05465805366451232 -0.3524069692500705 0.8852601290067721
Ni 4.079763922293473 9.0569570185115 8.7966467660866 -1.3368926541190844 0.18937486045482868 -0.574184928625953
P 3.022081169321334 0.8446596335646666 6.967297830272906 0.11886595580098885 1.8752029803356156 1.5207653538087615
Ni 0.6702489520124995 1.476049603754094 0.7842956258717957 -1.0618712620380293 0.44641087170205696 0.031736154761016315
P 2.189949621822382 4.253148250439091 4.6381567892565645 -1.1457861556851299 -0.5688979691954009 -1.9027580071357486
P 6.458575354682309 1.7277983886168846 12.051280989565663 0.6221851106543156 0.3650413701846294 0.4185408847646662
P 6.61365151040682 0.7453343739583914 5.668306972909941 -0.45693002606582594 -1.080493505124907 -0.4656928598601206
Ni 9.113607343549178 3.8665490464666274 3.732483002424771 -0.12943241846292547 -0.5473966047885154 -1.4416437677852463
Ni 3.1555984247534603 4.445607776683307 6.388922118159516 0.3867723341038178 0.46212056912782995 1.8606433373538858
Ni 5.376649111546558 1.375140070873474 10.208808609660391 -1.8855884373349976 0.7438036894997772 1.4189884922795757
Ni 2.2693276481848135 1.0585867475206134 12.301318576666999 0.016103076209449688 -0.7468234501627073 -0.29791732284262235
Ni 3.1504118701723187 2.5497577146309927 8.705674781358544 0.9626655036701292 -0.010463875645801334 -1.0758459790505666
Ni 0.5329120913316207 3.5804576000199066 6.0571479007374585 0.21914952061409998 1.3659265794575894 1.230460038985442
Ni 4.485219174170967 2.509452341530363 6.39335899645349 0.9114864096931528 -0.9901716795101978 1.9773374823145364
Ni 5.543915496788365 2.8536185892729615 8.61631902930806 1.298695317113757 1.247575101399174 -1.1276503653163676
Ni 5.998359948186674 7.463022873133227 11.311381540407792 1.3628348279061433 0.4594160257124733 -0.9830939467278101
Ni 9.125386666453531 4.710925611031267 12.096119119169952 -0.45886503830500974 -0.44914035481807807 -0.8181453376361458
Ni 6.9307983655339305 4.828536214913485 2.335195978239501 -0.02709094267952109 0.12313964347567825 0.16792003301516242
Ni 6.786478831810448 3.407812903777586 0.38573447383367143 -0.29766021252649383 -0.5901679343177707 -0.7569196580564448
Ni 4.481338389493176 1.248809115538809 4.471126903598651 1.6262209497411153 -1.051561909692221 -0.39587455351540213
Ni 4.247139882632065 3.534865228499416 4.408165966111984 0.8833084045970401 2.0251126928162866 -1.818997122568009
Ni 3.8678456851119125 7.074149985902482 2.1511527325541544 0.5706879712162881 0.14997990359697397 0.7355854153550428
Ni 2.5195971692410106 4.830590747978197 9.013098672897627 -0.4033117265197376 -0.0036998174490904027 0.7867655377732836
Ni 2.3792953890663004 5.302174570765242 11.532403641880547 -0.6166184151998155 -1.2849643406809095 -0.10861548171757422
Ni 8.5466840553014 7.397843953062476 10.851361542834756 -0.7941186357042452 0.43578527366741077 0.6747487436836445
Ni 2.7316523752935526 0.5327431630574109 1.524330217649035 0.03271600217578236 -0.21576157797847356 0.6171827723437178
Ni 5.8269844968154425 7.465707463004451 8.619125978037362 -0.2369317842981855 -0.6490138008113855 0.8844003521096383
Ni 7.030630409962834 3.5833156837943734 4.761911816690983 -0.8425103967440716 -0.03536758086601651 0.1715609722018594
Ni 5.078477010679328 6.300120633473603 6.068734554096631 -0.5294245936911269 -3.1238065229993044 -1.0220860117202915
Ni 6.526630621043656 5.305215279701017 11.800162261509385 1.4883892514709012 -0.28658904231399673 -0.4054686249617404
Ni 4.570304236824267 4.098656495230765 1.9104984262408125 0.05717130700466928 0.9907092971812228 0.20177889054613635
Ni 6.923639459210665 7.46955172264998 2.11776885306709 -1.3289086074723435 0.02140134849391153 0.5472891326763736
P 4.046416567838671 2.0984544160071783 2.116458517534707 0.5765284891574652 -0.8134193929153862 0.959715934123502
Ni 2.922888312957007 8.716826786833805 4.0000672150245595 -0.45571260871895714 -0.34742442843381455 -1.2250494094928324
P 0.16416267062538034 0.052480992605020045 9.632463689340744 -0.9656564679776529 -0.5602063549586739 -0.3889950527867494
Ni 1.1564281776912628 5.749816234904835 7.314508439454505 -1.011108429662865 -0.571665504638209 -0.210597774389347
P 8.986755906504786 7.124198411358881 6.038918257135715 -1.4287525136448749 2.46011480846077 1.7773982160803001
P 8.325616297538318 2.322782032899604 2.323314385244816 -0.4009344845368127 -0.4217658194598672 -0.06350213431870354
P 7.827314413651943 5.600848890826069 0.16387960162535326 0.11740711186727522 -0.34727247623698254 2.0451629265989424
Ni 3.2153533775333694 2.8767024096622666 11.054595953596133 -0.8747000941027387 -0.4464679501922375 -0.4973868485292918
