# total energy = -340860.498029746 ev
CRYSTAL
PRIMVEC
9.31786815773066 0.00000000000000 0.00000000000000

0.00000000000000 9.31786815773066 0.00000000000000

0.00000000000000 0.00000000000000 13.63764191338941

PRIMCOORD
 96 1
Ni 8.677786538118832 7.868660137318145 9.553808709904695 0.7600126951594717 -1.7823493894379885 -2.8375182997551778
Ni 5.023095011244614 7.6386299256943175 11.396500070438385 -0.9493438468605585 -0.6202107605367642 1.0468436782809454
Ni 1.938340209131727 2.6983893982573366 2.5889836490864706 1.0353912134696297 2.306682427538821 0.6545308739748726
Ni 9.03789418945865 6.853059095638757 5.020561482887968 -0.306498122533098 1.266515904167735 -0.4597176161132922
Ni 3.71524835214028 8.419867947048735 5.450255905541751 -3.185432780451533 -0.6679528038077335 3.110119512430515
Ni 0.1488324447776182 3.9558729798785106 8.035585086730185 -0.13800524773360104 1.0976273365917162 0.18388761208801235
Ni 7.206811960883567 6.85134460789465 12.244352463159105 -0.3273790797471652 -0.3660615839190276 -0.4553673095643964
Ni 7.993361167097447 1.7808589191145399 10.997094310072624 -1.6920882418578858 1.3372500374585035 -2.2822307222543596
Ni 0.8947669271924987 0.148251941590347 11.614416121648548 1.962774239788381 0.5015126977722072 1.395605594579261
Ni 3.71756850131573 6.622553672738031 9.870884582441045 -1.72430005070374 -0.5042635210444669 0.08170220226649799
Ni 5.7155337488960685 0.3334883655389106 1.673120136560092 -0.6378696112691079 -0.8626683597491852 -0.5214086653651859
Ni 1.2650217369743426 6.15864496993431 9.12002281133549 0.8054646568446838 -0.36614540188208555 0.34629957080075197
Ni 4.510192957579384 6.321400173338263 4.792731219940141 -1.6931549925595035 -1.0569208600112896 0.33945889372983473
Ni 6.332656158093057 3.52349594297729 7.166267121095873 -0.15415151847616032 0.9968076967694769 -0.04423557277960769
Ni 2.94351455632385 0.702538374965792 7.366850073927835 2.266987165831728 -2.4160322163192585 0.8941726010050536
Ni 3.5748280787505986 4.488855039459784 6.14097549651501 0.6852211039698779 -0.22739067757696968 0.7386352579249602
Ni 7.400381354340583 9.131221957094418 5.35848888082521 -0.022429789758425887 0.7041107417855293 1.5747281811784621
Ni 5.453450070751969 5.207933562222127 11.495318857789385 0.1553815342285195 0.3353962936246869 0.7151040075722395
Ni 5.45046835293613 6.22321779638358 0.3882299092772676 2.0368214966127822 1.2660209668091873 -1.4032566833666156
Ni 1.0427067201990001 8.38130129067449 7.59960296663225 0.22187591840632753 -0.26412042889783544 0.4416183354094201
Ni 6.0347080053453155 1.8552061892788578 13.235153998692065 -0.20595821873480658 0.09138780498537809 -0.3368731352805295
Ni 0.7210762736989552 6.699556535332081 0.7288716022137401 -1.6443976206501423 -2.1878082442077162 -0.7586332983134418
Ni 8.081592060841768 4.944293800092887 0.9961229700474158 -0.9682016029970099 2.7212447872717136 -1.8129568299112004
Ni 0.19471921838974998 0.9888587600185773 5.340841770289528 1.3127471672211326 -1.7494433827385871 -1.8995284444548575
P 5.935826788277544 8.792852892205707 12.974893827349716 0.1541432909460442 0.36628886943848527 1.2420762830681318
P 4.689990541874494 7.311162766569766 2.915891736120551 -0.6509899507011498 1.307803192952296 -1.5336761483331585
P 1.6906060479763543 9.043046970559146 9.854259642044106 1.1944455685640463 -0.9611868622420736 -3.189405906166668
P 8.559710512611597 0.21492781088660076 7.168449365822341 0.1757798953792134 -0.34251233584417784 -0.04264405992277172
P 8.705851957060421 2.9511645260951123 4.006616226383191 -0.06801107793265061 -0.32726980786281057 -0.34323892959755725
P 5.081909395162045 0.8797241608115894 9.083174369852621 -1.0551655678830796 1.127778920474432 0.348497092672703
P 6.012056267813111 4.059757892155987 0.21187434548581785 0.2363283463862317 0.0013649986683266816 0.31771841672894957
P 8.732827185425592 0.1885181771196217 1.211896843364261 0.9015041016694603 0.05887466284902118 0.11954395570461991
Ni 6.501663651042097 7.264405704070137 4.193793562272503 2.4910554639036837 -1.08681841890167 -1.488944866864055
Ni 5.108260326359524 9.114328662094055 4.115636215811632 2.4808592400969727 2.2007779169945065 -1.9351037704563059
Ni 6.119127891006265 1.1424917704796969 7.15223441162508 -0.7616785128976689 -0.19080696491566493 -0.6205115796066345
Ni 0.22520728305670676 7.064034266845737 11.513920118026137 1.9593747271885287 3.9818597525739805 -1.5892307456700117
Ni 4.004540205353912 2.879016272819976 7.980870564809534 0.6978107677094305 -0.5242469061449294 0.5745304848908299
Ni 4.190524854116888 1.865614248029772 2.883133838766287 1.195560913115412 -0.8194427162913306 2.7221120203680154
Ni 7.311908196023727 0.258070472321343 8.89517892513759 -0.27029596158092806 0.4115305148851042 0.9686636302350929
Ni 5.128890086497862 8.1552032194203 8.50057373045533 0.4355759858700821 -0.352989838336734 0.9221608586878633
Ni 6.019203072702951 0.3684769605341498 11.054959203223074 -1.6536651619949971 1.8534643031069433 -0.742889919436256
Ni 6.666683096412453 4.008332577700933 9.978744497281763 1.1482166195034935 -0.3705489302664199 -1.513660367332864
Ni 8.430406455954092 2.3821875417557545 6.555723126830081 -1.3957326070754283 0.8484594152386549 1.1834150217814976
Ni 2.6357174169156643 5.027446455682105 3.8598346443907796 0.875906198595698 -0.5534014162216986 0.8285624192044118
Ni 3.957727235645236 3.2087663096472783 1.169671991944707 0.2901430782138422 1.493703464594963 -0.36065275419863047
Ni 0.4475642302388346 1.1495360788196172 2.823714725204332 -0.30034393000624404 -0.9111182277204567 0.7087826933399018
Ni 6.902769922349703 5.035757994093756 3.028688257520117 -0.2567148804623837 -1.1964042349523136 1.1577770094984188
Ni 0.24097218422113956 1.396804346566265 9.40172246556054 1.324280621782029 -0.9420059184382488 -1.2635591355322562
Ni 6.802863739782738 1.8859085649138279 4.047829157318994 0.5361680830625476 -0.11245388162705794 1.32219520000791
Ni 1.3531687699050916 4.412196937988191 13.254683318598994 -1.50277097411387 -2.8542739219469615 4.443946640250399
Ni 4.985227194983455 2.8139309636211096 10.69337094263033 -0.2964975596769603 -1.5539948052858528 0.72914557326697
Ni 8.19293126765884 4.642301692557414 5.642587886105194 0.6192378551005336 0.15313181896239433 -0.019014079208657577
Ni 1.4923777204320885 5.631495895830273 5.880305338972983 -0.5941932534270798 -0.5770671352697545 1.1274889000378387
Ni 8.689405919732431 1.0369669134035093 12.94127682254976 -0.8742133842743074 1.3673869660531996 2.6819979259559488
Ni 2.9332369477273788 9.262697077036583 2.799821847631285 -0.6067168398153873 -2.1886502804930372 0.6782117625315804
Ni 0.385978712326309 4.751302114462688 3.0534001757057023 -1.0273958539689791 0.1872462441476001 0.19995057908814598
P 7.117537465903703 6.121606443940681 9.938704685949128 -0.4437099278311261 0.6021569883588468 0.9914289489560669
P 3.2137140976479364 1.12035251569709 1.1199481202183168 0.7765975961013464 -0.1904243847652656 -2.0172651717474097
P 9.165763294417282 6.252401359506107 7.560422262745305 0.5228058028230287 0.22444805000887796 -1.6577326471961513
P 2.691028282399483 7.293729035215281 12.279237629817606 0.9159107640130936 1.5541012489567299 0.8408731182509648
P 2.553682905507386 4.461432553422237 8.168947074977684 -0.669615279111821 0.23813068970229312 -0.20324904733375962
P 6.147025588320712 5.26271330922 5.571590389549608 0.4688355192541603 -0.6762101587205194 0.3451091500370766
P 5.103620028008624 1.6641153487562572 5.33951863300875 -1.5984772039689439 0.9447629123580955 -0.3528288872788375
P 9.000576127419786 5.603365251811464 12.560636316900622 -2.130193164797409 -3.6786364441374126 3.120541736205103
Ni 3.124542099217993 1.5870658968213351 10.000728143665855 -0.4783532289366084 -1.6501800316598743 -0.16810849487688465
Ni 7.2688037378485 7.926887495540581 0.7931620972573225 1.0667607289198469 -0.3619861282980733 1.0980734229901992
Ni 7.804320257573236 9.274595994695417 3.2120601760469634 -0.45559690907669925 -1.4771435033537528 -1.7948526641113216
Ni 8.878707729565528 4.709567382909113 10.39358810163903 0.2906853238705574 0.5291489714322372 0.5413827944942675
Ni 5.895564279895539 7.780252204078509 6.315073340847778 -0.8355308801024449 -0.3713135763465863 0.8038924272615575
Ni 8.674469377048712 2.9707227313933835 1.4517406337494687 0.5938672375462287 -2.52176754827556 0.8880749727477479
Ni 4.594007181808991 5.325152343857309 2.180126775031318 -0.20722140171794634 -1.589475514690966 1.6164301889029384
Ni 3.079629974616914 6.876316494602305 1.299647866897594 0.5107866668749654 1.054062564626888 0.23296637189253425
Ni 2.459544483340435 1.3774045450269605 4.988608649343981 2.026255291061162 -0.4409567905660213 -0.8831176287424727
Ni 3.328556822898622 2.926127414310237 12.708550019876235 -0.8469805167002833 -1.2990704410649887 -2.307661760732955
Ni 3.595578971175205 5.126597890926935 13.327645021765765 -0.10640973231550704 0.7847541637702097 -0.6779201994330906
Ni 7.0728582880069855 6.371157589390081 7.798508703192803 -0.02755348413823642 -0.2599979220890296 -0.34754244206891755
Ni 1.8755936848446588 5.501465045455156 11.56997082224301 1.1758508362809943 0.5244196842773678 -3.6226211051140575
Ni 1.3379620090443112 1.7605180128896112 0.4685909315614063 -0.6690339526870542 0.5479697036831659 -1.3590257385726983
Ni 1.6369723987639453 2.3106263141756114 7.142715277498013 -1.3990508728153839 2.0767396729639587 -0.20155083369573032
Ni 4.949362720379813 5.416868120298891 8.38326270192522 0.6455068160993914 -1.7247682485894105 0.3506856156835896
Ni 1.2234547270479081 7.181243730612745 2.9110091731971144 -0.3339531334202572 0.3887811370037304 1.2604167332485325
Ni 1.5469897458028201 3.2847628424784823 9.98092674200823 1.0850155613649766 1.266928052004489 -0.5924955540096829
Ni 3.3210279854136275 0.495990122928517 12.46753217810104 0.6825186174370503 -0.4064232755655259 0.36295106331450394
Ni 4.974930950650635 3.8184903315137153 4.10996256588018 0.23840168397549266 -0.41815727617300247 0.7490937342541227
Ni 7.88997010183322 3.4181760790009412 12.398484911354377 -0.532378019892496 2.2530625853308357 1.8780286227098686
Ni 6.260675626445061 2.606990429333688 2.076412379741435 0.09979402677120232 1.7980012370426324 -2.0830090509124384
Ni 8.091590133393003 8.927197915545616 11.33136630832501 -1.361630523185397 -1.3282666030129706 0.8377075760387896
Ni 1.7622045470291956 8.590347663169347 0.4571597708849324 0.15812130175718572 2.111744728284234 -0.7201428555477274
P 3.574557860573538 4.384150154782952 10.842811844199742 -0.07955353135461138 -0.19353027738409898 0.21832316805806268
P 1.7625958974925242 8.571320576357023 4.565337033222879 -1.6268385287204563 -0.17764085984735212 0.3521089783936775
P 7.808019451238512 2.5276860533005374 8.836277885046137 -0.5036441422929133 1.1685573879433746 -1.0616519469383716
P 3.8754411417962458 6.82370781088909 7.293397319108269 -0.8393129728526965 1.3437487578089695 -1.4567819089782654
P 2.2882820662931658 4.923114285732254 1.8167252572918169 -0.07389041953156307 -0.49316021204245397 -1.8339491158921513
P 8.26065353355109 6.6477771418863965 2.800162881606471 0.9624163637738007 0.7328914134626475 -0.28165175291337946
P 1.7861421503694803 3.3900733885866563 5.16933429330927 0.3468191907496479 1.3304453558318443 -0.07870943818676121
P 0.6743052343970637 2.883703160511749 11.844823706933441 -0.34349295458989226 -1.2634146395345918 0.8685551575472654
