# total energy = -340859.6161157338 ev
CRYSTAL
PRIMVEC
9.29366423126464 0.00000000000000 0.00000000000000

0.00000000000000 9.29366423126464 0.00000000000000

0.00000000000000 0.00000000000000 13.60221702043590

PRIMCOORD
 96 1
Ni 6.125147342547928 1.7506846883626757 11.193210091860635 1.7740429264548223 -1.056705915787006 0.13855289270695492
Ni 5.295576294247053 8.630189455341311 11.729287226678263 0.780989554521455 1.6146720685612515 2.2353726242502407
Ni 3.1754126944074934 0.7353825503598157 4.451285011317738 -0.13899178001658644 0.2298568797292751 -1.1697444662729402
Ni 3.5131537428525443 3.865643836284862 1.0695492555773283 1.8658469930420125 0.8508785662031088 1.4229248512195043
Ni 8.230004277551929 2.588527097746518 6.955983258538008 -0.37211704608448815 -0.48489205849639067 -2.267762610545172
Ni 7.694772866170875 2.626482422086783 9.152673676990458 0.1943455741965427 1.5138467723120572 2.1192209820566212
Ni 5.992062072089406 7.678165088355975 7.350692609417182 -1.5312490269489047 0.029355827454297826 0.581465007227134
Ni 8.642475679331964 3.5090738242958897 0.7342570876326839 -0.8787660366419962 -2.5883712043377227 -1.0091484777230169
Ni 0.3456322986647665 8.84415748479428 11.969910414245904 0.24126306468368774 -0.02252234947223218 0.2510705376924128
Ni 3.2130706214953375 1.4801275379724188 0.9529314286052213 -2.0474352675728866 0.19525265939184439 1.5400997924713153
Ni 4.323821478296392 2.3084625289429184 6.762654598403074 1.504782348116944 1.1631429017960224 0.16137528991810915
Ni 2.29989377060753 5.545436454601616 11.9012460354939 0.8800091650204779 1.9220178838066255 1.1939110362168146
Ni 2.0009258889469037 3.3225592787070584 13.155207609832008 -0.8214898286283464 -0.8347042704360915 -2.014113256381989
Ni 7.263602612144852 4.2728643178268335 2.9299177680986257 0.4963072423118678 -0.08848528662660245 0.24751984422667694
Ni 5.713447314891361 3.818868824677479 5.139298684931741 1.763646927932479 -1.0880384073517004 -1.941679623901611
Ni 4.767844869825496 5.075418684478064 6.694058992765693 2.4580630681380637 1.5855682092167596 1.3521716917653424
Ni 8.871982715223947 6.704607301562509 3.644469499659159 -1.5010923008598667 -1.6240851343450353 1.4900519838853048
Ni 8.085376276233808 1.4867539205029305 4.501966149962392 -3.107300554924481 -0.15405767321077338 1.2712755303399075
Ni 8.146891039164322 0.5188466815054702 8.429579209354126 0.5152398175503127 -1.4363712065323972 -0.09137494946957166
Ni 4.029704889315887 0.006982329867003292 6.359757529418176 1.4296200038514928 -1.1628585377863843 1.0570815539588698
Ni 0.0692526676919496 4.871301939011548 12.307475812438744 -0.624231451660383 -0.4410166972696791 -0.3303584740904633
Ni 2.7148372870483173 4.944443075778906 7.39296855821528 0.5703799530575661 0.8250770317589727 -1.839305237997742
Ni 7.2141324379374 1.3822838419258188 1.4068637248384372 -0.02146691162452432 1.7165751712556563 -0.4128222371133342
Ni 2.9162960445713177 7.584587184148792 7.764539473489665 0.5108632857491717 0.08504437926585354 3.0233311538903607
P 5.183429649091816 1.1012155573952975 0.9461907340058103 1.653636622749907 0.2668709950597791 -1.1274984131195358
P 0.8733274777961836 1.9028312639685732 9.105133796824504 0.603051218038342 2.7061626961276106 -0.8292476181968944
P 6.225602558217353 3.2768065701548723 7.819833057646091 -1.6030139154970326 -0.15021438820528324 -1.2548544086694067
P 8.682020220239856 4.940446800199496 9.59841825511795 0.5936561499766873 -0.38348080783673955 1.3296621978089165
P 4.567603582304596 6.049803607379825 8.626281469571213 0.6724617474216806 -0.03443607019068263 -1.408098070619317
P 3.530505013798498 3.6344267661914578 11.357606646167048 2.234600779081222 -0.5030620445371982 1.318538319981613
P 4.951283212584595 5.663661156103212 4.083072826262885 -0.5151647413380032 -0.1448289555236538 0.8762592110597426
P 2.1524312017272678 8.072374440104516 3.6551739420134974 0.28885084176498 -1.176808572208573 1.518926757938126
Ni 6.244673157028867 6.559170751464367 2.2810778181934017 0.7079699676306194 -0.3439920057134979 2.572281497864712
Ni 4.47789184237889 7.399159997264126 10.170459082051035 -1.7133705482754298 -0.932417246308549 -1.1942594206951689
Ni 2.7986568439104262 5.814199927813207 3.5049920470064078 0.07273368021930054 0.759213339186628 -0.6186341600782636
Ni 1.518631188496836 0.5041617628007559 2.5876181773938054 3.9799293683204873 1.7579151676550242 0.674293915534413
Ni 1.1200724019316342 7.086019277792798 1.9763608758969062 0.28023996016751734 1.235060256761615 3.6602947084054316
Ni 2.143574339803597 1.644913496806221 6.739626757401529 -1.52182207720805 0.8619602779385671 -0.5805849186150259
Ni 6.9459637592306525 5.429144835240758 8.560486974305073 -1.923371312510726 -1.1607867428590202 -3.106965283072249
Ni 5.587257943223358 3.4922522922058112 12.899675526253922 -0.04620452358052043 -0.382414057135122 0.537064883845204
Ni 5.606272780050044 2.551556901804898 2.785407796315058 -1.5614656597416012 -0.24674799905765893 0.24457207445226264
Ni 6.89361254914037 6.462721105038492 10.392529327899657 0.011972598980843897 2.2251712582372063 3.0728092060158305
Ni 7.641845448904026 8.913200115676709 10.936590649578383 -1.1442815461151454 -0.3723834123719974 -1.0070468579989817
Ni 3.2211375219672647 0.7283899974622604 8.539730504818897 1.3098950424843183 -1.8395032129411608 0.9523193845491148
Ni 6.226123003409089 0.918540224461942 7.26385539980941 -0.6626792141136201 -0.030523622510153878 -0.6230212334023657
Ni 4.661525352084891 8.651676406828749 1.9436889996191875 -0.48352603138679956 -0.9857154435110572 0.3111291935472061
Ni 8.747875124322894 4.827333613973891 7.015098397388048 -0.996574240602432 0.7329898867137247 -1.0977772319060188
Ni 0.39020285313857783 9.196164307691415 0.8635189446647644 -1.8136854805471088 0.016938684736867604 -1.7710064536213435
Ni 9.053989833705769 1.745080608887362 10.988047809178575 -0.01631776332341706 -0.12168285642449365 -0.19679043619260947
Ni 2.627151565904731 8.277290440686913 0.7535683923453769 0.6299477853188699 0.374638012734129 -1.1106797989003
Ni 6.673826685936908 9.073302067784875 3.1854758739362983 0.25974004044195265 0.750733840960707 -0.39692896292184543
Ni 2.9726528239051495 4.9896102834903875 9.665259216966048 1.4440747458242418 3.281150837381149 0.3765948793501837
Ni 1.5674229252222018 3.640727870477134 10.800867837237451 -3.8514269178709992 0.5216233524791533 -0.7642796979659418
Ni 3.4871779515863732 4.0047049327842235 5.2134983700444355 -3.0059206717233975 -0.23387371419815206 -1.555351062203431
Ni 7.339215863572962 5.2836432294936495 13.59828583571826 -2.255457567925574 -0.33157023501037736 -1.3211585312132796
Ni 8.7855237577466 5.514795243938086 1.6012258404255353 0.9745681686449861 0.6025886765796267 1.3575105874797524
P 7.991919189660422 7.070498858682062 7.193519090878952 0.9308159632597003 -0.3569254259457143 -1.4766927889695793
P 0.14739007829998485 0.8176705113719555 6.662678935803179 -0.6258628166162189 -1.2650359771880988 -1.1916507794277285
P 5.3795631370636485 0.9246080577777498 4.707237168514869 0.8530519197053437 -0.031749524497455 0.5643903111330344
P 5.425826997143433 0.03013098850234443 9.717749832018402 0.5656280401948774 1.15301249823024 -1.344712921494452
P 7.812737345076602 7.7405348683872 1.6529274233925602 1.7839892390342567 0.8140914792817464 -0.09209305858251882
P 1.2458900270341107 3.8377442565420914 6.084911353028158 0.4713433732776785 0.16077673710216184 -0.29461474083195066
P 8.936118291441424 1.6101830739218983 2.4896276414538225 1.3128836927989969 1.4390842345881862 -0.0627886531914467
P 2.8736288325130026 2.3248007904978123 3.081282746550504 0.4759096524921223 1.1110700923601833 -0.2843804646984522
Ni 9.00450107217004 8.827159373085578 3.334964461598681 -0.8673377402003966 0.3358074130201765 1.0141006795219698
Ni 3.1017232314559835 2.947866621648664 8.744225502415835 -0.778336176059008 -1.0823799235143423 -0.3046063048270238
Ni 0.46826684379992156 4.514546053739812 3.9464652570959995 -0.18574214879824785 0.19711748051472502 0.027537800408952574
Ni 0.48799543403241796 6.922822535526622 13.479769313162727 1.256722829336713 0.15702369781763278 -1.0887647439947636
Ni 7.17103771732873 4.1983755997594425 11.087887784282053 0.3195079045292045 -0.6972124720037992 0.08642788987694147
Ni 3.296128097898117 7.036976612135701 5.676939943423823 1.0792804586534122 -2.4126108493425353 -1.752024770312518
Ni 1.3905087346880947 3.157661795903598 1.7330992170804398 -1.089727365018349 -0.003133146312342991 1.9660477683333304
Ni 7.416176696301106 8.33640743826978 5.397835410125696 1.1105599854929842 2.4159481412458845 0.39138669294737755
Ni 6.117833228871192 7.433751015186375 0.016759264540352772 -1.1323991928552626 -1.9145002352733413 0.3297370384563805
Ni 5.0904744203818915 3.194678460165909 9.78850900266715 0.6582327483064923 1.1660901573498046 0.25187529298189526
Ni 0.9821265451288524 6.530118757368464 6.921420121608173 -0.3697986823639567 0.9057371659142014 -0.1790940473541109
Ni 1.7982961297424942 8.603999909799962 5.852584619436656 -2.434736220486665 1.5172935932100773 -0.07393284273372427
Ni 5.04905255931809 5.651272701807038 11.994339739799484 -0.02992095592914847 -0.3972413519559417 -0.5065554024024372
Ni 8.814668688483884 7.49876019583284 9.047759361267543 0.36805110354523063 -1.3495332257012307 1.2671136856527339
Ni 5.154024495758663 7.854828349958351 4.319683009655668 -0.7540122546016627 -0.30211516297405383 0.6911323272479903
Ni 0.9604351330303756 9.249138193278956 9.411033822565788 1.2054187797460982 -2.437364402138131 1.1627112135752427
Ni 0.8032634732249723 2.201009184177456 4.3719022497151885 3.12189079403383 0.5741856999569015 0.36753482603044446
Ni 7.478620825645436 9.070560436864117 13.473893858694579 1.3287965073745114 0.5249346762405733 -2.054168729641978
Ni 4.357297256522062 6.154338741605905 1.2664550470390419 -2.931929464947912 0.669801426980698 -0.6195528152377912
Ni 2.283518334396084 1.6055641228452304 10.908406683712986 0.5966283452311337 -1.813328354318006 0.016652520955016483
Ni 4.160327338777795 1.5374136837200671 12.430235822039764 0.024434478893280497 0.21561373954669966 0.05738342301547537
Ni 6.900610678236408 6.256383173842955 5.335537191308334 -0.5555374887280948 -3.027352616344928 -0.32933774613543276
Ni 1.088836396763262 4.113803256102142 8.500773323484536 -2.6224437205413995 -1.4535196932872256 0.5077975023396545
Ni 2.648824390674932 8.630310272975107 11.650176769434962 1.1714812464583888 -1.659009457026046 -0.4648461955891091
P 7.849363675445111 4.05587584752896 5.032453145800915 0.7298287153769237 -0.3458650543664947 0.6243312104630409
P 7.953666468067735 1.8429335985981004 12.741278032148694 -1.3626579360086468 0.6355895569856795 1.1138841647702105
P 8.19015304572748 6.800146168902845 12.21314512143637 -2.07044304132197 0.9941982841710877 -1.42268008219855
P 2.096381113309995 5.699859977921364 0.8878469692792387 1.2074319535213849 -2.5377950340520683 -1.0071291333001429
P 1.5914842216759109 6.85213492609174 10.122947082877497 0.3571791938277332 1.0394635837667905 -0.2551195109508058
P 5.662871194651468 4.510075801289355 1.3939278737245255 0.8087741808338911 -1.5604410751318287 -0.5669115348929914
P 4.0191286995266555 7.24983869555623 12.965592697886683 -0.5502237898246654 0.7016401687578497 -0.8406548315925715
P 1.8329707906419874 0.8361202934190404 13.009269201870405 0.07896217762751562 0.4508768778932106 -0.07492271745081935
