# total energy = -340894.8162032526 ev
CRYSTAL
PRIMVEC
9.01737010680197 0.00000000000000 0.00000000000000

0.00000000000000 9.01737010680197 0.00000000000000

0.00000000000000 0.00000000000000 13.19783264104682

PRIMCOORD
 96 1
Ni 6.422107887943107 1.847253358829117 11.402848674586924 -1.2531258560140741 -0.4452448764184138 -0.22769946706664013
Ni 4.620978377350114 0.4013640464075559 6.049160280039265 -1.1405724726946744 -0.6521276638500189 -0.5052639372845233
Ni 2.8046095112304235 1.7803354550636687 4.699497127793132 0.36614488766145326 -0.4760847446174058 -0.00091865515952745
Ni 3.4885680185347594 4.3969237816271525 4.839895777307654 -1.3823947523159417 0.7553361156194088 -0.8385352141464075
Ni 4.944133870847265 4.645794179959265 2.5347493804370758 0.7445081717659695 -0.5264040616972483 -0.63964135845755
Ni 7.399699018925423 6.153994421744741 2.4683247268179644 -0.6872499614744486 0.16686639493966746 0.3292487859660523
Ni 5.092352383742114 4.245882831880318 11.621641634836614 0.6408387211997609 0.37098293248004494 -0.7495822438547671
Ni 5.850289395626929 7.96173366464606 12.355414799972976 -1.020147914157314 0.6116806115785659 -0.6598869960804635
Ni 1.703985382137911 6.4271846673286275 0.44102424373152765 -0.3512725985353111 0.24315205417628447 0.4115024898606461
Ni 2.708745849334388 1.5243774038061233 0.4138044102446146 -0.8080768976565503 -0.20005676564870706 -0.4480152400746994
Ni 0.4266685904779778 -0.2488974504425144 4.785837545090502 0.8896294617190614 1.5715898926597964 -0.695000809064461
Ni 8.525391436990843 2.2125109534825653 1.5639825951722766 0.18033177641595396 1.1114310752440277 -0.1168206432361859
Ni 6.835788760216884 0.688786407274154 4.884623736647012 0.48440920532270115 0.8453774338792215 -0.7586345838650225
Ni 0.6819079573358324 7.734811545220444 2.496079290353832 -0.045650450849263315 -1.7109706805846856 0.9216468951659225
Ni 7.723016825084989 4.038762857269272 3.8065457381008883 -0.6006770613792107 -0.6471461514750274 -0.547847833393321
Ni 7.508421450632741 3.6927212783716743 12.509539690305685 0.28524744068443775 1.3139746118703308 0.7468087948746881
Ni 7.834056720916782 8.813081613750425 6.946758320561631 0.157665959387322 0.5874585058064077 0.41521901948028483
Ni 6.92289655571267 0.7648235774562571 0.42720422226394567 -0.6920527821797308 0.17896729196825953 -0.7435766610906356
Ni 1.9020879866148184 6.312222215488486 9.294335952598402 -0.37864687678320597 -0.11422588592581617 -0.5829433915448735
Ni 9.179863143956542 4.706102351416389 1.5566839357857043 -1.3116089398516313 -0.09807601563883109 -0.14058123599089334
Ni 6.2613642479319385 1.9203030742857798 6.965763329856342 0.8807534993856703 1.122166716493977 -0.3522357337795288
Ni 3.285163200418978 4.23309620103011 0.37911458733858056 0.6681929448429975 0.202364073625645 -0.02971603900719398
Ni 6.104876806624085 5.765219525781458 4.6619100238629985 -1.750000797903954 -0.4385795485830962 0.1447587644073507
Ni 5.649256145856426 2.837838520174727 9.147220264070958 -0.31475830565936114 0.10453128434587158 0.20017220818064882
P 0.07228323899526105 5.51535721673459 12.62854372743995 -0.3527844071941473 -0.4782822664893569 -0.641190962332857
P 4.056572163284197 5.989932389524211 12.380741887468734 0.11231555627698075 -0.298890228278853 1.2439876411582318
P 2.180003334148993 8.439419830131959 1.300211894430513 2.0600776389272455 0.9315888368699827 -0.5612913604927366
P 6.1404593491733985 7.786039224952489 5.756881163618419 0.22353042329061504 -0.5023778739859799 1.0330252843406145
P 4.554700706864189 0.9205382301436157 12.483315374481581 1.5411122928962295 -0.9657608547660012 0.7487214385163686
P 3.8877219075224376 5.983953873125277 8.196988735812635 0.0630817589518333 0.06759430211020616 0.1309902498683486
P 4.810424306498247 1.129236244528137 3.8758343084746016 -0.5906559296977828 -0.09271372288565323 0.017669392255305054
P 0.30502336563142457 5.836492819321696 3.6234516444752427 -0.22110253057541274 -1.1637622805475765 -0.6761024294980614
Ni 1.5060090208428814 1.0990821587995747 2.6826973722279 -0.05792978243724862 0.38638666862962484 -0.1735512631590108
Ni 2.0680256318232506 6.4526948074381085 4.741876062212547 -0.2849378798638189 0.7981046169351868 -0.5741831288537401
Ni 5.869036508135804 5.49315645146434 9.195141274174814 -0.23135608998262092 0.24869663814359755 -0.6827060508575081
Ni 8.522208305333493 2.469515019675671 10.222750855554189 0.5649582678213626 -0.6113260564526246 -0.8925687468530434
Ni 2.3192044769097024 5.290391866628083 6.791380015780275 -0.5385831202619433 -0.6098481863555174 1.2259133001550242
Ni 0.6340284271345926 -0.0018972546762229196 9.088001390926038 0.18656695869238837 -0.08652944845181226 0.24675057016082017
Ni 1.4741326174186988 1.293226137787595 11.214119626364454 -0.7617834139066493 -0.8507281566681736 1.1141194207094685
Ni 3.8343300589581983 6.839377673530271 1.3771147321454935 1.19040610838735 0.05604670648192283 0.5130767484607228
Ni 5.520632378263063 8.02161801970688 7.978393255968882 -0.12525746114962943 -0.6045843668534168 0.05479432213206047
Ni 5.24786594907548 3.124221178264859 4.6509421965688444 1.6408222445940581 -1.0159513595774634 0.10985243944846887
Ni 0.6444849695421406 7.301409684463304 6.790799297143636 0.4260814161160855 0.49596117182635874 0.28352608711795685
Ni 4.831299518358779 4.507584947913311 6.8183834323839685 1.1434976167612694 -0.008443759891979007 0.6203115477806865
Ni 8.358840610613289 7.094154449300245 9.20115946700234 -0.6254236721962713 -0.09105099047124965 1.084788275845519
Ni 4.709114153041191 0.10051842835927818 10.343062411357902 -0.261194256389976 0.982937623655604 -0.016745080668822774
Ni 7.977667357673085 7.0641897283445 4.854571547200966 0.3137884855469241 0.5583968125537608 -0.22014762286131118
Ni 7.337497199740129 6.3723680742831945 7.236121219481095 -1.043517699231506 -1.2279634978158336 -1.1409684225815122
Ni 2.243539724114139 5.251463879759003 2.5260918033712882 0.9344319627457327 0.203535725336243 0.7750899012075684
Ni 2.1365486274725756 5.227594901013936 11.538469019667367 1.3769339863116867 -0.4306937180771163 0.05855893138081528
Ni 1.068937090441147 3.4111809480435755 3.8377981395117886 -0.16878829455272865 0.01253669901443002 -0.2704193745326698
Ni 3.7774845576325844 2.5414555986058347 2.434366212629809 -0.5096145009437353 0.15634852612747913 0.589162890092024
Ni 1.3211890025735613 3.3821269814713784 8.120204025646412 -1.158904952455275 -0.15457832160093377 0.2656900873778005
Ni 3.5246916032921214 2.4899032935489602 7.012615781599303 0.3374704025448962 0.19005080347593076 -0.15306805560399445
Ni 4.081054323198385 6.819232868650605 6.089797058548764 0.5438420546680375 0.8104513114259978 -0.23058553036518353
Ni 0.8014268863047556 7.350157587408462 11.52098163376623 0.5552261281352632 -0.14328989317130805 -0.6175147017618398
P 0.29404471749310984 5.514753052935603 7.8904035616739785 0.1203440830084121 -0.5619688461757353 1.6795209467158363
P 8.771908301717945 1.6230905546645467 7.990667700195473 -2.01697823663461 0.6507649791745372 0.6201140870578997
P 1.9013305275235508 3.315723067803576 10.392673276624897 -0.7161656160675344 -0.22067084235463288 -0.1916536291866764
P 4.067726650140128 6.228901715449037 3.5903515839238573 -0.5571855658544791 1.0350888517378625 0.8126110380814779
P 6.9796428659668095 4.05228891247048 10.337202022507725 0.05562607400473646 -0.006865359661265595 0.7863405344207232
P 6.186484006338046 7.514436036512212 10.072599018502581 2.054291885483404 0.5022254075685156 0.3763331410483648
P 2.320169335514055 8.376866333511433 5.903786747421737 1.472767228662928 -0.519045564449648 -1.0363129539529508
P 6.809809716860428 3.989392755784859 1.4929653949438488 0.5829297646981186 0.35704883889745603 0.6854697296455743
Ni 5.3003560606263065 2.6934433722167537 0.49332859745758956 -0.43450306452087756 0.33657771552729776 -0.9285644482213621
Ni 1.390785065268849 1.0139942542138358 6.768205374535536 0.32707080447812703 0.9944715924371323 0.5039531888928999
Ni 6.910912470804399 0.6592788669842097 9.19269937034249 0.5780235856457528 -0.26007814050766176 -0.30736252741592224
Ni 2.815574633313537 1.4011189714425725 9.228768850879048 -0.1570488946286134 0.5031463767208884 -0.34697937047659594
Ni 6.233816182172144 1.9066327411624244 2.5194658397967227 1.0936701517161809 0.7071862953870595 0.6549157681181172
Ni 4.075634883747767 6.762405402065259 10.331540917537511 -0.33992966271866615 -0.18844180711759803 -0.07732052825903458
Ni 8.053611648942805 7.282924075688318 0.40988365771029084 0.8868326157002145 -0.2163871273776144 -0.7651705852113273
Ni 7.756372077211171 3.786303545623772 8.226565709852613 0.25532031410770223 0.24763220143482514 -1.1011541187980518
Ni 3.2333854611087496 7.996405452811826 12.418949386464096 -0.3731915100955895 1.1929610135987196 -0.26587392125383247
Ni 0.162677865904941 4.825970252609504 10.41130857374411 -0.8368143748005588 -0.008544290025585285 -0.95676867856972
Ni 8.49053028405226 2.5494359711745482 5.900342112030496 0.2859125850722624 -0.21361187862532244 -0.1877103282682122
Ni 3.639194169255423 2.431064953423701 11.441966927965835 -0.08550049296666565 1.099882708284796 -0.7654490356836946
Ni 0.994967603230802 3.2603473978098267 12.844170689035543 0.11953778505703286 0.437911318871478 -0.9716826195670748
Ni 3.0022251777200877 8.230848058929315 8.116799066683761 0.24315513950007803 -0.22308793643655775 -0.7471034432969714
Ni 5.6630887916421955 8.043385951210691 3.540674891854884 -0.3095410231244798 -0.808828174000278 -0.40694983749295727
Ni 3.308518189066399 8.566050758925677 3.778645093168848 -1.083530749289334 -1.0706536362163497 -0.010157143038659926
Ni 3.557045927333413 3.825231532492852 9.05187870790569 -0.17483475785712468 1.6284089585313697 0.5733963712863867
Ni 7.240479314466924 6.10906988373646 11.49469239287716 0.5543372977724066 -0.3422058603473526 -1.4020626630585142
Ni 0.36165966396992694 0.18777050177721055 0.2733615756164345 0.880411285554903 0.036248955029705314 0.0027366822048727063
Ni 4.403533513935477 0.29833067351786635 1.5358321690875205 0.7531558201386384 -0.7527763253120325 0.05570320709957503
Ni 6.016154901874288 5.774741868643109 0.24025339943192842 -0.7686531444432891 -0.5552644375723663 1.5771630158722
Ni 8.149024442332134 8.83372237398747 11.197014576957006 -1.1266165247352147 0.636386341855362 0.22716210650593135
Ni 9.035945916615677 5.0117100426325045 5.758531342352967 -0.013645615807892628 -0.5255813086856368 -0.2973563081328298
Ni 7.798077414081565 8.925374924030862 2.493176598907653 0.000760275204792239 0.3978568740527535 0.8396194483495216
P 8.534309616053507 1.6472300545136378 3.719320716793358 -0.026506788041276933 0.02842843054402201 0.5506025133203227
P 1.8124192580009366 3.239950106566403 1.6710440273008864 0.06877958066755897 -0.9743681368190381 0.4864020673830139
P 4.711188148172043 1.0984509428901852 8.20748134770072 0.18903547483753894 -0.8913269040261423 0.4911426673917928
P 8.453450858060679 1.7835636735716907 12.298004811276964 0.48256289614258185 -1.625142886185588 0.49681015009021534
P 6.245232172761964 7.892750783119895 1.365923274072013 -0.9683376143542419 -1.1073088255455381 0.3137121237830339
P 1.8025722898144563 3.2258739917870116 5.92991818433346 -0.5895084463569008 0.592543890749115 -0.2710750058387977
P 6.827727231316964 4.149496162516503 5.960220154932221 0.3959038640914408 -0.5939623683631964 0.38231789787688997
P 2.4460157531061038 8.416425536289903 10.269510428384766 -0.6657300851248019 -0.15747389798117395 0.5232380052644408
