# total energy = -340866.9939364726 ev
CRYSTAL
PRIMVEC
9.29698733385856 0.00000000000000 0.00000000000000
0.00000000000000 9.29698733385856 0.00000000000000
0.00000000000000 0.00000000000000 13.60708071698332
PRIMCOORD
 96 1
Ni 1.590258986802628 1.4164982928380143 7.855164084596654 -0.6833043465631393 -0.9520928703606054 -0.12197159130950608
Ni 4.9061410965301295 3.2000416470844257 6.309725873909779 -0.4794562321928001 0.4277827150779084 -0.11801183533080965
Ni 6.969356424871966 7.688115815513927 4.708648912602216 -1.1370909419039772 -0.08687680448890198 0.5409724464297263
Ni 3.4970525026268287 7.329503121651057 13.763154118421761 -1.9279252504299957 0.09159477878986161 -1.8911386777292656
Ni 2.1259792900836834 6.772808814860951 4.490554604660093 0.5864164376951385 -0.8430115047502061 -1.1953932771892959
Ni 3.335796256676255 2.6471126201795876 13.088038505294382 -0.33383126313041217 0.8659241476823216 1.3248128401364152
Ni 2.0784344966682187 4.797952054493414 13.266223635548869 -1.5382077176549251 -0.6586330690687044 1.2141042233352382
Ni 5.103413871556087 9.196393967678782 1.0681039177946472 -0.910431228955761 0.558748796576541 -1.2942421664384096
Ni 6.416920138297793 5.445254800201613 6.079439496729282 0.4134868672805265 0.5492053758624801 1.1357999910066954
Ni 3.889571309431857 1.167292546357465 9.895981110964197 -0.0321326188684866 0.6803655756497896 0.15000612884921907
Ni 6.809113550544836 6.395955431776113 9.50877739183919 0.6310207066680745 1.3748323665876516 -1.5307941987996734
Ni -0.08703932546635146 6.724139085973591 9.364270598336269 1.7553306947572993 -1.0144968865191237 -1.9731753805170469
Ni 0.696489387093387 7.293839878095772 1.8701299164277938 0.8332593104594488 0.5538259053536269 2.391116169803869
Ni 8.827452320846694 6.277595485555487 6.225552809649916 1.1230946276248852 -0.5713364034335644 -0.12354716332674207
Ni 6.323671354966329 2.54583123975955 3.9740158457229535 0.2219605077003339 1.2305158319240421 -0.042674398940074895
Ni 0.4780334263425306 6.654960202945731 13.357948642650221 -0.6400635335966331 -1.854451092500245 -2.2803018806627633
Ni 8.990028739003955 9.123970436058432 6.364861657513692 -0.43638099826988075 -1.093486317840149 0.7676792105657941
Ni 2.508699072199643 8.77928462927737 9.785586823523072 -0.13115711446351605 -0.9476636309446583 -0.03210870760908664
Ni 7.222122917515621 5.445663867645937 13.263066378637665 0.23946714912552952 -0.8025387414471404 -1.3014520539232877
Ni 0.5747630017457102 2.28861149016517 0.9281228977439462 1.4282334079166112 1.1440115802832105 1.7015565863596376
Ni 4.222552209112789 6.687908726188673 5.941096605853358 0.11161955865122067 0.19410851848507216 0.32443130997275094
Ni 5.28319901333713 0.30824998357524513 3.2809533281745296 0.11434518511249986 0.31168249494751477 0.4488899293701688
Ni 1.52091275800209 3.384828568071085 11.294978754774979 -0.2670854250634303 0.09017218741072212 -0.0026582635584534863
Ni 2.8432325687715365 0.1265385060109238 4.163099834272504 -0.6072716838775928 1.1243395557755798 -0.867360623018532
P 5.363515687235487 6.637221551041799 0.0968885538872242 1.8115797470580157 -0.520624993121626 -0.46640942631117094
P 2.041934524249542 6.375065101153401 11.699109498806427 -0.25901653201236685 0.6095103434001244 -0.5139362682475407
P 7.071297891395347 1.409739383019273 6.253515358565774 1.0852114794258663 -0.16125341962826423 1.5867699428343445
P 7.162817435075801 0.5334862372157962 2.1398634110235846 -0.5700331112411087 0.9506281128896209 -0.11800566468322257
P 5.164820473141761 7.943792265204715 7.7124664848361375 -0.7572186773541024 -1.0194395752363796 0.33105807126064923
P 8.496154175879921 5.751116387721239 10.91565423244692 -1.9637803124553923 -1.420033645714638 2.822687662500248
P 0.4400589517268077 3.99764878762012 4.911366933131387 0.5339530776890997 -0.2592481884071987 -1.0373982165973297
P 2.374357604688211 1.38487923878913 11.630012429267435 -0.9117183231983008 -0.8276807879304068 -1.4197017162965162
Ni 2.6693882019205835 3.847381580742108 7.555249779898277 2.462054448685644 -0.20154132061403357 -0.5488829595260547
Ni 5.197583056637284 0.9081975944103475 5.546273075879049 -0.17723025467249476 -1.194047561794679 -0.5713572293691709
Ni 5.923714958264473 8.898267473651856 10.505713801007312 0.24147595202544217 -0.13844619192576157 0.7010917524535475
Ni 0.47749884956869615 4.428313133608499 7.169203535700962 0.17264829172876717 -1.063702144599181 1.2849214032581162
Ni 5.116950285168311 2.591079677294369 1.5434235535235732 0.34139981950628945 -0.9627182112849357 -0.641178878147999
Ni 6.764013864807953 3.3396638034226047 8.049676584072152 -1.2790690582423971 -1.1351847260201997 -0.12293189834024633
Ni 4.230547618251877 7.014214388937203 10.045482246082837 -0.7908235098927413 0.410200483219771 -1.4430442476771987
Ni 5.982285978701983 2.0875920292286865 10.131709944551698 1.1642641598846593 0.6077943891502823 -0.1431813926179018
Ni 7.541502324672731 3.042076534663198 12.038674524943525 -0.12812655516730836 -0.6591578312239229 -0.42015065245394734
Ni 3.9238957868057125 5.425498702038166 12.005567952915275 0.2871127760279507 -0.021098986762144306 -0.06561378134506765
Ni 6.24379163947441 4.750119054469447 1.7929639915494797 2.005224695643108 0.5068089131741401 1.8481650023812173
Ni 7.629591280013273 2.6707641560514968 1.0821832754693401 -1.373875659101337 -0.3669812675198196 0.013748202824027937
Ni 7.968429281737954 7.860203051751754 11.888424982341517 0.1657363951002823 -0.17525153367956914 -0.42656015552471693
Ni 1.8686200856787378 9.41859196584648 1.2017787913115763 1.4837190996887415 0.5257849400560106 -0.4575512045895927
Ni 1.9499408342131668 5.209194993863703 9.542414821846325 0.39535467645619005 0.7346289649790445 1.191390069567174
Ni 0.22651830819901658 1.5730874511283293 12.532896795395237 -0.4346915263825998 -0.9892190857889416 -1.3456007234160439
Ni 8.561595669984625 2.741393369109237 3.287607182035978 2.065101574504398 -1.4502515640589153 -0.807818501788841
Ni 5.349737551951615 7.209776518286889 2.1870660753037954 2.197812149497963 -1.4812719236998295 1.0682118595440766
Ni 5.766707435542461 6.606671650540584 11.49161468616602 1.4996571110752366 1.8934953508869004 2.8417176825485058
Ni 4.098892980090674 2.552348427906644 3.8022949107875443 -1.6446778708947223 0.07186053358572786 0.6052870493473963
Ni 0.4212381304928878 0.15363643510127473 10.581355949655515 -0.6779621084146195 0.669345313279886 -0.4549268795928681
Ni 4.189417746122425 3.464884926323053 10.824882166551099 -1.1378280771803178 -0.4506303091000433 -0.5055817256352584
Ni 9.065687622229424 6.5037818913053576 4.038118573646228 1.4473310479780106 -0.10321256553444806 -0.22221658957519796
Ni 1.7163819174780666 8.575885139573902 12.45392167677452 -0.07547087664480552 -0.2709251105244947 -0.7089477581628565
P 7.321665761297276 6.459286509747591 3.0161323617055924 -1.1097966249643985 -0.6904008483986045 -2.239218223248576
P 5.420738644504198 4.593241689570631 4.472334368810341 -1.2110024444814627 -1.227722328339305 -0.954349527605266
P 2.075738370330619 5.473089980390486 1.8485897263878464 -0.17832940127394448 0.016725797395113127 0.2492602239565514
P 3.1829537842964664 1.6873381289309581 2.0221207847643954 -0.31938012070208865 -0.22227238251379783 -0.3485953088134641
P 7.844082075650383 5.069526352588669 8.010229466656858 0.49198341812553337 1.8798613050432333 -0.43576701883496566
P 9.324692393399044 8.636547982169896 0.29140756125388106 -1.1850512718333397 1.3569050926852695 -0.7519548578520018
P 4.287482368912086 7.820690855424863 4.067714603243176 0.7390363500181207 -0.7278852184973077 1.5013782075314015
P 4.715571449398687 3.2929929268200175 8.622453749315408 -1.51697529063871 -1.0993651452184292 0.760716920315348
Ni 7.599162240347879 0.6759672171705681 4.305457164295241 1.140210204259249 -0.8286734908609792 0.35753786271873267
Ni 2.689246566945111 4.254301420984867 4.854339212597469 -0.15147885674000364 0.10623026931484932 1.0137314691080088
Ni 8.052474047572096 8.578079228593467 9.104334269032073 -0.8709059171676292 0.560468607481125 0.6248837405324013
Ni 8.238869347373942 1.3619900558816456 8.279119724498095 1.335515314155584 1.4296058627841055 -1.0457758991380635
Ni 2.09833004964223 8.342233252965093 6.131323194150808 -0.5844235756348257 1.0610436239304113 1.6472662004471885
Ni 7.701540665277699 4.533034399355818 4.064217076594193 -1.164213509152382 2.2758011645789322 -0.45432755544597236
Ni 7.420855319558831 7.412581000798611 0.9365850156490608 0.9792398630890425 -0.7917015416223204 0.8517727958826041
Ni 6.293028484591402 4.546068775650007 10.789068311800406 0.22673298938831274 -0.6378505851057145 -0.32954394860896796
Ni 2.7516386491921154 7.040125092740273 8.1043772686671 0.6067417795160519 0.3593844290091681 0.28237371868106853
Ni 1.7294348877469974 3.204680843782571 2.814842358436612 0.025026861061640766 0.706749464959957 0.3089111028499647
Ni 3.223246927562525 7.762110537999982 2.2755799029671926 -2.7403200587356094 -0.010103921203221308 0.9680640489778813
Ni 3.839135152944001 0.3822633000360417 12.762407803828987 0.05872348198313758 -1.476835999415663 -0.41555069178809073
Ni 5.072826783105386 5.33763287439453 8.282085463469455 -0.4287414794467519 0.6330639623503485 -0.4950556292929538
Ni 0.04327933560963451 0.4845097077451924 2.584229656999392 -0.14327395233170812 0.021453284777769505 0.26619659470057383
Ni 3.8330177352538612 0.6473826997995888 7.380752764533879 -0.1904974040950461 -0.9767142684537113 1.4417183297769236
Ni 7.900598461878894 3.3830156555337334 6.030344895519066 0.27368056178244476 -0.8887851114408951 0.10739292216438279
Ni 5.686418652606218 1.7846125077940802 12.677744788334673 -0.35024415727079683 -0.6766529026848928 -0.21424154178952134
Ni 8.368394975427181 3.2617829402154586 9.678553397016577 1.4953916509306633 0.791592783958598 0.9330163133451285
Ni 4.203577057888509 4.7550650517508375 1.0679207671434376 -2.4930858640701516 1.0249057405572737 -0.8399056121313729
Ni 7.374835232072216 7.544895725063158 7.101726001362002 -2.9092736752216086 0.8129586512288837 1.340218118947892
Ni 9.004225238719522 5.070502536262628 1.7272965806516598 0.01595292378483059 -0.9014259401333573 -0.34640730002320985
Ni 0.6324917151274048 1.5804041801893325 5.3630406111808275 1.0934348957769233 1.4412267348524856 -1.0889958861689633
Ni 7.0963439753729105 0.15970736785455952 13.62259296635911 1.6486034312013735 1.4960043448139977 -1.2043774829657774
Ni 6.139126155651316 0.48733785130346075 8.259402673681608 -1.1354114973190252 0.036616365671453065 -1.2714585928849909
P 2.9569719122687586 1.669692446900737 5.7589518886775455 -0.5103999729595081 1.1642045102913174 -0.13528527769927667
P 0.6287087709661313 8.485146542832616 4.281100916780608 -0.08582033819992962 0.8055824133694707 0.5291625982789919
P 2.022764136290471 5.845108930042386 6.524812606437372 0.12660343365456259 -0.3862239177995155 -0.9112532106364241
P 5.254675856082799 3.8200112499217855 12.926904049878367 0.8150834108813705 0.3044656654841014 0.08427716208252582
P 8.885958262372608 3.95131260256289 13.268196456269003 2.656274810158232 0.3548975968824082 1.540019059832051
P 7.673975097722585 1.0726585119077163 10.928635615913095 1.003848148556026 -1.0779887364251823 0.3445527633129743
P 1.4177254951709906 3.1455055191659445 9.12473185932412 -1.4351285923745476 -0.25708511931760886 0.3574404179089199
P 0.8783114988074238 8.385715262899415 8.368531641141535 0.46965955781735247 1.7572808765051349 -1.1064176811898365
