# total energy = -340855.95010367595 ev
CRYSTAL
PRIMVEC
9.46553516505045 0.00000000000000 0.00000000000000

0.00000000000000 9.46553516505045 0.00000000000000

0.00000000000000 0.00000000000000 13.85376750500794

PRIMCOORD
 96 1
Ni 5.501492037248883 5.257991147457657 5.734448320967128 0.25866094844516097 0.539398159964071 -0.6462683768557644
Ni 0.2500680780259058 2.447456076535207 10.744095064335944 -1.431400235680367 -1.5909125042478085 -0.05964727934898761
Ni 2.1891321588173325 9.078669190459408 9.32260170865003 0.2060224963138387 -0.47551601659812953 0.8876291434595811
Ni 2.455785747400757 1.0437834837340334 11.243399199854707 0.17837336713800248 1.1791207652815177 -0.20769345625835842
Ni 6.322258049092884 0.8596911317308223 0.34412236729356416 1.8415773218613705 -3.1326092088925983 -1.530161707421997
Ni 8.008694571174264 4.595574071874779 3.1112513340249306 4.061658052949547 -0.8585885332528567 -0.2070666213076369
Ni 8.800070096611977 0.8380036977681535 6.7493202743696425 0.8616738570463999 0.14470888500602175 -0.5193808363018797
Ni 7.5807482649215485 4.816405005162603 0.6175570652043532 1.7488335170687301 -0.4778534064820545 -0.6744569234748384
Ni 6.269364639096641 2.1358695929531835 10.09137542943688 0.4422729382742835 -0.12264676299965972 0.16296963098842257
Ni 6.318036420449663 8.191029173314142 12.284108277796546 -2.125307040349701 -0.3790356275811924 -1.1198498954353422
Ni 4.921832134822261 4.092301037499282 10.184583499868879 -0.02709942731995333 -0.4915476161396954 -0.4842600813393466
Ni 0.7779363587389548 5.87476541291135 2.768287548224484 -0.15889648936031345 0.8187793716757188 2.3221594401284973
Ni 8.722840795939224 2.7173563436491817 8.22257117584286 -0.7506402528056363 1.396029312380241 0.1646025386061552
Ni 0.5281247967135676 4.837314372142149 7.728573419286856 -0.42447833329502377 -1.4442400677575127 -0.5151230894667903
Ni 0.6166739307819032 0.4326421582031689 12.596926227491762 1.9288644744148138 -1.7144252147921892 -0.6152428750085276
Ni 0.899074383515248 6.838498866520431 5.943335642097963 -0.3536503547388683 0.05014911005056524 -1.0026412727321186
Ni 4.6671240515028405 8.543620354838852 0.8448633710366356 0.17856619987509895 -0.5718570518237248 -0.9385189883309127
Ni 0.2592042124798024 4.186492577025521 12.323784961168283 -0.21911815315553232 0.22660083468582262 1.123800138332342
Ni 3.206052454009966 7.5861057577737085 5.767683707720672 -0.642062566304533 1.2849052053082002 -0.5373158235137455
Ni 7.7581797198928415 5.842857094175248 11.288354812137484 -0.8685132485657364 0.293251799046153 1.1720607731109427
Ni 4.488954284795737 2.2205293386594116 6.123517781561903 0.18106994013355912 -0.5514100968232827 1.0733718064784612
Ni 2.410436368858881 0.3294612000166884 2.051272319778447 0.29185877535336835 0.27225488507951173 -1.3077862236714315
Ni 4.4681869008423085 2.431998857758567 12.052292591054778 -0.7111473369173364 0.2741395036967343 0.40769262919625276
Ni 6.844405360406913 9.40260819731364 7.493239393157898 -2.1999263676274885 1.4405873014962738 0.06885851353461045
P 6.54918478696868 7.313507813163506 0.46367964771241776 -0.030805672526946947 0.7481262281345309 0.3410208389003159
P 3.9917959860783596 8.512819503706464 2.9121589485891772 -0.42316218558676155 -0.20469889240640873 0.7999257293043256
P 8.892964857833011 2.955480809518098 1.1521913103886467 -2.4470021823382115 1.44562229281702 -0.4661939678662551
P 8.436319049234447 5.7182433249196025 6.522063189319748 -0.753245037418335 0.9140585412957032 -0.3935939850113415
P 2.922663799414845 7.938801060184237 13.591266488764202 0.2035488379623656 -0.45253883897666575 -0.17881379710953074
P 8.518744928663095 2.757556471110536 5.796166449313317 -0.23808003897001578 0.2817414844137084 -0.6574454765185065
P 6.697168962323239 3.8857535966388608 8.810524780101751 0.7438407133852996 1.280825635922188 -0.1503362584951282
P 5.712507210664462 0.7641441275819171 11.660978852093843 0.067841899344638 -1.5138074344336896 0.9001020791156111
Ni 9.163101763323848 4.5921948758531865 9.937279358084725 0.20062960743304156 -0.877517766057192 -0.25045810091939447
Ni 0.34435143324236683 4.617903269115498 4.892762530054998 -1.1493777296911303 1.3023979627763247 -0.06600124659147343
Ni 1.0942631822862825 2.074788495117507 0.50678569444164 3.30859839206914 0.19252626159961683 0.33553050520970606
Ni 3.4529420053578583 4.685487189547349 2.1414324879164606 -0.34787694259020085 -1.3302478951090575 1.013695473663751
Ni 5.913640365462276 8.141921977347694 5.66519373359463 -0.8054901107659806 0.0007505050127793527 -0.4030515308798155
Ni 0.32167201120389155 3.0298893807386547 3.000615320413783 1.4689789652650893 -0.10935544520739232 0.9547647607658137
Ni 1.904995726951326 8.0556909528191 3.742844841191243 -0.6839018709378222 -0.36414096985754707 0.3799475978725005
Ni 6.3019166142178085 6.267320083520552 8.15802663872343 -0.6316704244369316 -0.440814351450886 -0.43031268058861377
Ni 0.8469022472916805 6.263874628753437 11.375771868210913 -1.9323053817755622 -1.7774552945704805 0.9695753434160849
Ni 4.77702837925273 3.9715776031592513 7.5647524571991696 -1.3561291337511934 1.4719863846328456 1.6571150682168105
Ni 2.889288322742197 4.312687090638606 9.175918097814707 -1.3038809750797544 0.2717877156351061 1.8301071164382416
Ni 8.520051172503374 6.546543902682897 8.852044403152489 -0.1913625803088188 0.3725878150733196 -0.5106635110335399
Ni 4.525633233209382 8.42445873378611 8.893564972756733 0.8404815392395009 0.005547412180790446 -0.053991623725107005
Ni 1.776595743665885 8.187044183047782 11.712168465776678 0.4136781573557263 0.5023945861565283 -0.2704088330097085
Ni 0.9752908719350323 4.789011746657033 0.9153768745740402 -0.8964583117154367 -0.4790744233733491 -1.4138503997220617
Ni 4.777123034603475 0.8919534614787101 2.1925946515475805 0.6120194829752234 2.397290674045697 1.5391186595049686
Ni 2.030754825950985 2.072857525962311 9.194371158442422 -0.04301686988115817 -0.3533940157536881 -0.7963475250347639
Ni 5.450501199802611 5.40710172148608 1.1768452430436602 -0.8557171252423328 0.1529281875920205 0.3724880562706617
Ni 9.088920364945078 0.5272814175384307 1.3443123292420394 -1.2065228114435542 -0.5711019188252552 0.4114058163817818
Ni 8.721080206415369 1.8740812893980456 12.960836295858543 -3.0243405689914815 1.4344102261512843 1.327913847659242
Ni 7.762240434439798 9.264629092532815 10.822050371548912 0.8298860231118418 1.5756740900314994 -0.25373497189845334
Ni 7.918544815124832 6.639940337262879 4.2319934041285885 -0.19318574956048662 -1.1578464292837738 2.1629040247668687
Ni 3.2522347996383973 0.5337567900828886 7.18773640896825 -1.2066328546588574 -0.37393713001236245 0.6165142855217834
Ni 8.084702817822409 7.001211414450895 1.9565119015942318 2.6470378649409962 -2.1042589614301503 -1.7100427694537774
P 2.0632405423266307 3.4010898042198088 11.216093024271823 1.8090477246647811 0.25984776966441053 0.236410878797709
P 4.41621164774829 6.987401198777215 7.242888295633266 1.2710641856600498 -1.0831111452534121 0.8199813624036202
P 0.9989831062264777 7.0174732037088665 9.529812683519173 2.157952594298864 0.8161851285859815 -2.2150107727644373
P 7.10777440831949 8.206259219248995 9.139275118434345 -0.5747312880477263 -1.5313940371672012 0.19258822518580382
P 5.755386084551897 0.9884763622937951 4.839301187954285 -2.1610985961270135 -1.6952010764552548 0.47180360074354877
P 2.5858895269996065 3.266792792582961 7.428057825527954 -0.024597229723389895 -0.5335237034611651 -1.6711208955775996
P 2.382797006441374 5.504937492015997 4.706235642430628 -0.8808218907297605 0.1518398396238482 -0.29006568800868754
P 0.006979885563928072 0.9788972407984124 9.137335630297581 0.4250720010149647 -1.9509633631963819 -0.10370081802477624
Ni 3.1714369922425605 0.6703009197464198 4.7267673345607015 -0.0023291623538088915 -1.0499649975187464 -0.34869249651296075
Ni 7.698452193572817 0.9875676709266442 4.158859840482565 1.389215374782201 -0.10504447653686425 0.6149741947281732
Ni 4.80351294639115 6.6254769996690595 13.209830035653495 -1.8580814901639806 1.5591994894152437 0.023889147912771757
Ni 1.1796707052633952 2.7748500036916273 5.717824001715803 1.797020618296918 -1.8806007543124192 0.7994824711193199
Ni 5.642670492884884 2.757887764838143 0.5869767610392019 -1.9090448685857249 3.3064106403892026 0.2446222109639077
Ni 4.030604679883764 8.693933051821734 11.666756614703312 0.48247779262794327 0.14099055561417007 -0.5170966682533933
Ni 8.247500555568543 8.55502632460361 13.039872567177019 2.129571986273642 -0.2980062830120029 2.21711984868764
Ni 0.5207909001378537 8.454388755691644 7.780760700366542 0.33519163381304856 0.1297111260456089 1.3305464001860827
Ni 6.640972080585998 3.000678739498782 6.856700143915166 1.2842845410050654 -0.9063452318118456 -1.061116643260192
Ni 8.21827098325852 7.9146071525338435 6.38867865526408 -0.31211109784450114 -0.6713155496323794 -0.7805910335314556
Ni 5.909115839696669 3.0345653550654523 4.3081341682677765 0.7832330991399931 1.2425786766258473 -0.020688124476970823
Ni 2.8453398433913453 0.7253098768318117 13.466319532673934 1.0459445635054436 -0.23361994631613314 0.7230805980198127
Ni 2.884915245537784 3.702595492947502 13.833817985387457 0.9587422573563231 -0.9469604342300466 -0.6163785312748675
Ni 7.18777711076907 2.3511915848276557 2.3362303600889183 0.14362747901638492 -0.10629249001135242 -0.8209882064015797
Ni 2.365276301018495 6.021310826934586 7.645547424934485 2.019659383011199 1.7063432091150035 0.4809700977341652
Ni 0.827151461805252 0.7800130971342976 3.4812297569279687 -1.8877504779833232 -0.7194010922856966 2.116420279383033
Ni 2.556517971663468 5.8640693582771775 12.812851173950477 0.1792164318645881 -0.17102669696494416 0.5410971449330487
Ni 3.223800332274633 6.462215450704277 10.185289628785435 0.24209404522541528 0.420205931171915 0.17150980724894976
Ni 5.68255825768878 4.612337534491699 12.773589081015006 1.7375067792020011 -4.2291006321076585 1.6797903983271394
Ni 3.509299801191365 2.9629680477620184 4.2800385670596786 -1.5064142272934122 1.3548019302993377 -1.955308270428639
Ni 3.9616482568661127 6.572933814470573 3.7815522537713506 1.719690834066503 -0.9641138060808815 -0.253340307563196
Ni 6.725499308801183 8.615435369449 2.360113798188869 -2.2521734978576635 2.681279559732686 0.29466847688802156
Ni 2.7232344409304394 6.741174234884537 1.755272732803584 0.14721545347795936 1.8102306892292885 -1.6693476057272605
Ni 0.9200235057421068 8.053343500120627 0.4243730667620954 -0.5577057000240073 -0.5610594469875885 0.20079287248378322
P 1.146768505344472 9.306021877413555 5.9147270088888275 1.5144021305948951 -0.4123530107863995 -1.5145139735824111
P 6.150676294797625 4.854570042582942 3.0405967940149163 -4.642221374298018 0.4477594153101515 1.3603778817252183
P 4.932490327316135 1.1602758238957676 8.450452039654165 0.48390526910308923 -0.29894653543808514 -0.4319016223422884
P 5.228922489243902 5.762674546559253 11.30628158901506 -0.8293370925869071 4.180145542365194 -2.8715306521448807
P 8.533766732826308 8.476538107765949 3.578773988977591 1.3815321472053301 1.7048352571109089 -0.5891986284259659
P 7.453919560458472 3.2655244108829797 12.129028737350152 -0.7607004652551157 1.5040562685841967 -0.9379901124106362
P 8.922241757818405 6.46114584524086 13.324636564018462 0.7414135920010457 -0.7744142152967824 -0.026838974569715065
P 3.0526350615226514 2.5476392997635973 2.01677612375298 0.09646676217018225 -0.6434113670229434 -0.4493190464877874
