# total energy = -340860.4878262934 ev
CRYSTAL
PRIMVEC
9.34390647507161 0.00000000000000 0.00000000000000

0.00000000000000 9.34390647507161 0.00000000000000

0.00000000000000 0.00000000000000 13.67575162281221

PRIMCOORD
 96 1
Ni 5.45117889475488 5.576938530171949 2.638681774518077 2.39881996620603 -1.309224498779855 -1.9143729656668578
Ni 7.480516505185479 5.088130757858021 1.0552848972898163 -0.8409926745479646 0.8189606344485896 0.9742136135190448
Ni 7.514799297543398 3.892886290687704 10.34045450668683 -0.37232273433739105 -1.1749059558692216 -1.38455062231668
Ni 8.84398866208378 5.8469587355573776 10.211697346116198 -1.4000412617531113 1.8677884330390992 2.2291423270698125
Ni 2.608902745015573 5.658856557046268 10.512003020727704 -1.5766115142441042 0.4555696553831896 0.44367444660750044
Ni 2.926361962884281 3.513131249256651 11.665483964125073 -0.40030096471787185 -1.0121682383859472 0.8945533813832399
Ni 1.2643893740791747 8.417233771767382 0.32718435558637543 1.2181336562096052 0.369885328540492 0.2918963134595231
Ni 1.9290494636937385 2.081000068579123 7.609625931025093 0.5622681225837091 -0.058513937075492774 -2.811114612950668
Ni 4.945290461653196 1.4339999619453347 13.671621589506481 1.665581710926925 0.23878503545684038 -0.3838885847981195
Ni 5.652044849325111 1.853774954226474 9.854213505444235 1.2233632800396608 -1.8978304879271444 0.8774285487774953
Ni 9.043770723518683 3.871684967204434 2.4716734645673384 2.3373618589005485 -0.46422244596218115 -1.6026287642434722
Ni 8.266040023295458 8.247361554523728 9.96649081840471 0.6498928609822291 0.813148912862819 0.7299212750907299
Ni 7.382526959408021 9.404267973984984 12.349545740862009 0.48144446626742243 0.1383729154856649 -0.9236122464224092
Ni 4.088370155206651 1.2739668780766853 11.2875005273359 -0.8012837859941168 -0.21045456394326337 0.0904786629075474
Ni 5.629535378954376 3.5743805553090238 11.867105840718132 -0.46686991088735724 -1.3651583338329973 2.9480543955342324
Ni 6.757727974235779 9.311053164346774 0.8004662931273637 -1.6625274974816333 -1.1335772723237638 1.147269682209192
Ni 4.589736137640243 4.173072666170002 10.071794774064365 -0.4504575309676048 -0.07120901604465801 0.13354541219003452
Ni 8.250800112056492 5.300685939258385 8.172150583619569 -1.4902473877255626 0.7312641622718696 -1.7756133562657355
Ni 1.9268816774230826 2.3298656700129765 9.810970841297815 -0.18473350502807537 0.23643581849837345 1.0502077096571718
Ni 8.793475504414957 3.056429139123646 8.455101820987588 2.848007629322276 0.8718636530952081 1.621423271242156
Ni 0.7104246740818886 5.831746856037429 12.28717049409578 -0.1777951260370293 0.27363633880807064 0.5842471979579615
Ni 6.197672916086711 0.5916963281849427 5.153734324264384 0.45833436261252036 -1.0005044288947735 -0.2186746378602105
Ni 2.508848195937188 5.601774633221105 5.204142830182209 0.6925052963361171 -0.4649706369821154 0.5655406226873937
Ni 8.980811482606267 8.72113498153815 2.238597196065186 0.643866195172175 -0.08829296811013826 2.8154746896915768
P 7.581056937393494 7.18746357067433 11.923764485586137 0.8729635710276061 0.15983468490386668 0.6146839171812639
P 5.439527043550103 7.315194770328937 5.267995348540638 0.21718931156393562 0.27362605439542553 -1.0474633141428153
P 7.6733467003041405 6.959659134128661 2.5178015269912515 0.2921742497112581 -1.111901330012227 -0.009885377434512007
P 8.893754307245478 2.0445027704188528 3.760325225846451 0.08429438847370645 -0.12600025285292493 0.3964864760677881
P 3.299538894252654 4.596753411300858 3.4134401781348545 -0.10596184614481105 -0.6933216215898252 -0.5191918602195251
P 1.8803490238546892 7.573768690449047 2.534910219498024 -0.2037874363357329 1.4908693375802775 0.08612167149043232
P 0.2085858899875421 0.9198533844212116 8.273665585258746 -0.20726022537568176 0.26388157341415197 0.5213405311314119
P 3.138861080846611 6.596041018945121 7.2274975373839245 -0.39361583938821243 -0.4399900557773777 1.294387176656706
Ni 3.910677088357226 7.051790050631545 11.809175490197383 0.332387331595034 -0.10722142958352503 0.3179487875722008
Ni 4.08324969453286 3.866611226062338 6.603268530498364 -0.44232564588908985 -0.6051973178470673 -0.5137218382438895
Ni 3.0785741971471583 4.508761845306167 8.530633287879175 -2.1120812856880464 1.1473031065502886 -0.8939525145744476
Ni 3.333410554731655 0.04672326925770972 1.5261177969793434 -2.3108085338920525 2.19213078284247 1.42673522610453
Ni 5.8960422755563275 8.27985966077089 10.775740383490767 -0.30258387508035633 0.7229677265910323 0.26782693121514517
Ni 4.390514710585681 6.84514021803745 9.349495863806832 0.2774328297360254 -1.538263767703841 -1.0464829525074173
Ni 3.5796318306715613 2.7900530572104407 1.1157119395843544 1.5206658521164198 -0.2168339851070459 0.8518360450203717
Ni 3.6450204872321272 0.15678233885329917 3.83695086417034 0.07278535939284239 0.026327582150935305 1.8555376406962045
Ni 0.9501351160847556 7.732727225088707 4.562982665010318 0.33607197953547285 -1.3019598467976417 0.27446346269505634
Ni 8.26041499167936 1.4106215082850697 10.1751551972055 -0.5589585985945019 -0.8739153934179144 -0.4863727568069752
Ni 4.998765637631492 2.6703949926327613 4.352608351349485 -0.9374787199918564 -0.4667508688109897 -0.013087172201261332
Ni 1.151729895349432 4.9311718191749145 7.2552461360389575 0.5131623661959936 0.7972335271841431 0.024901134117053886
Ni 0.5003979537368674 -0.0008876711022083079 11.753392369353346 0.2677379710457647 1.0386953381421982 1.1709515992071642
Ni -0.21500328486119122 0.9623289138571961 6.03629898165841 2.6289637810481046 0.7984504303103798 -2.0899857393405874
Ni 1.2972518926735603 0.536540183456254 3.708987001247892 -1.047202347171945 -0.08882492935420831 -0.2428013557050851
Ni 8.18480410158389 8.659399792356146 4.686994989941988 -0.703032678230002 -0.8523528367557901 -0.26831955458084755
Ni 6.04239588054463 5.819954846237567 11.335598285216081 -0.7336321482834139 0.20153823529023998 -1.0246288327468032
Ni 1.8280698678877894 8.494685411411641 6.845629838729616 -1.028743369135809 1.1087363020206842 1.2399160421920195
Ni 7.07080490003148 0.9131323125915439 2.8916418757096958 1.8649931296821494 -1.3304756948491472 1.782026458880931
Ni 1.8979249116784136 2.7316162669661175 3.0994447463460264 0.48555745999453154 0.5499900765473045 -0.30526630700852586
Ni 1.6807444966402274 3.4612819129813466 5.308147048470105 -0.20172361182816873 -0.6794129819285332 0.7519209192902728
Ni 6.641218806094354 7.5494278144358615 8.464811074064478 -0.22194122442662423 -0.285085975405909 0.1626919518470037
Ni 8.579247763779906 8.526071592804458 7.339543121467194 -0.4905929655359099 -0.8098368177704505 0.13225806083717867
Ni 7.637503475587604 2.170318469273957 6.989758659618594 -3.244311814175929 -1.0635064836486072 -1.3803183294028873
P 5.048923726859432 1.1904043236866972 2.7239907050028314 -0.34302964180022855 0.9762964641900025 -1.525368914019044
P 6.348726505963548 9.423142664789836 7.326223382980899 1.3879869016917386 0.7208738201764812 -0.5849671068431216
P 3.948220904027468 2.5099134012598383 8.54661977723463 -0.9176022927829035 -0.8550769205551725 0.20099470408194417
P 0.8860069524893258 4.39845703097386 10.04133831135228 1.0900125003589358 -2.752899438062517 -0.5983155031255696
P 2.479545705657975 1.4478850067651408 5.31621551159386 0.6287807615939622 -0.27834839957175933 0.7014452791382242
P 4.6857260874611475 8.006083205037172 1.144265048575177 2.063850989926749 -1.7558078915040343 -0.5511041355470895
P 3.8321695872966557 8.743392166437731 10.06047089397209 -0.13985798467162364 0.930061858702495 0.6033242691940706
P -0.11671379969025003 4.086258432374029 0.08207874206334967 1.9543374218749374 -0.7687655016514374 1.8499974276042654
Ni 3.766808962455107 5.9588893895926764 0.8376017800905898 0.13049145585505914 0.3120869294747851 0.28025564389680124
Ni 4.4280118067242284 8.698915172263925 7.780367131558276 -1.3210248338488926 -1.0461615646122564 0.34747790737956935
Ni 0.4098975488901456 6.290317747438241 1.7591669681531126 0.11290022513585718 -1.1611508110666584 0.048840675651786854
Ni 7.267737070032978 2.6540431565394504 1.6510327432633645 -0.7347482641657281 0.09981485270680873 -4.197406129217855
Ni 3.7956162256983514 6.8499336419893755 3.2873637842928916 -1.5653097160780398 0.5799675967460012 -0.16801542094244612
Ni 0.5473183794183307 5.310338194506608 3.962808610603969 -0.15809250540177935 0.56993206688687 0.7511806986901386
Ni 8.848660615253296 4.171624360687452 5.852291302905065 -1.6711247522323416 -0.5106606828200625 -0.20123973021321473
Ni 3.25639807868533 7.690810461251797 5.3589666862668475 1.4996419415665851 1.3733007604344736 0.2245634925408197
Ni 4.554537642461098 1.361005365624795 6.508631578315352 -1.6586389610605046 0.9356696918075758 0.8160645438477172
Ni 5.034337889064198 5.0270589860260895 4.783572671471618 -0.6261785480844249 0.1845175323625274 0.45813381656594
Ni 5.771590787026724 6.798588876656379 13.383992792625143 1.0569013196272636 0.5619482773504451 0.9045997098756485
Ni 5.725945804560538 5.9922097595976735 6.954570442736423 -0.46705888696971176 -1.0505131567127326 0.5711129745688487
Ni 5.876747108966221 8.005354380342727 3.058335296016809 0.3419194394551853 1.2053676147931884 0.8334014924642679
Ni 7.118645700487339 3.638713350453279 3.519796257648284 -1.2642510193929581 0.9648421996064739 3.176845553003155
Ni 5.975755140534633 3.2907649662003005 8.309905925994691 1.017864517439776 2.3839314791299717 -2.314951866636465
Ni 0.6555712719185847 7.07623370961446 8.649133642461448 0.9529850431575717 -0.5333303565034363 -1.7259594406840342
Ni 2.0089772385178426 4.355839474161523 1.1834048034481262 -1.6204483089233965 1.5580687182449102 -0.010792976850445928
Ni 7.243498976989522 5.841950401759655 4.730757175280857 0.8497981886547364 1.1733612370899211 -0.4309474859591352
Ni 3.5890037687296137 9.035407927345247 12.993304446386786 0.14953433141912312 -0.9684404584806935 -0.8209159584027474
Ni 8.884774813253667 0.8075312207103079 0.5883185060433815 -0.539714148542593 0.9097797114146913 -1.497254929391647
Ni 0.2368988605854515 2.665779102901278 11.596435299451507 0.3323690767625889 1.0287629095198347 1.512008176441422
Ni 7.806581460792438 4.660516228158431 12.428085011204132 -0.29093214977404086 0.3103475781861752 -0.2434420746128775
Ni 8.523109574494985 7.570049815726111 0.4178006248717013 -2.9682072163330235 -0.7311055252068183 -3.687112342818908
Ni 1.3800856223691038 2.089409584284254 0.7752526962621121 -0.2810665698338708 -0.08029015241031978 -1.0056088400008745
P 8.878860120541058 6.597592107397401 6.182725469116157 0.19640065695335854 -0.6889728577028263 -0.2682298230805187
P 6.204325777400103 3.511038214236707 6.051957499901365 0.3446846609051483 0.610185257979962 -0.9589209490260323
P 1.1323226018832566 7.839808391734047 10.491065195403197 0.7344623574941932 -0.8433316070937863 0.5137028120804958
P 5.323214097441798 4.2325372861116195 0.8435781425850365 0.6785645178853088 0.03397198607007053 -0.41052547065935746
P 2.3183539774032855 1.3784317509470947 12.547516018857772 -1.3132670442803447 0.6181950156583159 -0.06708419524300704
P 2.7625913164800178 5.321046311171141 12.748029708159024 0.1555481417133708 0.37362062721320816 0.37925442846021784
P 6.133695189383339 5.3200184814738485 9.270381943224857 1.6248598077275305 1.0896250351125298 -2.0451966080503547
P 7.206581203043995 2.201274830975179 12.078628520468031 0.7009259162996444 -0.2250849122619285 -0.5730153337978842
