# total energy = -381168.3412369864 ev
CRYSTAL
PRIMVEC
9.20510958242598 0.00000000000000 0.00000000000000

0.00000000000000 9.20510958242598 0.00000000000000

0.00000000000000 0.00000000000000 13.47260834061245

PRIMCOORD
 96 1
Ni 6.6362027767391965 1.4928754548022767 4.7991455159220004 0.8840727935668903 0.722135460497724 0.8477909284167205
Ni 8.921785441881608 0.027016075893298155 9.793656593985471 -0.6234313243565909 -0.21413895477338604 1.7185965725610595
Ni 4.602039267572678 7.094893383493446 10.36420769147377 -1.1818456204118484 3.672928595119358 0.0902493205055607
Ni 2.472676515880525 4.599710374867303 7.45493283165678 0.2638288657993456 -0.4961360068413262 -0.4457796658759613
Ni 3.840132353644337 6.484557802714121 3.1929680502368147 1.736458797553461 -2.005170702476721 0.6862464599105987
Ni 3.841108095252123 2.9200908634881966 8.630135354803578 0.1624505252601589 0.9925522639272325 -0.6922427867033497
Ni 6.657678297219984 9.133245217485836 13.441647935348785 -1.0799931684497206 0.17270254200547033 0.0921442235354284
Ni 5.032626675000805 5.164922508841304 9.80668458547131 1.4364709653350554 -3.5164031770943827 -2.7860116472354535
Ni 8.679663446508199 3.8492730273851956 7.331227206008596 -0.9802544203964859 -1.7921224096643522 -1.3657800265773963
Ni 1.1795519373890488 1.3443510129002134 2.910015871132336 -1.7000751167181043 -0.9785531214346632 0.16181366300710842
Ni 1.3522950224051085 2.81444382167165 8.659303585299709 -0.020326370262177897 -0.1953264500525733 0.0955067122497581
Ni 7.4143843242766385 7.274135275821737 10.572211868968916 0.6121801769228038 0.04204987798219855 -2.518216340589192
Ni 4.028791072998709 3.0462284790682386 5.944060467256566 -0.7456502557902126 1.4336838895082213 1.1771502718187081
Ni 8.504867622071986 3.8574195492992533 12.709249840968349 -1.1124600307291743 -1.6030072306288135 0.8490561682823894
Ni 7.547232464687582 7.15206631864397 1.1330909881722973 -1.2726783242247048 0.4369080744179444 -0.8821411237618162
Ni -0.050749609736253844 5.625306855744917 1.4506230816523134 2.842594171616188 0.7600016394158782 0.07403594397049185
Ni 4.236062523777064 7.929290534792642 1.6372852127545277 0.9034635393886763 1.1934261261605963 -0.7302074388725812
Ni 5.943463055649535 6.8581931976199 12.216866692395074 -0.26070677523059615 -0.8088533708112585 2.193192648448081
Ni 0.42884856224217655 1.675283904801117 0.335250088259879 -0.6570125027461459 -0.07041094562339487 0.0632769056817749
Ni 0.5590806105311144 5.699978704069029 6.130710631716421 -0.6088022615895063 0.6760029278057197 1.1264707431859697
Ni 5.737121320931428 8.70514318962471 4.6040349353138845 0.1996361331715207 -2.1569838026276913 -1.2850221905020385
Ni 0.5976306886371975 3.439792936057561 4.505954493512429 -1.0191513545719997 0.09195704722528679 0.4633032765820214
Ni 5.591422847648141 2.1328422830859552 7.220765891919674 1.729596780326305 -1.1097104930084953 0.20489018248160845
Ni 8.701148172098494 1.7047954858818741 5.832480732362494 0.5127407052775427 0.40389151028260767 1.2163742503163373
P 8.635534151529674 2.301995375394125 9.542904808448863 -0.4790769944765104 -0.22311673279196415 -1.6383755828257782
Ni 2.7162345083370902 2.6279667132705344 4.21566031906484 -0.49625093515263563 1.008768725786095 -1.5739709912974635
P 7.372602332222504 5.140317251127997 11.016929119490916 -0.30895506871402273 -0.688162445986389 -0.16151644348166377
Ni 1.5545865089399546 4.303204592524114 13.352957625755838 0.8161951558883105 0.1306099837107944 0.4705193347144864
P 8.872400029374354 5.221561547640399 3.779120887829223 -0.9766263367255954 -0.09519149500218445 -0.43239450281830694
P 5.999199993716904 8.895560084894997 11.203376771541608 0.12753108767515456 -0.1740423438628164 -0.020616133588454814
P 5.903687777468016 6.3229713104210425 2.2559072331124232 -1.3378673593275283 -0.7104932482731054 -0.7969116250683502
Ni 6.6166511241454575 3.1680304880702903 9.487275570162732 -0.2030752407600567 0.19757899353217584 -0.5707005696217785
Ni 1.8351674518353247 6.823103320177653 8.056956198550914 -0.4838458766200635 0.9273002367969578 -0.7625799416660157
Ni 5.220861959317835 0.6399474975537128 9.321023928371298 -0.3172239935910343 0.8423705287320976 0.5266765986323445
Ni 2.295220414796671 9.24064123010879 1.0265574943101872 -2.2710811333954437 -1.093018377064795 -0.2999855182255608
Ni 2.7427268134994174 2.564746021173641 1.5919500484305327 0.2704209171945665 -0.6861796112284053 -1.3859253911770195
Ni 2.843716069905214 1.1800766286309712 10.14527796950428 -0.6168618986691892 1.4485219829623182 -0.14414864162717755
Ni 8.425482757680081 8.553884830198946 12.167785969012515 1.3871366378763015 0.8743630224782941 0.04078258123400073
Ni 0.5419232069202525 2.1249074786905675 11.310968852997071 -0.8559315552459839 -0.5949260178280463 0.2118308754654997
Ni 2.0969607662260703 6.645555167998725 1.40612282076064 0.5374934867421904 0.810203971301882 -0.013923809169943763
Ni 3.9999422598024856 5.106911908725605 11.728269605362202 -0.20319531127768875 -0.24837987823412705 0.8223897147347966
Ni 1.5820913761480961 0.5935298123516463 5.2925660803367585 -0.6290193599673296 -0.9306966640730165 0.42997818006733046
Ni 7.3524891679488125 1.4746861584156343 11.090233088542226 -0.8750279097558027 -0.32219110778832255 1.141331462347886
Ni 6.012105557246294 3.9939957590606987 12.380855718269588 0.9781543433343476 0.2884258384124194 0.23715906981764318
Ni 0.5021396441401764 7.117123722953842 3.259266010442035 -0.4967579566960412 -1.272350508571641 1.876988868591445
Ni 4.986407820164098 3.9258871538153706 1.490003460635965 0.45137695745808065 -1.3341073780644637 0.41845321014686643
Ni 6.203461373686337 7.9561694545542805 8.408227779908442 0.42506223082295186 -0.033720017960264505 -0.24566247930296403
Ni 4.495315227943765 5.888011475976897 0.5309608420078777 -0.35258308981661857 0.5867005445944605 -0.43780744630376217
Ni 2.8750686728874535 7.7765961782837225 5.938793303596426 -0.034832791408469045 -0.3274217600596426 1.2063078672192709
Ni 1.7516034677270549 5.6763215726349845 4.2692404999746225 3.132906428418043 -1.077434406583609 0.17311109029779864
Ni 0.3307009231413169 5.154355043126797 8.79250704293764 1.6714754507035405 0.9688261239548863 0.5384013432684405
Ni -0.04296024607108334 8.554317470345795 2.0271694669627878 -0.7993364324597588 3.964096000832657 -3.5167669881917045
Ni 4.401966212429118 6.764135388673184 7.738707027040271 -1.8470280605632965 -0.7091164225302368 2.261874012974879
Ni 7.083202894419035 2.2478785366000604 0.6577639870053054 0.48759505924985064 -0.801062156901614 0.6133646841492081
Ni 7.38839830013722 8.484892534440906 6.350381365001258 -0.23051868168299008 -0.605200660281177 -0.8172451944193796
Ni 3.2119848859681737 0.905681519324581 7.599413468952239 0.3604550363655276 0.421771475886822 -1.3916399250632938
P 7.146322330311347 3.3877196315741416 5.777727820501467 -0.6902694650270628 0.833523619864429 1.2856330846131598
Ni 8.44937001685181 7.2287540859502055 8.071439517849875 1.5683544164416345 1.301507075530939 0.24351920770771607
P 3.3404421891440825 0.849657381840581 2.929928364018766 0.21433770104775346 -0.5948851372877819 -0.8840529960725485
Ni 5.016103503435004 2.3259010447848687 3.6142021458944615 -1.3152938449023865 0.3486511017520641 -2.4213250892870817
P 3.89439647419052 3.3545075964714055 13.005149006595 -0.6680854727308558 0.04924331040684422 0.801654024849342
P 1.6689599945695262 2.514789891876926 6.253391728676431 0.18620520447759545 0.6106567982997418 1.396202090512679
P 0.7487371637560895 7.709951185450072 -0.003201537086677263 0.7968656023217631 0.9330613076504511 0.5986870275323753
Ni 5.59401868852923 4.59425174492941 7.2160768091366 -0.40078741743598717 -0.5072228607831071 -0.2017668063612783
Ni 8.442171621217016 9.077140075038171 4.358456421320443 0.6333537256766253 0.01009106568741488 -0.9101643484476196
Ni 5.297393239762444 1.688971902638636 12.63137829657946 1.3978663655889798 1.1147444558879769 -1.6978922501341727
Ni 0.7170761896053521 7.179184571252801 10.217909045050598 0.40557815395641117 -0.9476582316280195 0.33574904897841534
Ni 6.890917361918743 3.7692438053277715 3.506246462613457 0.9493813849667134 1.616331201431229 1.022003222198498
Ni 5.99150452216871 0.39330855494501654 2.290936356831922 1.4058018183859726 0.11326712155697267 0.6785925429097668
Ni 4.289139185196791 0.8924878358676099 0.8015717307957717 0.6183960759255286 0.3701347255471367 1.6633746759732773
Ni 2.3826413397885453 1.6786713850998438 12.556807704459931 1.809807485648941 -0.2903215127732355 1.3666775986910011
Ni 2.341908730218255 3.4959901296003 11.159711414082256 1.1347682073080716 0.7887517149653771 -1.3741579662284462
Ni 0.4832894208909019 3.40730810460591 1.987802895643397 -0.893247775197939 0.019697735539243495 0.38133136559390457
Ni 1.9113305278996362 8.770646748879441 11.494897066575584 -2.054110879820849 -0.32780485443067414 0.48722044951925125
Ni 3.038882801681325 8.459191868696218 9.154394877090061 -0.14947519604641352 -1.2425493660498084 0.19431112141418147
Ni 2.674516952049508 4.633437896102454 2.363257220187841 -0.030272168620980124 -0.03944252226633852 0.15975163827175715
Ni 0.4728756805051687 4.697229304988807 10.981657901391374 0.23004354181878445 0.19755122561803395 -0.8010120203899689
Ni 4.707281284570899 4.5474345579747215 4.073631922942156 -0.4772980481992167 0.1816846908994226 0.6728571830878863
Ni 7.292020803594635 5.43638118821483 8.725009656963604 -1.3304903501371668 -0.30404374745533447 1.014047714796847
Ni 3.9724742130323736 0.8473993684784132 4.985687060089668 -0.8240498760460389 -0.9998187156816586 1.3579813564685839
Ni 7.71540061027846 0.872141782323381 7.918000467981804 -0.6852735544743682 1.1411689686280928 1.0682326854796826
Ni 8.85329022203697 6.192553318920056 12.471175332245345 -0.38049267174269313 0.2603576194212935 0.43938790341700457
Ni 0.8743758624008297 0.5169598704471068 8.037421115154288 1.0369950676216397 -0.701269158571676 -2.0569879442583283
Ni 7.35022471100999 5.871589560615677 6.224655217816197 0.5195299602852342 -0.47778732913080946 -0.2741320474975666
Ni 4.498573836709388 2.6795153265120315 10.71314853910402 1.3215285129581884 0.38033763422206757 0.9482927798882249
Ni 5.214998304561615 6.749757007622608 5.741258097144059 0.8570129612356209 -0.21355042925976772 -1.9137589862319426
Ni 2.5190978831263937 8.032857221860514 3.7299453518187358 -0.7648872496429536 2.884946154219838 -1.0165283151268558
Ni 7.304097907268358 6.90696186779016 3.7014914378203803 -0.051751421540678605 -0.027989029013758247 1.0817816278087111
P 5.068075551713841 9.185677521240045 6.649028255815871 0.6062789809470204 -1.0362643601032024 1.4146019331761057
Ni 4.0226512649572665 9.017757913605868 12.125441544767478 0.7678800137226905 -1.1621954502810887 0.13245372178775253
P 7.766442942497049 1.9658615966215343 2.9435362774035703 0.9117705165924749 -1.9654474157451698 -1.7852200261175644
Ni 2.558974417512495 6.524636849509386 12.55026011006731 -1.3831462857699857 1.5147993660333139 -0.23059041546118997
P 3.4623546594602237 5.49300181679491 5.73984327181277 0.42292333010307814 -0.07198908874379215 -0.20974725346359357
P 0.49765491478816615 8.01314908240515 6.4121264780441125 0.2317255575068977 0.5647906318952467 -0.5202483265084976
P 2.8498926983846866 5.592343358598882 9.506690066624811 0.1576212221923156 -0.1873146354916903 0.7546192920580423
Ni 7.468639239713315 4.418820767937186 1.322020337746187 -2.9369058351165807 -0.3318918800158542 -0.3150727515759864
