# total energy = -340864.78743841744 ev
CRYSTAL
PRIMVEC
9.25915251442041 0.00000000000000 0.00000000000000
0.00000000000000 9.25915251442041 0.00000000000000
0.00000000000000 0.00000000000000 13.55170563433027
PRIMCOORD
 96 1
Ni 8.725788052263612 5.453103649714383 10.572850966563557 1.7863808791948845 -0.08338498928555962 -1.1757976144455557
Ni 3.861353525719067 5.5274268648973 10.853221800626693 -0.14883576269020174 0.11450922149418988 0.1398674977533204
Ni 0.5175014270767863 0.7980991103702675 6.069361342955111 0.43561300975560463 -0.4827001930513945 -1.5213716199341927
Ni 2.212779984310327 3.088834675294713 4.519114443045494 2.0234232209290055 0.8258900145785713 -1.296038081996568
Ni 0.5718322807020907 8.741898977194255 12.103149948846406 -0.749238230251787 0.39981836865449855 -1.1725063452887938
Ni 9.316373819951062 4.102174816823151 4.780919750914128 -0.9283075950155496 -0.21900682438864863 -0.37852089272830297
Ni 2.68611710694218 7.590227100916499 11.909048488210736 0.28240560036026846 -1.1244493418805668 -0.39917533575386094
Ni 8.222840160707507 0.7623356347699166 -0.15570468213286195 -2.281025646202665 -1.4501708314196509 0.6118029960890431
Ni 3.0393167290136316 7.91472335098508 7.304735029738915 2.7798320007873025 1.2763251769486728 1.0589756856577892
Ni 9.56164876329172 8.395865938971262 4.085052792465826 -2.7835274473610188 2.785570188822661 1.2961036451271808
Ni 8.076471481797384 6.401722316952478 8.118894139702402 -0.1497608456076324 1.049055855440916 0.3001613816817927
Ni 2.553544564897954 8.005203786859935 5.075276534464469 2.1352137579404515 3.415963032098749 -1.473802611905978
Ni 5.176032777516352 8.49741106179561 3.658784570342551 0.6622524109888466 0.21590864507929913 -1.21295648288404
Ni 8.32295937408397 1.3445029812234925 8.30001334295574 1.916052924472442 -0.8234708636141173 0.44028727530282236
Ni 4.716602901577502 8.81449073090474 5.7776073071047716 0.6896806824031284 0.08450521893293188 1.5215562251411732
Ni 1.2601150675350532 2.9761044965415038 6.606957908179584 0.011868726413127946 -0.2670563715977078 0.1727655340329218
Ni 4.482846343647028 7.857751787135512 1.2866286500286725 0.016495940772494173 0.2824961031915458 -0.7649484418981923
Ni 1.4418907446835547 3.8010394079040033 11.605748289493436 1.3310104843066948 1.3172800220944798 0.37822650141633574
Ni 5.298012849376293 7.877214525183909 12.113585013442286 0.36984547644149207 -0.3314712475386678 1.2810452081321615
Ni 2.0834574047090064 1.1995602117612554 7.81633930274195 0.4383352937827741 -1.3887983418494405 0.6950951685504803
Ni 1.630444121285637 4.356653357509246 8.455559693584974 -0.3308058460405271 1.419988908519632 0.6520484738726512
Ni 0.5567222701306441 8.558965906013379 7.872862723622184 -1.5766984175309555 0.39932291707531875 -0.10986092408890114
Ni 5.49119580210787 7.2965267912613205 7.812734714767525 -0.9718543692582488 -0.08975412603669704 0.704112284447426
Ni 6.1572992156196475 4.86695301595899 7.7099442359643415 0.43199803871083664 0.8155315541623825 -0.32591329383491613
P 3.2775269391806803 3.784419229599115 7.054259220574382 0.207770589353197 0.7215466778737896 -0.6817213183467355
P 6.159058454548855 1.8826819471250567 3.1903835017799658 -0.16310152858059654 -0.4922942644977328 -0.5589917658252825
P 7.8936310021391 7.745012349230042 10.495280566683412 1.0896340339735944 0.3785244922727287 0.1636661428348149
P 1.409455934320311 7.092260633275731 6.456980937634134 -2.2943485885638166 -1.423410275496355 0.9709030610885733
P 3.3942663308620324 7.3708129698352005 3.086834698406771 0.9593081571621221 0.24492894357104913 -0.5619606186456193
P 8.088499120581814 0.6717431631527278 2.1667416274481743 0.36571114255814435 -0.8325440295599791 1.013735068652435
P 8.59097479537271 2.815328576716393 13.33913288784885 -0.33063846722472734 2.8756914683907895 -0.8695874554665218
P 1.885931909567962 1.0737190734093154 4.192883953758804 0.23360657657969444 -2.501470231479105 0.8481537110727779
Ni 7.062964675528284 8.61472452091702 8.653739810790729 0.28783088514089783 0.606844109421871 0.41670408866624364
Ni 5.1089224419431885 0.5252652262459498 10.438445112372051 -1.9641153271973077 -0.5758882844703049 -1.232507408432774
Ni 1.9957454553595895 5.150764551001567 5.638403360212656 -0.03199429351840941 0.01554668948534742 2.0904269406430642
Ni 1.0567840839276217 1.7411835823031636 13.247144136071006 4.150442615984123 -0.9701520418551615 1.9397872919749044
Ni 1.8391639315078012 8.808101915846036 2.432151523291233 1.6515817971034075 1.3350016077439588 -1.0201502281501593
Ni 3.573393890464463 0.29931876324593415 12.935251444057364 -0.41786442752293196 0.07020422892922748 -0.47557129531609715
Ni 6.998400606826343 7.978241135481754 1.6971479800746305 -0.18433575536902447 -0.12676592737435588 0.1934207483894282
Ni 0.10827374877095722 7.315554349153546 1.9310776841523478 -1.2850941813905545 0.260532454436261 -0.3162708856491456
Ni 5.623277609082369 3.1173528642524033 6.142947529618211 0.21049493026289554 1.6113936549202958 0.10897106528478008
Ni 8.12210984328195 2.4160276355474273 6.213781896229941 -1.1694552171672956 -0.7536715834327924 -1.481432103426778
Ni 1.1444034417544489 4.115128370833479 0.6156456632764078 -0.7620284400379199 -2.142854819425477 0.6254033604812971
Ni 0.28366431452165886 2.139503053332676 3.340834540921076 -0.815844457417111 -1.1173731517600758 0.32391348979606793
Ni 0.8333718509008917 5.767942603976837 12.652536192642252 0.3468587857383317 2.6125670848576363 -0.4854183633135059
Ni 3.1776299454584316 3.548431215974224 2.096015592917875 -0.6526246580910954 0.0667707777676463 1.5074632373832166
Ni 7.308369247000569 0.7632837719612373 10.745553600413473 2.0843815057799326 -0.04101269496693582 0.25629219110266827
Ni 7.413571734967219 0.43748938874594573 4.725926867902306 -0.6248246051596917 0.32275237960843123 -0.5263148444175516
Ni 7.28386953012328 4.711204815810511 3.3732360183361876 -0.13345850890318306 -1.0474674279078733 0.9943558927948746
Ni 6.491276837601434 2.595210750063411 8.810830588016762 0.2848203804493482 0.5769416654354838 0.5775592444148248
Ni 7.9414360052522674 2.843948616348932 1.8489814106480087 -0.8209902632841086 0.2537419138769888 -0.5124149465070078
Ni 7.969435681683454 7.273406688070621 12.786562421591139 0.4219697079405572 0.37220909157766224 -0.15625802329620186
Ni 3.436562138381101 5.446770389569234 3.8380463876527364 0.4208821313033332 -2.0645945529609926 -1.2885536006940648
Ni 1.4184002754024958 6.5949793429021275 3.8893800536918057 -0.5700421101021731 -3.5014313862758986 -2.324825416996435
Ni 5.5636116319254345 3.347989087871598 1.384699738925448 0.05978714736096154 -0.1272526372027873 2.043020940555275
Ni 1.9579773732951673 2.439916248375623 9.759287220090325 -0.5319522452089871 -1.2736553434259936 0.24775998526194107
P 5.244411616948996 4.24343244368631 9.549981305530167 1.0502550179553396 1.4186367653671117 1.9092837240694085
P 0.7914112246935987 0.18624136628301263 10.054552326477273 0.33785555379845683 0.3913406702007905 -1.5939453775368613
P 3.14921360717559 5.215189732419623 13.499368999097264 0.47353652427425535 -1.126907573613072 -1.5892256034636887
P 5.945153519061656 0.6900420257621707 12.472759566466467 -0.13584526396780475 0.31576000745099814 0.5589693972277793
P 6.288881028372161 6.3036215987684745 0.12549577197267955 -0.16145807943990256 0.5196677714146793 0.19082779085127136
P 7.970750481304232 8.794352074741436 6.6410130701881505 -0.9423949263465511 0.1349057828726709 0.1654972825062827
P 8.951637294164907 3.2532494419576072 9.06812391098959 -0.25931375153781144 0.5697703444980251 1.3394475593304542
P 1.667832578107441 5.655166129462333 10.359371026165046 -0.04788833904084656 -0.23907634144501408 0.6099327756495239
Ni 5.052515686381418 4.589067338362167 12.813055633949789 0.9369192479439605 1.8268341021139245 0.3313786878248616
Ni 4.865036371441378 3.4059606401651377 4.026794206452258 0.22907577858887646 1.2765059255009112 -0.5629227254485726
Ni 3.8622794409449663 5.664767870354906 8.275009928195564 -0.701730928699443 -0.7025819638458287 0.4097914207068104
Ni 6.44930510041143 6.649145383617222 5.825553049332276 1.7418069492392518 0.4864948842071364 0.3292135618527427
Ni 6.602182963359622 6.164456540315847 10.768645926147396 -2.7615789681143856 -0.9854940715288705 -0.07420769366166576
Ni 6.468064142888146 2.787727043832342 12.991504497691635 1.0241022708193717 -1.5836967032256597 -0.05732120231897225
Ni 4.1365633083130415 2.6485064304661607 8.83034517731781 -1.5649908992860404 -0.7080722975364386 -0.7312129973189601
Ni 7.3777851114862205 3.4364139919449572 10.853899570572052 -0.3513067942073563 0.0801274015802104 -1.0414147939558904
Ni 7.82264108176942 4.8324719329465085 12.657645392858763 -0.22759867982271767 -0.21071964467919194 1.2044787844303322
Ni 4.788213185148534 2.8428004814688177 11.3966720019093 -0.17030087454251316 -0.3871577424676945 -1.7114201094172783
Ni 8.851851410269768 6.3281953888638345 5.500840135100835 -0.1200013549570127 0.21962826002273142 0.906838112287864
Ni 4.962627836251138 5.432696478135568 1.5891538577018949 -0.8493351329753889 1.247854837423122 0.36459091291077206
Ni 5.0630618608044085 1.1878010883923373 0.9403733921514636 0.7680026553434838 -1.144976772409957 1.0614439446926236
Ni 6.229400234260406 1.2240228920295082 7.046520421116317 -0.6102047983639879 -3.296905014891612 -0.21406876365708294
Ni 3.754215874930288 1.7965625719641858 6.217982773609845 -0.5382108245241892 -0.33751822506369616 -0.4446990312172728
Ni 8.659964738854448 4.3204963679378885 7.176563362763388 1.0822230862215039 1.6769369880387441 1.8750661976474352
Ni 4.021333158449905 1.2499762958114586 3.5964464018436715 -0.8542881061052902 0.26857897888982135 -0.4513574170740549
Ni 4.247432397462195 6.117179308881441 5.889611568320876 -0.20141122279407245 -0.00743305923927752 0.5443884140898108
Ni 8.345301708484914 5.2758001431069745 1.4516721131299521 0.12538730185927438 0.24024259383897334 -0.8645542639179884
Ni 5.712295098900304 6.267788679526181 3.689221255648304 -0.5176327432625215 0.35599005861563854 -0.2501130588751499
Ni 0.15200102122926576 2.0609206281106234 11.311418357484646 -2.481579920313081 -1.3145289417119037 -2.521921814465237
Ni 3.3360910772187955 2.9645583336745425 13.45414637354913 0.4989112555936182 0.48597526425824045 -1.0795905336946634
Ni 1.8660339913633914 7.377636965050077 9.124538999788394 0.9674706383682564 -1.1069619837290807 2.6119068255658178
Ni 2.062818754323717 6.0943740168675475 1.386149722169206 0.46214628015944276 1.330460525340496 2.185335100076875
P 1.0057106000670302 4.194145976211704 2.859884543301881 0.40179143322046934 0.6210551108149304 -0.556007743496294
P 7.964556108442967 6.898309170906656 3.5896705542205423 -1.1267743904693175 -0.3666879046491169 -0.562363767621309
P 4.220756779804042 0.5682286186428916 8.20836255023535 0.39505385738631965 -0.8926006285322434 -0.8704580309969332
P 4.554067742823182 7.5380517779370875 10.133531969331235 -0.14989171475854188 -0.13737609879003437 -1.0759056286439084
P 2.8152452443460616 1.4035300768745569 1.2407467728396968 -0.0650450533257912 -1.0185237482903298 1.544855819099062
P 2.8042731489191577 1.9177093201208175 11.682680733782936 -0.435081819842483 -0.07266117511015227 -1.5034559159960366
P 7.255323563708812 4.475577909123721 5.665506750705174 -1.161416406023219 0.5185799376671392 -1.380709908414351
P 1.3053182488634447 7.844594531775486 0.2507526578170771 0.5280215426960132 0.17927222480318802 -0.257085376427925
