# total energy = -340865.8993682166 ev
CRYSTAL
PRIMVEC
9.25319753600400 0.00000000000000 0.00000000000000
0.00000000000000 9.25319753600400 0.00000000000000
0.00000000000000 0.00000000000000 13.54298992148235
PRIMCOORD
 96 1
Ni 1.4211153141689188 8.554294172940834 3.333877991313355 -0.07196234927091477 0.07918226405812169 0.19799628357525254
Ni 7.333205227570071 7.416918904699965 10.154113713074878 -0.3465916481198741 0.04503981384845791 0.38975121422648357
Ni 7.387808345591901 6.320507541472252 8.223113909119864 0.9857267563649668 -2.0134560824139647 -1.0481888794549303
Ni 4.271683073389263 5.8659627242232455 6.787719060680264 -0.451199551339952 -0.0047241449485467026 -0.9855786608228767
Ni 6.859154670143123 0.491097723048302 5.826871666369487 1.5659599480675288 -0.5571778525449952 -0.43154758143697936
Ni 3.922633960015343 0.35067027356328156 13.126272187776339 2.4627278206035843 2.4363341611014038 -0.7114237305071748
Ni 2.4189246056053024 4.411443367339734 7.268847388819784 -0.46797908479113604 0.4651871238682956 -0.4925693725359904
Ni 6.122239280185391 7.186079388467019 2.8071499062493164 0.7268326088630773 0.6617960401777182 0.7813844759670285
Ni 0.07421989656890435 9.094292268436174 9.97201448897347 -0.022854278890354192 1.0029402920297759 -2.9035964223311734
Ni -0.0431828217563599 8.867505652676632 5.552639280798569 -0.45749746853352175 0.17384925401540383 -1.2760238436581701
Ni 7.407110515426427 7.21710535944265 5.968016238655167 -0.9056111818592983 -0.4024568347186101 -1.0767270961039392
Ni 2.114420384649124 0.5574496258442929 5.33956775426661 0.8576567654672068 0.9147447687294503 -0.46748337610164004
Ni 8.487199238391385 4.442117716813106 9.441251084511137 1.3821888069527228 0.6269308528694171 1.1230617175044209
Ni 3.5372105275524865 8.780109202970449 1.585762082601633 0.1487429458660793 -1.3877030519027327 1.3794948050603275
Ni 8.849600715653715 7.0147009189055325 2.0971048763023603 0.9375779645738821 -0.5721799823807824 1.4113651714063629
Ni 9.06639387819116 1.8622615015423778 0.4355341231334589 -2.062541527086706 0.08168986097132383 -0.6202043327788609
Ni 7.929610814585675 3.3928421412829386 12.086224826040981 -0.5826788250295772 0.5970237808973395 0.24684595808810392
Ni 5.87655763527815 4.706157705417231 4.686632533524693 -0.004234092686005612 0.4999456103954035 1.5055091989806395
Ni 2.17277104762924 1.0924509947285854 9.627697460764159 -0.7792417185924128 -0.35554834309252964 -0.8363222656554887
Ni 3.4191952475574974 5.968062504642306 4.404410937294557 -0.3115161445729796 0.6294027114486773 1.1831584256860013
Ni 4.671310163903891 3.71722223031417 7.497602159672232 -1.316136909628972 -1.1707410258582545 0.5680469340490152
Ni 7.729094026323842 5.078071469635405 3.494700413249132 -0.16563817895952118 -0.1044243264543621 -1.8148141948349132
Ni 5.088064922857499 3.8166293302817227 10.837262474058258 -1.9080025433641399 -0.9865381965226686 -1.3100413382541953
Ni 2.8936784060367664 7.92412366851095 6.641156741300569 -0.02549351628541416 0.5635930120427197 1.1701923524436362
P 7.976959425824059 8.59903338250456 7.63315409943251 0.10365119573376343 -1.1411738537240992 -0.7294883013183695
P 2.3322776648907757 8.422325071224625 12.979344367098244 -1.1900908911397763 0.1303356470034852 0.556427347532216
P 8.16864866373971 1.2944482945788762 11.94319722807873 1.613027590979293 -1.2475303642041677 0.0648103116071658
P 1.488774693761467 1.339048706181185 2.4275948515952113 0.18644611684380794 -1.3871806037403593 -0.4833267708917999
P 5.05417046067923 7.330947447397671 5.482202091338176 1.7914030149998246 0.09488964749104947 0.7622917210016356
P 7.291436294380689 3.066185765684452 1.6522851695500391 -0.1007327365353878 0.3024938864697113 -0.26490590091360827
P 5.117869471772652 7.953391531975288 9.742826668481397 -0.20121376207128572 -0.323041885824392 1.0420987073967922
P 1.5710541252900416 4.43044018165914 9.866528963615552 -1.4685822440473029 2.5175146865364773 0.0582596549728416
Ni 5.599100510403622 7.683050115922787 7.689506071768208 -0.03229228437480245 1.1195506190273685 -0.29605970080859334
Ni 5.592836095744957 2.345047077341229 5.876086647529072 0.3718064568226048 0.9705806447521477 -0.832247838475799
Ni 2.7122694704634753 6.81072343480568 2.3927621151977565 -1.0519540029243175 -1.6610113179474233 -0.733644232468272
Ni 5.418552122191121 2.712870928296286 3.2013592496699306 1.8530087036267635 0.5157170142970474 1.9194732630079006
Ni 2.9369463572094627 6.310153213550471 8.846863619854552 -1.3874935069950878 0.45567481350248623 -0.8749451202340093
Ni 8.61766932212428 2.576756394132394 6.789385561537022 -1.4599592782649824 0.35464588588291823 -0.08198785182771687
Ni 6.485288481267671 3.4496937862797403 8.921850606490226 0.3835052333167718 -0.7021487329631521 -0.40981764595905557
Ni 0.9309364336252037 0.6129466027376553 7.404264231897616 -0.18516827857264884 -0.359480074046768 1.1967222804133648
Ni 3.0098337933487542 1.8458555825027734 7.479034693713478 0.709856386020055 -0.6504873000331184 -0.766049645382171
Ni 0.6072207241692925 2.7371235587547202 10.744195664968279 -2.197315155256887 -0.4600310335886528 -0.5370404583651719
Ni 1.7499184315706702 2.958968967087781 0.8641958965372426 1.8276072328345236 -1.0114750689736645 -0.39476460828067494
Ni 3.677970166825167 3.78600124679549 5.235273115417659 0.09416433928925073 -0.877821927561172 0.37605366213473296
Ni 2.555381508074026 3.146077872276637 11.754963134082645 -0.3744495508724067 0.8726000170406004 0.7311389495479149
Ni 5.054762665314613 5.638139750351784 8.94890973172853 1.8122839722138915 -0.05585747328925218 1.8610500858740011
Ni 3.7489699506891747 8.211185612315603 4.190282695616335 -0.9238624147600024 1.7614728030992954 -0.844660867428171
Ni 5.772829292111785 8.73542551259129 11.676413666437243 0.1132943752504823 0.8715906019394797 -0.49930463437729494
Ni 0.7744602385212943 8.971881719662948 0.8654635845848601 0.9910502254604092 -1.17686590780907 -0.9092446648468275
Ni 0.13554361188259337 6.331851961518815 4.500511869821134 1.272804565389924 0.4739023922541064 0.3828660570708761
Ni 6.384141780183679 1.4544730908963717 13.084979794254492 -1.6740984901486844 2.4675856629165183 -0.609801392277982
Ni 8.848851206662056 5.621826363286457 11.991559064435465 -0.797625106195607 0.028729249613892456 -1.2432638756183299
Ni 0.9878250914117171 2.840602065590533 8.380239678683209 0.3546628551637827 0.8015558087085809 -0.3855474605577812
Ni 5.8141263122323465 0.8385848966963981 1.7305912781030888 0.5350889910657559 -0.4478406621700481 0.060914061876553155
Ni 6.750429600365711 6.823816709166108 12.436053058638326 0.6817907381320903 0.04946596794061158 0.6320720307507243
Ni 4.929937032012716 5.999939769781301 1.210356161674183 -2.197805464629744 -0.8281582417874576 0.11470899620982182
P 8.697163541227068 6.942109585083933 0.09701052183373558 -0.13094756955587125 -0.03877172145155903 -1.6561311070369866
P 4.681016768005723 0.7224110029895544 3.515001928405868 0.6009858508688811 -0.7839195836840563 1.798174015175071
P 4.8138649234775786 1.6776694660539009 8.733142748785834 -0.6261672352305152 0.5816976920632305 0.41001176424773256
P 8.019968287468776 7.9189973971359136 3.826584845394363 -0.6500062466316419 0.48120432523215834 1.1374884344527119
P 8.432013168931599 1.9244985074421972 8.975819880488247 -0.023115502971540833 0.4978640452760264 0.9026323017366327
P 4.275227048004135 4.504493520674344 3.19889512319489 0.09715041850076817 -0.19942093183692108 -2.15334980541953
P 6.562645211764622 4.341452181995364 6.939590864744068 1.550605834208962 1.189270709231326 -1.2403042787693734
P 6.823603885625267 5.054781171709469 10.844968536876184 1.2247280215976712 0.9932107234468377 -0.9802029983332602
Ni 4.601494789310651 9.542174783537119 6.543010852142435 0.07465532272204561 0.2584997402769484 -0.2035452384179398
Ni 0.540074897033991 7.44007965786191 7.70889984825727 -1.1661711470993852 -1.3226109473890901 -1.2657407165646073
Ni 2.527094483537043 8.23027495860929 10.794955004778576 2.0958224006270227 -0.6209787490510402 2.1707296914588747
Ni 0.86733643174426 6.664078761968876 10.356527406809423 -0.5584132676139931 -0.73624773152939 -1.1288613549053332
Ni 3.150084506762903 3.232317672304338 9.370949917052934 2.043727993924629 0.3131107427536091 0.45237840213940156
Ni 8.703946134941692 0.44646862653396685 2.6238052017741156 -1.586906725522525 0.5361066336969929 1.2494854310480095
Ni 7.133697037827875 5.481177762382911 0.967902957349524 1.3060792682826539 -0.8427068290255938 0.518935521234345
Ni 2.2909436319805025 3.200588458324189 3.2493962987969485 0.840433973831017 1.1098732438386048 1.8024880691693925
Ni 4.067548284933135 0.9887041451673643 10.844088557800797 0.9082933566771519 0.8111575934644031 -0.51974541873015
Ni 0.19690063870702273 4.501763827433123 0.34898619163141015 -0.1204662104085732 0.6440615990124328 1.3774379225312987
Ni 0.15138601119884088 5.088962483008002 7.277785977535102 -0.5225882874955838 -0.019118208886689653 -0.9575554361370735
Ni 8.686374313026178 8.388911775312604 11.885923637279218 0.07714337925122197 -0.5319306479424323 2.2581567120242916
Ni 0.04048644002588007 2.9983320689459183 2.653762428446828 -2.14516778382937 -0.5847303082419673 -0.7693334583397653
Ni 6.742222014247195 0.8839015057796237 8.294702196340284 -0.9555535752156963 -0.24895631956288738 -0.3664747601970463
Ni 5.197548754823996 3.370227326769237 0.9669656084500813 -0.25190023268255973 0.22389654838078213 -0.16353630212516998
Ni 5.7875418760220905 4.765674271273258 12.698693038471616 -0.46603918745594575 0.06538932403908738 1.0758315808728633
Ni 6.485251468477959 1.797803728259871 10.624543494348302 0.2638630614713907 -0.6423818973171647 -0.2059703029196646
Ni 7.459677930014128 9.041956183784169 0.46709400360067777 2.4867177557602784 -1.912531541582745 0.260962342884828
Ni 9.353779683905788 3.900583590544741 4.814694935286857 1.359383121912117 0.31400805775689794 1.7018545772160303
Ni 1.837657249581685 6.404563586906978 12.852473777164787 -1.3464142204562746 -0.15467808040359168 0.44522327915185905
Ni 3.6469256894546804 1.7727183100329291 2.072551516927521 -1.5053618747694977 0.6034199142316704 -1.7492649481791938
Ni 1.3650224313612018 0.9314453594837363 11.857374747255024 -0.05765287462677812 -1.0281990665965646 2.143398093523457
Ni 3.0397863934227534 5.578382601362631 11.031712866086384 0.6150271594532956 -1.244917609171669 0.11000464875561701
Ni 4.248318749883904 6.948077897424906 12.547159901433673 -0.2511823806799287 0.6057089673761632 0.5364958987156115
P 1.9229069574846043 2.701813357369988 5.890279201743931 -1.3510257510863573 0.4072200604352083 -0.8776666329302304
P 0.9917299407262761 4.919851046816343 2.8954374388678037 -0.5499975327464721 1.7709946265468017 0.002882206643801488
P 1.948529061162362 8.251122412414269 8.881180953155274 0.475521158804452 1.64290149572059 -1.245161863971991
P 4.329978217184812 2.6372260393234908 12.562585906865666 2.5464627370293953 -0.9382032568627069 0.7464632386098112
P 1.7840534768820637 6.316741490119112 5.997959585531738 -1.2691160607947432 -2.0538735669990626 0.403406343116073
P 8.619954861888964 1.9235731876994107 4.761999826574653 -1.0826043808203227 -2.0498042820256956 -0.6576601636324738
P 2.710640907716171 4.61415316339197 0.04662686183901122 0.8687914419277876 0.5725610198692849 -0.5448470988937842
P 5.609417825535691 8.047922196898355 0.5308216996061261 -1.4596386617007702 -0.3490863895172697 0.3358405802509571
