# total energy = -381168.5632714023 ev
CRYSTAL
PRIMVEC
9.25003541000624 0.00000000000000 0.00000000000000
0.00000000000000 9.25003541000624 0.00000000000000
0.00000000000000 0.00000000000000 13.53836183045011
PRIMCOORD
 96 1
Ni 5.562166653161973 3.2058495860773295 10.256947293631194 -1.1814213883902365 -2.289565051132244 0.6808749111860403
Ni 0.9507094083203496 4.873769754217551 12.851181751219592 0.3028841799295945 0.785506468555202 0.6359487400973112
Ni 6.145187146619034 3.845304546693659 4.3784821483557685 -0.47169150064571663 0.5796145842819566 -1.057849542473146
Ni 8.854254321082584 8.984337571641639 4.408253387915202 -0.7226447960339748 0.8646473378524271 1.0240655040441653
Ni 7.381324903264829 1.9901636581299669 3.6518243271836983 0.9563668151456111 -1.459288477450203 0.7171776022718164
Ni 0.3974157542518706 3.9203963356461164 9.805442881246705 5.893577540006179 0.07828237795167163 -0.9029542038524255
Ni 1.7785690939161878 7.877607812956532 6.962766342655651 0.6069814063306836 -0.03200020705568037 -0.6369429856897804
Ni 8.542084119854753 5.270994032732625 1.3002867534904978 1.2625800594484384 0.43117631414048974 0.09355473072970984
Ni 0.1711210334720352 2.144815003226805 5.709370794602045 -0.37995402563040376 -0.026761070143928103 -1.605369817323719
Ni 8.561157693249674 6.117159538769078 9.850133503215773 -0.10509332749692868 0.8242337099220707 0.2510211725117161
Ni 3.88011243063405 4.7804368950736364 3.4122493303014925 -0.4960624732909134 -2.170295175024617 -0.4557390910815184
Ni 1.8731599579008917 3.3317518205478756 6.951854075665356 1.199489558745857 -0.14688635227331479 0.7871324341943993
Ni 8.848010547056603 2.648155690076763 7.774905592759409 0.6025732499606591 1.3475848437256082 0.7468113659778494
Ni 0.8454282781996079 6.836738307701025 11.571522577103813 -0.10523756638427682 -1.3886831564278148 -0.5751141253084419
Ni 3.3967148205248536 3.2444592346468726 12.125607109215581 1.8450048594856805 1.8803045632282394 -0.21993936350524698
Ni 1.7669695492812554 3.3404098538639015 4.4128293805235765 0.6955808499376472 1.2681842930090932 0.6360130176763433
Ni 9.0746456691463 1.1737647666351505 13.118916631460747 -2.4827502864720987 -1.28266577445472 -0.11734103451603017
Ni 5.941159111521184 5.126600977109582 9.351826685736095 2.034273019159316 1.0856100004158658 -1.718243817207331
Ni 3.2037960781754515 9.167895277969867 8.90089115054064 3.055973108295098 -1.5719051099073702 0.8997282407159602
Ni 6.933623180513052 1.3422541649806796 0.8090145880800903 0.021863632842310732 -0.5147063136443458 0.1203188861974315
Ni 3.3455713737253787 0.8971998024159182 13.08256584158327 -0.11251507388229653 1.2905474911956418 0.38405184984886115
Ni 4.975177894435066 4.250178604645009 6.362664733470626 -0.34407916611066547 0.6546630286773628 -0.4867697351350778
Ni 6.886188997986789 8.927477602845043 12.680638844972183 0.872261145643943 -0.043867390806911544 0.3048312763536363
Ni 8.639773745763462 9.673687224252246 6.984143174913489 0.2040854271921259 -1.9855596131140125 -0.9845437918004591
P 5.320703724015022 7.257846178119924 12.892528485321412 -0.3381365753739854 -0.7016473678467013 0.66153558742748
Ni 9.117695334800985 7.839627166807383 -0.15640700185258788 -0.21976504271091182 -0.09618599770496984 0.9852485311769678
P 2.4268300884180487 5.289133352532547 11.150046555268272 -0.25635389757853916 -0.952217825974244 0.9997616371914781
Ni 4.266171916187112 8.538365605545946 11.407437120704607 1.1337562211037895 0.7030879569479698 -1.6813112058470399
P 8.396044557895971 -0.05336900536340195 1.6861492132854061 -1.2069372732731536 -0.11610973321209037 0.0848857422008022
P 0.5115972686212025 3.3316223200495587 2.493143593591757 1.1273068659340197 1.417652289966655 -0.5899303643856679
P 2.111283624198392 2.6669980125818324 9.032930783627835 0.5604220705139057 0.5160769687396273 0.5864370065204287
Ni 6.329235104833748 2.885659603989462 7.933859129411038 -0.5145240224302107 2.4127561166711478 0.5813174259056763
Ni 5.8282069268823005 4.079829949145076 1.6254153295820257 -1.3632832282974714 0.5697142944491091 0.38957843609404513
Ni 6.431697749108984 8.60372635705347 2.9177341024118126 0.19767515279040793 -0.7317555000859914 -0.5478141519419081
Ni 6.662356636682089 8.725419825328725 5.219254883640893 0.11996433107149015 -0.8015318974491809 1.222645942257662
Ni 4.889800065902031 6.367299001303243 1.7568324352737414 -1.1014158570998709 1.918072268895316 0.4201609368665925
Ni 1.6090344415485311 8.766055231693365 11.00728428092046 0.24062465976874045 1.546485384282685 0.31022930744075605
Ni 4.228256020287121 5.165044125038434 13.504394289774943 -0.517651769425915 -0.04617624144574629 -0.7745042039074275
Ni 7.4433093917805255 1.17280276293337 8.672742722627758 0.2070275405395854 -1.8855334157273462 3.1330049016691204
Ni 1.124545327239237 8.640828249821183 2.326811303546759 0.6022040395466983 0.5873268653245498 -0.05282537133114773
Ni 5.060194971579934 7.2516301542007255 9.165741869683572 -0.8127737889115874 0.6503687721773831 -0.8413770544705768
Ni 7.049017374548764 6.936694192330275 0.7957241369385665 -0.9264152630888431 0.8573796005464203 -0.17068036936911896
Ni 2.979843466408028 7.6366443857316595 13.02701845283747 -0.33026822836950215 -0.7974438434227362 0.46147239402086976
Ni 7.553005563890305 1.7715945670782778 11.230585690182062 -0.20870492824200831 -1.0706230400887304 0.1743516475731191
Ni 2.357251320679642 8.535988346398277 4.709983073968034 -0.19267281447981013 -0.3132387836910412 -0.4870348158710064
Ni 2.8030937862770164 5.927765059981007 5.328144452646872 -0.2955033140844911 -0.2648364811282536 2.059492712958053
Ni 5.474365315303298 1.3211918339330395 2.6249399507428284 -2.147355278398992 1.9358727874118469 -0.036194447642686055
Ni 7.838322911788622 3.9087505408332137 10.634045344700745 -3.8038175435231523 0.7824111174593299 1.4230037840865557
Ni 1.6635171511974562 0.8971702023020172 7.963968920273214 -2.6141318582415947 1.5501314656757046 -2.0472900002442738
Ni 0.6008943372354345 7.090957035932164 4.984283629473843 0.4851568821220032 -1.3341829684974054 -0.15757185701161894
Ni 5.003742004349476 9.118287337079003 0.8225621902111286 0.4257949952239183 -1.2408501239705145 -0.7410793485900785
Ni 4.976343398919916 1.018253168228066 5.12623282569294 -1.8787814417154933 -1.4242970489766826 -2.0285754545539065
Ni 8.341154846680908 7.290165802485517 6.749158045693048 0.8454933906317954 -0.25155339086610223 0.8354555467798191
Ni 5.492541635245597 1.5202618499524816 12.39101283049416 -1.2755530746693386 0.7254791801589764 -0.3470202510168604
Ni 5.982784271694387 6.709346817499838 6.761951769923171 0.5348820172612724 -0.23271440378272826 0.041251807560935404
Ni 7.367144598699158 7.881354077372119 8.781008839234698 -0.4239031775178441 0.6305769342624366 0.3636881985908446
P 1.5323516464738984 9.292585757777593 0.022731962472365554 0.42915568416603517 -1.8360455934098638 0.36158117955017083
Ni 7.554032317841243 6.576497806298164 4.741716246076964 -1.3542676550624224 -1.681533092049859 0.839627932989954
P 8.512511756060592 3.313991752207309 12.751837293943106 -1.0081861138097477 1.0040612930080968 0.24046422293147618
Ni 0.7048351371985992 1.6364515470492804 10.485299222327145 -0.7502311902926757 -0.2902361521482808 -0.6446143861921092
P 6.556277228489581 5.786184015178554 2.958971686093625 1.1112210161157507 -0.43876209690754764 -0.4765825101894308
P 8.149706859990959 8.91724706347803 10.792687155152853 0.8935979594485062 -0.09109521344562375 -0.7175668672904352
P 8.434126954436653 4.72341042563635 8.320297866423456 -1.0232990581917862 0.5766552445433166 -1.7547658233927652
Ni 7.795263996098344 3.1939540403033875 1.708893200804044 1.3726021917055522 -0.8997027867946634 -0.5871057504526792
Ni 7.638438892636905 4.564337563525558 6.263591302237048 -2.3387003752063142 -0.2447736489401075 1.421874812688435
Ni 2.769701157782514 6.980798362042681 9.933502224017781 -0.299538146275497 -0.007954736070702429 -0.8067082994437978
Ni 4.350245489701387 1.9430162267071194 7.136720662030141 -1.159060761306849 0.08101494639148628 0.8584689769558571
Ni 7.920148726653545 5.735540070301158 12.283856718158505 0.3499109423010942 -0.17818773348975764 0.6183441396416706
Ni 4.996906228045478 6.539904665488122 4.280071944674283 1.8136176034236509 1.5894446614530304 1.784258176424927
Ni 0.4712782134738792 8.244945226467246 8.750073945197533 -0.17078527037809943 -0.20696583406371452 1.6551574302698073
Ni 1.3949978679379242 5.495686647347572 3.300639325827305 -0.9772719407293943 0.1285531011817657 0.2890822410494957
Ni 6.751554729915465 1.7365276821412534 6.010829454611971 2.7344764554706393 1.3218979804824653 0.36593200031969886
Ni 4.627487556526103 5.72875054417513 11.128980524206394 -0.40944843554509486 -0.009708742647331667 0.8783086373896035
Ni 2.5355365067192652 1.2576533394375444 5.650072516422861 -0.16285444556679696 1.0142207500396017 0.7527369874336649
Ni 2.3252646975954345 4.295235528023601 1.4676263724116874 0.16807224232231055 -0.6584525776267822 -0.7578393416572368
Ni 6.20387862246325 3.8552668350284454 12.459814595242666 0.03980170537797016 0.05528180329144028 0.9798661838191318
Ni 1.527985629673509 1.924590155803782 1.2005389946621137 0.8686613441078265 -0.553392417360634 0.6030172794766131
Ni 3.945084680646622 4.056362608842984 8.434779081946035 -0.9131465710043951 0.17597915587421306 0.780477647882043
Ni 1.4163562001245742 5.772188711324763 8.036506774398156 -0.024771550517725078 -0.19835752356941322 0.20371930210195885
Ni 2.864375272087565 1.6804077161921824 3.2596995932916215 1.8180704969886816 -0.27505198820867466 -0.9997500672272526
Ni 3.0558602589198895 1.45455884712798 10.752640976055554 0.7348984165903473 0.1435179500217141 -0.993766853060624
Ni 3.6020563606770577 8.877989912416902 2.713953968267883 1.0921470302034353 -0.8932212928353778 -0.6785830298280701
Ni 8.584791534192458 4.022035726753483 4.147761285544182 -0.3833489102445656 0.28947844804664985 -0.7114509842006844
Ni 5.714218738256885 9.251423099384093 7.5085110426758295 1.4348051475968582 0.11459715322230588 0.7632278596626597
Ni 4.189822122393864 8.250606248250802 6.407598631375818 -2.021121312268706 -1.058055744946681 -1.0302114690409032
Ni 8.425052669518896 7.287705293017501 2.908188990682318 1.2706363540940118 -0.7668564575541825 -2.5421985624364027
Ni 1.7379244375159542 6.679552452851419 1.2470472486254125 0.020626160890783833 -0.5610607325391693 -0.11516562413126617
Ni 0.6857828388855447 1.4432275535252748 3.480942869633549 -1.06719087447873 -0.12168774152050012 -0.04650919930513281
P 3.0787355969439627 6.90793583166839 3.4418031940244664 -0.8604137593870537 0.11124957690631163 -1.8259537563915007
Ni 0.49536808117145054 4.8457976465811585 5.9269186817241515 1.3837330115113913 1.149905320059826 0.06863559889052695
P 3.9895033515692266 6.139378124265974 7.383375636156029 -0.7074490621301429 -0.2321870705243485 0.33914136248941595
Ni 1.3419951639840464 2.658894981401449 12.578831103217006 0.5830503494363829 -0.11239551758529674 -1.2142407489131024
P 4.384174620260344 2.8639127703078624 0.539865377396604 -0.15402913396568313 -0.24510969212328754 -0.44363665139102954
P 5.348620331437851 1.159695462496608 9.30750236517655 -1.3001137947278383 0.6388864825693964 0.1918246075469019
P 4.047084823142156 2.8289938859403425 4.637430419786142 0.03454585629566954 1.3806091211704286 0.4977444889790266
Ni 6.6166614608475065 7.314373145635132 11.055317865753215 -0.2728074151488721 -0.9352238625194086 -0.8978752466676214
