# total energy = -340867.81392608274 ev
CRYSTAL
PRIMVEC
9.26259322638664 0.00000000000000 0.00000000000000
0.00000000000000 9.26259322638664 0.00000000000000
0.00000000000000 0.00000000000000 13.55674146409009
PRIMCOORD
 96 1
Ni 1.2156690142425512 7.743462884099761 9.618900837982592 -0.6180980850691355 0.43012730405068506 0.5315398402619168
Ni 5.249092910459258 2.2138708707542434 12.707275341182058 -0.0701090981122599 -0.6307900787145071 -1.7171405568408231
Ni 4.0513192258332 5.426360414703792 8.226826666900937 0.15447059237847588 -0.1969321039767963 -0.31583765476646897
Ni 3.6785832221596535 7.039802221415634 -0.028758498650769727 -3.065193084231469 2.818705537924049 0.08327468895994046
Ni 8.316085644048625 2.492137688734926 7.356226291132934 0.6509750383028143 -0.9517840808709349 -0.19189814109731465
Ni 0.07957956749487508 6.527034337233736 3.079902009410541 1.5112453301334683 1.3236902964961978 -1.1163447104955613
Ni 1.1483207007635037 1.8727851472564512 11.830263398560774 2.2672980122039275 -0.19296334913703542 -0.40159654360084385
Ni 3.370731682235349 7.2989047345430444 2.7414440835381106 0.18715754108853574 -0.4934810857169824 -0.8801606029966778
Ni 2.5499177436767906 4.694532206800331 6.372956660746888 1.2831941361543642 -0.11435418397356435 0.7833655109527993
Ni 1.3554971177055826 5.240571324927594 8.474183285884106 0.4342755218911037 0.39056316860481766 -1.1996134859182306
Ni 8.752427873641663 0.37094461819330254 11.082323836446689 -0.06479771320167549 -0.10016837939148555 -0.4137066966008166
Ni 1.746267389890159 7.914756015879162 4.584307350466861 -0.8048607047120978 0.8403678964797722 0.342504622534694
Ni 8.841728532457712 1.495464160063152 5.067062580909961 0.9674724381404691 1.6705886772232132 -1.4942068865939429
Ni 5.760656657555161 4.148122584954301 2.4709735900596024 -0.3273708522170491 0.04776184076531129 2.0204281428564235
Ni 7.5368700105147415 8.562118638496495 1.7275893711677688 0.19362669375264718 0.15652824623845302 0.16601047469727537
Ni 6.753004555310319 3.55393650857314 0.5552498405758347 0.7990811219158431 -0.21302283889107185 -1.0568527257775153
Ni 7.584359324667826 7.414186966637698 13.029749736626838 -4.008300977484645 -1.2213436785064706 0.7193571264216385
Ni 8.392187107883567 9.184963177524358 8.765789163999733 0.4506035696271659 0.5659720537978575 -0.5398043942635542
Ni 2.717783716057588 0.3400751746048523 8.776295723204694 0.027943777598119612 -0.4890500465288222 -0.4774996226870615
Ni 7.827993307536672 4.855127043700307 12.273500702360083 0.7000643396302976 3.298270013559939 1.2394956668251493
Ni 2.483023297253234 5.092814441882929 0.38506544117484676 -0.22659312137633877 -0.09824519422684369 1.7711375798825693
Ni 5.858904981179458 2.699647559023896 5.761899697531628 1.3891667809324528 -1.0402233447509506 1.1983289627788525
Ni 1.6808827461205817 5.989201876477183 11.921486045417932 -1.3209219897224411 -0.563689685521584 0.4469155792526174
Ni 4.752136272475782 1.648435882949477 8.017755123437361 0.08419205856788727 0.5673051707869843 -0.6806247428484472
P 8.891820635235142 6.91412736000954 11.49989912642483 2.488779523385314 -0.3877403544440419 -0.030180637348438347
P 4.095251704286111 3.317981215275759 6.904733238220177 0.4156000569687875 0.6405803253320517 0.997058122217386
P 0.6001132096221511 4.009202215602251 13.130787953253456 1.163463261249919 0.4587254274033519 0.11512011560531141
P 4.724450382090844 4.181208567040279 0.20336856497244107 -1.0144670617224527 0.017928045233330414 0.4056735418836949
P 5.502202525935595 9.329376264507143 2.401210518593485 0.7448488429348398 -0.33966535331368597 0.43607169455957806
P 7.240420722535521 2.804537161807108 3.7385288713377176 -0.21336890937658093 0.23098533690676348 0.8903306015511441
P 4.630323912337842 7.573170112361033 9.14911879525215 -1.2893023059346311 -1.0471799785744418 1.2479024028316055
P 6.989413715663191 3.9592490517193593 10.749058520192792 -1.2366332576756895 -1.5008087081811765 -2.778202178493364
Ni 3.9582579542716547 3.6336689088520067 4.740290342327473 -0.21637375764117575 -0.40213236149965575 0.4330964139813379
Ni 6.314828332309381 3.6478869890597276 8.243745719218476 0.38345226859164927 0.7814636659443961 -2.171335443363673
Ni 7.31745770826035 7.727475648634923 10.48300720981989 -1.3591458090903301 0.7230037220352903 -0.06097705390400466
Ni 5.57849850422289 8.53349722622167 0.20794150712133475 -1.5219843138175273 0.3036056314766513 0.4515312236477579
Ni 0.23215948269860298 8.354442041534078 13.206949623942696 1.6566424994557662 2.1708438484392354 0.28324172310831863
Ni 2.2365642235287813 1.768164159669346 6.1978843910360535 -0.6812081261557429 1.27160874530961 -0.512401319660253
Ni 4.589197999554598 8.61076577677073 7.329804744688293 1.390309122067012 -1.147987791322139 -0.7285601330771453
Ni 3.6734424830617485 4.011684590517996 11.667595593354292 -0.5063916231310635 1.022569122004297 0.007079532554600711
Ni 0.13226519630368022 6.078947139755754 0.16159890197783722 0.3089470982942228 -1.0512202100820862 2.2021349452430337
Ni 5.119305457774838 1.9612984856701188 3.6449877974603684 0.6059118274155887 0.8444680346910747 -1.969232850929531
Ni 1.971487337936238 0.5130809598242584 0.6598495241991107 0.9421277887280936 0.9783104092962378 -1.432975036366655
Ni 6.423237720420889 6.973380167233508 8.144646163300312 0.48091224791303633 2.026753313743503 -0.432232780429462
Ni 7.880827137832985 4.097502514377627 5.650802304940458 -0.060410896987889505 0.024205393601609927 -0.46214165217375247
Ni 1.489063708321435 3.4090417667559563 4.406198802780723 -0.6203120620013187 -1.2076762083217072 -0.795869556957081
Ni 4.6212095208561506 1.8848079929304717 1.29771335772653 0.3638460643249476 -0.02172222216844001 0.041398360441128705
Ni 2.7143102436941384 3.042520962964743 8.836473863466285 -0.14078718135411236 -0.41762248671545493 -0.24460112791798516
Ni 8.58706280136255 4.147492728632395 2.4029731900355236 -1.2487158998718364 -0.420753833255585 -0.5107648124980945
Ni 5.086358414583397 5.970046834216879 12.36731317021143 2.0538211164945728 -2.0913944467626564 -0.4784445030988341
Ni 2.5226301447895296 5.522589493060803 4.177550769076743 -0.15309119553244602 1.1679210399109563 -0.9353498465743116
Ni 4.97146521139345 7.9890975870499545 11.313588552664468 -0.5208173116380902 1.4121928095139806 -0.14043622577259685
Ni 4.898735331399298 3.7297219979426024 9.887405809233034 -0.6908227664273716 -1.9047161593033843 0.37975322247350723
Ni 3.364377543458478 0.38384833645869393 2.6626249749260067 -0.1439810057010617 -0.2894681636340047 0.404366135926181
Ni 7.532757419236417 5.6965873019872095 3.929719905333552 -2.1480083386019584 -0.7440872821784669 0.36367482885440594
Ni 2.7907822112478473 2.8882987900275765 13.37928294491254 -0.41870594958762075 -1.844321460265411 1.3206227133144675
P 1.1385579277739677 1.4900084928042936 9.632363090604024 -1.4193566742522716 -0.2760611461994794 0.3978661300241342
P 6.6948539966496865 0.4918872208514336 6.926112229052387 -0.11920971229365275 0.8482025620328424 0.4914386013656568
P 0.010701999916612775 1.4193904840071185 0.269578505775574 0.008694185339888253 -0.9236832088696609 1.3334532894202324
P 1.339287580009484 4.678276356139387 2.5333756788930977 1.2330265141610377 0.1879268151543925 -0.46478603177513506
P 7.379387404852417 5.323990237208202 7.433757899322319 0.5640583817149124 -1.5142794889741016 -0.06544048899199696
P 4.7218939064313465 5.5119189859602855 4.095383233106274 0.7019844394711459 0.8743380827776297 -1.5533803116303053
P 8.771481027379306 8.399791696711278 4.579128634737781 -0.3296156823871678 -0.06714693016014242 -1.2136026011084713
P 3.4933498879616076 0.19899847360957287 12.831021730731965 2.5313634194941117 0.507656605886416 -0.7021605600376939
Ni 5.997686411636969 0.024665358817680595 9.168817551719748 0.6670691156511995 0.17152137721317556 0.11629099598496102
Ni 0.04083506736401167 3.661669727397896 9.943937266642651 -0.06581972670828665 -1.1916055280120896 0.28819881000327785
Ni 8.590795626329136 5.942657346806957 9.46913952981939 -1.1193940388448465 -0.11082225956090593 -0.24166364255621603
Ni 0.5294729706018502 5.726385063569124 5.6410821398785815 -0.28847777469627744 1.4864568103348788 -0.7539603183178047
Ni 3.3314860758248517 3.597239130704146 2.5001609467648462 -0.10159945541105726 0.3297054138874967 -1.0131018059438102
Ni 1.2280531010423705 2.393250246195755 2.0321415754764454 -0.5192985610007186 0.5298436835064165 -0.6807486700208212
Ni 3.06569597057368 6.514557624504224 10.285255481223968 2.1513507727116306 -0.29557941873806515 -0.985665049889096
Ni 0.6381630152803245 9.147560827114733 2.3341863958683593 -1.4730024846021856 -0.31760143153511106 2.2629045111219224
Ni 7.774223955350472 6.936978176864554 6.019057066135505 0.03289212274233044 1.31659662287421 0.010382628785904699
Ni 6.034014301262168 7.5862211058546345 4.300103210392921 0.4009239430138515 -0.595609159938 -0.9989504541440923
Ni 5.833173497911021 5.733156019029609 9.9684618340472 0.30089594585497215 0.5982039172483699 1.2939930265420811
Ni 5.470200267227012 5.825337344259079 6.128555735180191 0.5776895993451019 -0.9897137660371729 0.11959537776784565
Ni 0.0510702325949768 9.149394820522632 6.531623952049974 0.8721714141436141 -1.081717350229679 0.6522274226526766
Ni 5.204613939021162 6.127501652100296 1.3302945284956884 0.6330685903360388 -0.13812403269965245 0.3494581710343917
Ni 7.38675116626293 0.6238226688454103 13.12795452606418 -0.22990264536554597 0.26871807557084687 0.33405340644354725
Ni 2.2856374410795985 7.00388188588108 6.958065396018233 -0.5057727586001418 0.6658411567813695 0.704682040907967
Ni 8.391353474516338 2.688754749692118 12.355492249064138 -1.6303241732762115 -0.4183115423626796 -0.8085960033848139
Ni 7.333065177413451 1.588275341614528 1.866193886099569 0.24260492342356282 1.142945086691909 0.38833093684018927
Ni 6.832273825940726 0.4637159705949111 4.376969764407118 0.6843566990870537 0.19152481691829595 0.014835265240619611
Ni 4.372101345542506 1.3370460325109377 10.333395029403492 -0.5656097853624323 0.3057252489228154 1.5443801650142241
Ni 2.127293414271138 8.329636817562564 11.665507804899033 0.2843416410407168 0.9539782603087763 0.3906613847455788
Ni 4.332022105764781 0.5163015633996489 5.16570085969826 -0.09308704706467194 -0.16295060482502904 0.34489189181994795
Ni 3.9959937580281726 7.393605485060137 5.1127216066923316 -1.218049066915599 -0.01822243654529765 0.8163445369819812
Ni 7.472985906806174 2.134870215319943 9.496063108802963 -0.5457516129859246 -1.06643574148026 1.7602119341090008
P 6.286132819290802 0.6710498516174664 11.292385551098674 0.4942267056337553 -0.04402962741638868 -0.6593043841041162
P 0.697195372791625 3.804517436168886 6.3533394150974205 -1.6222956465447802 -2.408795332251187 1.6499355197492358
P 2.7459234734980154 9.049155039409959 6.518759136675052 -1.146516091872619 -0.4955881047576562 -0.8031074694664169
P 1.9928561399161808 4.4930708097202485 10.325437535783653 0.7820257090954531 0.3543244979877575 0.5618310350462905
P 1.7013901269543887 7.649984795854603 1.2021548911004896 0.5350123721915495 -1.6766631655520672 -0.025379102194736932
P 1.7987862920255187 1.2266914998758982 3.7425006712029094 -0.5725157684536463 0.7731194077447587 1.950786985519518
P 0.10625490898687188 7.3814437004915785 7.93833950383804 -0.18913369097830007 -0.8797803368391235 -1.9187988626486951
P 7.270802027474494 6.528470039143961 1.8094178962355654 0.6483193458475222 -1.894406035626628 -0.0005296472512248942
