# total energy = -340873.4605374911 ev
CRYSTAL
PRIMVEC
9.22814701516353 0.00000000000000 0.00000000000000
0.00000000000000 9.22814701516353 0.00000000000000
0.00000000000000 0.00000000000000 13.50632595208523
PRIMCOORD
 96 1
Ni 7.3763806488381 0.7039461012529069 8.645033959740276 -0.9785739473702694 -0.25352619832175693 0.5058632614314191
Ni 6.994012389992176 2.8030403344078816 13.417022128650887 -1.3821196442776842 1.0279964636674555 0.288441007921071
Ni 5.073939588899021 7.043724416308165 0.6890887850530292 0.6288452962833105 1.029974927550065 -0.6681993726009008
Ni 7.179064415927673 7.226487861860078 7.265795152762798 0.023097248139095704 2.445433038078879 0.49755834111014957
Ni 5.815771846461617 4.215777313935394 1.5645187681366626 1.0498202444107663 -1.152328841899654 0.03664696179907237
Ni 4.54552668025231 6.583802812528219 5.341400810566287 -0.48077957898991397 0.8100862147770952 0.576374222967788
Ni 7.908466359874594 9.132155525942046 2.3529097942851234 1.1181169719046355 0.34267868621871306 0.007895086477360596
Ni 6.220167691499532 7.7589519269116 11.669789746954534 0.08795512515474531 -1.2904083945146163 1.778171603911215
Ni 1.850197274220189 7.6528466960630315 8.197043426839103 0.9161776445212351 0.08055806135972578 -0.7057477631683201
Ni 7.850633564455567 5.951397918629072 9.24645719669666 -0.03999299545316983 1.1292583332334358 -0.36019972582161186
Ni 0.5577980962089907 4.343467179933972 10.355516169986695 -0.7413194896253427 -0.10946883085680502 0.25691876894307364
Ni 0.9068905808405424 7.566803456157652 10.27705754386062 -0.947071248776298 -0.24001865075362533 0.07400971871824673
Ni 6.314100996840251 1.5344377783125993 2.009146564377441 0.45782039909057926 0.8666720815919396 0.07509780957610293
Ni 8.46793198219372 4.261105970565084 1.4537533232005548 -0.42268293195749784 0.6208075135804986 -0.545766268273944
Ni 1.0627964282134963 8.453406879275331 1.7091035251282436 0.26916544752091065 0.1377226834961757 0.9501434599437185
Ni 5.678484707886721 3.2879517594730867 11.504201728055547 -0.6654122967740669 -0.09919264574177755 -0.24339579475597437
Ni 3.5870821350128623 2.363549847439446 10.221249403829326 0.4195423294459871 -0.5316501405875359 -0.2630842743238372
Ni 4.671841552391396 5.036990089480194 3.6318783275775006 -1.9371295426370834 -1.6161059727943006 -0.46526554251471486
Ni 3.4976152526788162 1.2089149031879471 12.567082132404087 -0.2506141668812845 0.3677988783251085 0.9763923663379185
Ni 6.857952594929444 4.231538988512656 3.8972502968300757 -0.11139998644124685 -1.0391748488817778 -2.5581892814377043
Ni 6.182175411502703 6.669818367993475 3.4817825213719025 0.5776474332532568 -0.5962758469877214 0.8076837759831896
Ni 0.11303372339693385 8.883567709921978 7.140173314441483 0.6343592841230044 -0.49955891647994605 -0.09436488533583104
Ni 1.8399171187874785 6.277917433598189 11.889550678288154 -1.2198889483378152 -2.890532904278996 -0.574440753390501
Ni 1.331141706335389 5.745481052986791 1.9071875398447764 -1.002130651644287 2.485634807108745 -1.422514503154963
P 2.7097160867498915 6.749826399951823 0.2552976014914534 -0.4908912135026191 1.692336096202634 1.2753970087074487
P 8.701487147226459 9.161907070928635 0.20654991650645055 0.37436264758555526 0.502220008251877 1.7977256147837426
P 5.108129872452156 2.745309048602642 3.4985842080831557 -0.6101207232906138 0.11909786930613682 0.11008461006393298
P 8.709432581542044 2.3453150295444405 9.648568152609675 1.2764943555366854 -0.7224272807065301 0.6068297112441678
P 9.017624997149076 5.605277820052168 4.731305884148398 -0.33121799387728124 0.1265728375269433 0.2440830506309861
P 7.629278009370803 0.5655377428529892 6.337303326108172 0.04126800551085151 0.4455297546486843 1.202952834704109
P 3.234271630072658 4.967585198089337 6.489370264450598 -0.7422615418236378 0.9635260518982116 -0.2372979093883526
P 4.0423804372921 8.161105332299472 8.073325355183648 0.3180457181613813 -2.319068202797683 0.1573538274635419
Ni 5.826374987029107 7.637998608009862 9.368014036393102 0.5509313574146512 0.9573885715419059 0.0927288923943048
Ni 6.533278709301927 5.430644371750001 12.980456964188885 -0.25578054157357244 -0.3248971938655759 -0.44614964762087034
Ni 6.156788779908998 2.248244154323003 6.993183702417798 1.329645228528052 -0.3019349286424477 -0.15822697409711461
Ni 8.836402652097398 6.969825417470512 0.4136775149968218 -0.7040840023126519 -0.9199353117914544 -0.06084644186341134
Ni 2.708636393585055 8.347707686881913 5.9177022637394865 -0.3972804327239932 -0.0927062666864855 -0.016652006734384224
Ni -0.01755654911196743 6.512755311023338 7.01630666962403 1.7106246100991764 -1.06137709601043 -1.0860254906867295
Ni 0.9622557698298512 1.7208647981075882 2.753156664563124 0.48783005807879204 -1.1749653483522473 -1.1321243419273215
Ni 3.6989180449670984 6.523256941977041 9.799433586250721 -0.793142644944221 -1.908400550133507 -1.2754587151833194
Ni 8.394374424784264 8.330654071765531 4.914100705399118 0.18080665916984348 -0.31873683069113495 -0.062416614564008634
Ni 9.004816329518373 4.2926200915729 7.895284875116889 -2.0525571621804843 -0.28868783382455443 0.30799167635948893
Ni 2.6390469392600377 2.888105390762213 4.376765101700443 1.48552761365239 0.4332180271608668 0.22959874097188201
Ni 5.617366692239645 8.476403420871662 2.4419706381640185 -0.3747148887186514 2.335222443960043 -1.293068972065915
Ni 3.9927145517096516 5.634807889517763 12.44517370031807 1.7895898730504858 -1.4980941374634908 -0.7399316081388805
Ni 8.998079782421534 2.0197552418329563 7.419780622805818 0.04891986562915446 -0.21871243307668137 -0.7507464393661973
Ni 7.076096754959824 5.63113508712798 5.650492970477348 0.058234201051544865 1.0010780420100567 0.6758193510400038
Ni 3.8281951521994517 1.0739255731433428 5.449099742351327 1.0233165416932826 0.6124840813164678 0.14526552884044014
Ni 8.454255868772465 6.884243584900532 3.0108701948627314 1.5988204462409754 -0.7681911172052059 -0.5294215083673334
Ni 3.8355868977125587 5.225724145952183 1.3256205061599935 -2.1757410286305365 -1.3004351826229992 0.5371936961135845
Ni 0.6626335340705386 3.8894977307806866 3.444396530613788 -2.2196379871238032 0.553262319540673 0.8800675290622392
Ni 8.038278699616011 3.324679783370921 5.533501294957354 0.9436439682623039 -0.8877502424184777 0.7188110241101815
Ni 6.392558700151656 0.9401451303174863 4.732872823459416 -0.5663338080126504 0.9107911833983411 -2.346777495787494
Ni 5.203262836864914 6.210644244096879 7.630601325608731 -1.6428459598923062 -0.7694414446725394 -0.6928135716051552
Ni 5.053785316488752 4.244541447224226 5.939973473004571 2.2880236747870533 -0.05508974188529222 -1.6521862634566256
Ni 1.4724246324348484 8.378612750207001 12.553630262947838 0.3439696371159947 0.928718457300723 1.2845784180964004
P 2.6686600620460057 4.413047406112281 9.911049866313306 0.8711799967646222 -0.10347224695373793 0.4978653308276071
P 4.245288927107574 3.3906148915995713 13.150893451368253 0.6528210903726176 0.557249329212879 0.6251706756452008
P 2.5061893111049813 4.739631518108354 3.162776563452439 3.0832221738190384 -0.04287057411128101 0.7433061810380682
P 5.695215337868322 5.808112484693978 10.788029255229214 0.3396725524025376 -0.9920699249741755 -0.18186878188577066
P 8.02131736596671 8.07447149100478 9.523580287967201 1.1684054357465428 -0.0087530636022817 0.4288546079858485
P 8.183954223548477 2.1208772734592056 3.353323027937878 -0.9695660874447044 0.29174847502774914 0.27581766273010566
P 2.566163036560264 0.18663557591058946 10.693011642650305 -0.059975352112367666 0.45642968939063977 -0.8735209861929731
P 2.0379716034345456 1.4982080743369965 0.8477178585195135 0.43303445039515104 -1.779925353377528 -0.45919516795091886
Ni 3.0389579049978668 0.7077287185885155 8.158941331896447 -0.4410961443573629 0.596362750274573 0.7272043903801991
Ni 0.7289396137968505 1.5654258949580588 5.062197695027763 -1.0573466346947984 -0.994898652672222 -0.32224792916818695
Ni 8.39595243787133 5.967048855445839 11.618870679049138 0.5298513968159004 -0.06473369273295948 0.10234713221035924
Ni 1.0636454177106323 1.3653043054484 11.673598203100925 -0.6778741766865035 0.9953681361094727 0.275072557033965
Ni 1.1507960352209714 4.387125542009514 5.944147363760598 -0.09506499672664918 -1.8370290403690555 0.4312313357481412
Ni 3.370239143668311 7.2874859115999495 2.9546707814110196 -0.20903788610139484 -0.38901690716362036 0.6087043025590614
Ni 3.784739809351486 7.865398599188364 11.518113159217855 -0.6204174772309315 0.6870864393133909 1.8217070653000045
Ni 3.966645037259555 2.772550537684654 7.154530465089788 -2.54783184946278 -0.1461751851389031 1.9300219850580245
Ni 8.961287161496744 2.007730966672434 0.5001923131989799 1.391238318749501 -0.2231514426846415 -0.07615041921033337
Ni 7.258823287924905 3.850545723526224 9.785711332095927 -0.6857828900106189 -0.7633525581659821 0.19466361965759377
Ni 1.8276436836658405 5.260708050122206 8.085102316012396 1.1086355147767617 0.3948574251047974 0.7755807248010579
Ni 1.612812428303632 3.5965686698286854 0.9405631653633586 0.09711725126998759 0.13140085504320595 0.14260597973040604
Ni 3.368190495099135 8.788545483269717 1.0788598631881097 0.5884483805235028 0.42800562972199196 -1.7875257914326055
Ni 2.3458687183469205 3.639922503062863 12.07048141390386 -0.3427583904167129 0.32674684547980504 -0.7021430765361972
Ni 5.564664746390266 8.891753076051975 6.67169260458987 -0.6253701932505166 -0.09854601329671415 -0.23743443496621688
Ni 7.690396025017877 1.5043909326313558 11.642290792579367 0.3304062966092632 0.09359663971123881 -1.0514043010684344
Ni 5.176565808438673 0.3803574456782511 11.0241332343827 0.4749411179312659 2.6473417693346604 -1.3194531184863985
Ni 0.7797119541695883 0.45093431170102477 9.285638984804152 -0.6373787876756185 0.4435343214852104 0.488201839595914
Ni 4.933422598976326 4.32839761635981 9.158531414862848 -0.23404983476470012 -0.2132272415923941 0.22128765000302533
Ni 8.363413992578927 8.405199040872745 11.909351512679507 0.39286764836827825 -0.5285841000677026 -2.426095256982215
Ni 3.2269167971463832 0.6982449522167054 3.1660848540472566 -0.42147091392726765 -0.7844209488005072 0.7163972724623662
Ni 1.623941573233478 2.636057019726646 8.769818805155175 0.3653856408979256 1.2254358462979735 -0.12956328761383493
Ni 2.0164884778983247 6.233788436040539 4.886359050765533 -0.14308986134536003 0.4709546224796921 -0.6968985403078063
Ni 4.078425578333543 2.2138231671021678 1.5435699522948347 -0.49516464406699234 0.8545950958227475 -0.6326448725350589
P 7.019103720891224 6.115852721112316 1.5037403482884417 0.011746599012966867 -0.17486689664664076 0.09140760247972
P 5.582281278455834 2.0868254121066907 9.171186895258199 -0.42661594846331685 0.14064011425328682 0.9405537593727543
P 4.8723138114759585 8.481921852603046 4.397524740534758 -0.9039494778861593 0.5241111518980135 0.7855504344192601
P 1.277489261375085 8.442425384692811 4.068199868966409 0.22269172943940357 0.1403071563939003 -0.43815737344401307
P 6.653862902335346 4.438452493999402 7.4855025608455135 1.1210423730815466 -0.08066167681712559 0.6373224805163863
P 5.473878239076975 0.053671824068390946 13.342628501149685 -0.566526897860063 -0.18489059943122996 0.1252839435121907
P 1.9906219826758045 1.8460907489351297 6.6438023767942855 0.4549597897133326 0.3283108475328152 0.5450877541496807
P 9.458758094231536 4.357706210304414 12.70188874514387 0.025823388821007143 -0.00041009095422510025 0.4866923449299231
