# total energy = -340867.8889888211 ev
CRYSTAL
PRIMVEC
9.23463029308856 0.00000000000000 0.00000000000000

0.00000000000000 9.23463029308856 0.00000000000000

0.00000000000000 0.00000000000000 13.51581488466543

PRIMCOORD
 96 1
Ni 4.435651448535978 8.099232405644642 6.313048071732595 0.32086827521184097 -1.6005934789809984 0.6197947560452681
Ni 1.2254261912053344 2.158520929206077 12.964396662278423 0.19997397612691364 0.12367751825701925 1.4872543665355096
Ni 1.2914168585227466 7.953389891098897 5.414408662423148 0.5552371838788567 -0.02281134146756071 -0.5552209859289406
Ni 9.387740355658435 0.59879927829968 4.0620968055202615 -1.425049610871991 -0.17434573403584813 -0.7090377467735015
Ni 8.718672929338652 3.602604693982877 8.568093972969914 -1.1896391483143383 -0.7905584291568127 -0.6298058604243669
Ni 5.758632273038422 7.339979580917099 4.394235055609605 -0.5699207540329605 -0.2030400166467471 0.20888284858076928
Ni 6.528264822096327 6.832924506600771 1.2799474478302997 -0.032034402727725474 -1.2365710369791865 1.923736666269945
Ni 1.8438509055787569 8.09635120102625 10.942728335130896 1.0381546351473796 -1.8196118733338726 1.6191522158197922
Ni 6.984898815590787 8.893484478781502 3.1499286629866314 0.4751298369033043 0.8375949617203251 0.14478113300485387
Ni 8.278328823494334 1.9421443092908388 5.803974307257355 -0.18428356197485038 0.0724184629717269 -0.6548525189803496
Ni 8.590394681408876 4.928198918828285 10.454590400752956 0.7341630810862195 1.5201899409212658 -0.08788210582496478
Ni 6.500505523753738 4.252907351762359 8.470185653336637 -1.6176843730250137 -1.169744209162624 1.4708203893492025
Ni 8.182242496396983 8.489737212368881 5.312918229740274 -0.9914130081164669 -1.313781522022918 -0.4834219017087674
Ni 0.3054418576812958 5.81856502295306 6.34328317442836 1.2434528517006842 0.8106989086604295 1.7564259847040073
Ni 0.6840339914641057 8.88278154239459 1.795846527476867 1.1161570199647874 0.3906523858845143 0.8611488377808653
Ni 2.2386498153400245 0.6020821893312138 3.6132365237173487 2.011792578668613 0.20744508769297823 -0.8730890408618769
Ni 3.606889562389717 2.2848414355361757 4.934029664328455 0.8139053314128691 0.10304595804959674 -0.4601763009172655
Ni 4.89523128906014 5.496664283889197 6.103038729331401 3.0507949065282687 -0.344126217298517 1.2373518810092692
Ni 4.420534358919604 4.404789314450505 11.430608623326615 2.3192101276921866 1.2428969791972142 -1.6848757832698467
Ni 4.589851303401099 4.49690475056738 1.635427149180697 0.6975382307743341 0.6775607592111428 0.7006742053001546
Ni 6.202559415395356 2.7113151268393865 2.323746932514662 -2.2548710992944843 -0.7247093918724874 0.19542260931080538
Ni 5.659119898141635 7.528707718051995 11.080129474222561 0.016717826975313144 -0.656270996594431 -2.658606800725518
Ni 1.7803720576722506 2.0281648894841915 9.020292573585484 0.3207613173203315 0.4041933577937426 -1.7535206381317543
Ni 8.238693790731062 2.472156674252436 3.169363865678519 1.4637747953563307 0.4449114043383951 0.15499098365832017
P 2.7736304113423107 5.5185872959535045 2.286443643873647 0.532326083608638 -0.08479806758300235 -1.0719988373903344
P 6.369401478986692 2.1482427858077733 9.348091470949884 -0.5374076118966035 -0.22379087604085326 -0.053190982200682586
P 9.423201335577112 4.214398943881922 5.040263926538472 -1.2797342026302216 -1.4789625588403625 0.8209223861606507
P 7.836784215725685 9.180284388503988 11.208854678253397 -0.9454295994078169 -0.9925553492510262 -0.24917486333159666
P 9.37619706792449 7.509508921892897 3.5284247566154945 -0.550823113971561 0.20718103539831417 -0.059056439842524094
P 6.304223459125749 5.345271756600972 10.451211449567475 -1.0886544436691443 3.2096469158038916 -1.0595161315422914
P 0.7910144117932447 1.7281871624846354 1.888172513162009 0.36276234434246557 1.6710141947964061 0.6039176798036954
P 4.4434731803044984 7.9809367929471815 0.7976531874347909 -0.44161704985783945 0.3741775281579427 1.2586419007362968
Ni 2.161559122537651 7.215912324352667 0.3861128166072292 1.2358508709837102 -0.29901518389249154 -1.3134187393668606
Ni 4.730910279509898 6.153671283184555 13.007038490630633 -1.4200716980414254 1.0312224268039207 0.4086243969819027
Ni 2.6601091024516093 0.6007025355812529 6.295504121303038 -0.7779227426706731 0.9957111212711882 -0.2258341317231272
Ni 8.68647177387604 8.864367689801403 13.39719976911191 -0.24640218568246597 -0.2136522449449546 -1.414040404245681
Ni 1.492602511780114 4.339057216778333 8.554956788065667 2.6845165786127447 1.1916268681683284 -0.02497363922620215
Ni 6.558203493163084 -0.15848287634592353 6.752825171283422 -0.7915681013682496 0.47601043973604473 -0.11877416741813092
Ni 4.507173659335496 0.5567466193534119 2.4544723574440335 0.4558694460117956 -0.7571209754339735 0.47838408217454387
Ni 2.8929141294697973 1.6006846234905807 0.854814624830264 0.38469591119076324 0.3160651973962428 0.7806146876805394
Ni 6.264376029868174 3.931117428260743 4.735130505505428 -0.0032295626808912124 0.6674851201426956 -2.5751919866432877
Ni 8.128894037805784 5.030684844645336 2.6525330118460673 0.8807144186176187 -1.5182711266319981 -0.8012799293393749
Ni 1.274554423801001 2.6548176593543693 4.150220111007229 0.635978307783666 1.0872290240765274 -0.40206602703809463
Ni 2.0397266464785098 1.1496929890404728 11.042866817954371 1.2274312794614475 0.3704381157201685 0.8462315543494007
Ni 2.3865608870476924 3.965008521047603 11.007576678694155 -3.7851011980605715 -1.7793787368454388 -0.9169453759251951
Ni 7.467842270488453 6.355152444607912 8.79613300734851 -0.7672058704738013 -0.601637368409951 0.603572894869767
Ni 5.767469814127529 4.0668295534911785 13.270084161122696 -1.6161738499177585 0.3867131987311082 0.21249422008111146
Ni 5.246645906202152 1.2082959522081609 0.09921594326777888 1.0807552434267258 0.4084328497963869 0.5382689314556341
Ni 5.021662610952485 6.57412399560574 8.721904126441137 0.2675500234046747 0.7254537262376797 -0.3585501060333309
Ni -0.06457684543575898 3.95518287452847 12.475367586087422 0.7000789949183169 1.6036582339492509 0.21537051318764197
Ni 1.2193128660214372 4.038931735695782 1.6998700924787422 -0.8204675580114192 -1.1348183438197166 -0.6070626531905803
Ni 7.070688530029461 6.252010860047573 12.437901767955113 0.5118359340750863 -1.86443057231046 -0.40123710337889607
Ni 7.864922133905948 6.054500589604694 4.711463995261785 -0.1370192296712479 0.6723748441348291 0.24295767877729124
Ni 4.024710405207562 4.479774511570207 3.9867459170451482 0.4190926435030782 -0.4890125084226675 -1.147346043973082
Ni 0.1194037683199193 6.4404896621674155 12.508941007595844 1.6446359619131934 -0.06790283448956048 -0.2866486919073386
Ni 2.7285654160289923 4.304907554346231 5.9455938254185146 -0.7110074689053626 0.1510152868400238 1.0598058948685685
P 6.532743617737097 1.8267576051023322 4.525067602249147 -0.43158820486692767 -1.2337057996162497 -0.2307832481982864
P 0.359240042762607 2.8495021329599797 10.435479333580638 1.0942807887169863 0.5304193535042284 -0.37927191196171456
P 3.7787922033236145 2.6671920638051576 2.6053486689047967 0.5194682538093635 -0.5642208754347057 0.5758296633182277
P 0.37298301940713163 0.3377344359827595 6.753906546478339 1.1352320343183673 1.1717280723618722 -0.1446615767078541
P 0.4585991227982868 6.162434947232166 8.683248887940724 -0.06742306663966452 0.8574492774420911 0.1319994078591533
P 3.462053622534371 8.948042673927217 9.74824092544159 0.32165194745540093 0.1921961319537077 0.08183152875551067
P 3.770748840430602 8.645368434913012 4.457555991339911 0.0730434981502355 -0.2708973426103528 -0.7843325028517589
P 2.6508837068946414 5.848660682733 11.951791758366273 -0.4381625156503357 1.833758854258216 -0.0993505114758805
Ni 6.1981083236451475 8.226014643484097 13.095892255365403 1.3880650632278417 3.007587260792543 0.14679070723571494
Ni 7.438762420029101 3.040852905068027 0.3814003848227238 2.6077400957826375 -2.2993069610103563 0.7192234290572516
Ni 8.488684464527546 1.8877523374884935 11.87690075447448 -1.695921499561047 -1.8069224507916621 0.2075844414843199
Ni 1.1937144711426424 5.483717332366806 3.6668943424198153 -0.5160581996865499 1.1793848175761816 0.8353208209741678
Ni 5.871978123955567 2.771635731221885 6.60500275202555 -1.3986999172338686 -1.9441512253705548 1.2115382623802746
Ni 2.992269515653402 7.627693719028113 2.6072279161478833 0.21666814895314299 0.3519644823960132 0.38706878229831404
Ni 8.549633023762771 7.913551696471508 7.576316853981874 1.6343808598440883 0.06210628241244143 0.8056968274601479
Ni 6.830541972012485 3.61330763036979 11.284759644539738 0.381596189219517 -3.091145285320857 0.06492575413910753
Ni 3.197462998411995 6.352280474619707 4.948923275894299 -1.3112860092945742 2.553407029557712 -0.9942530486684232
Ni 6.806282598510827 8.91115956095972 9.129662916207058 -0.2643346017911706 -0.0806526779560611 0.9579907239022792
Ni 5.2789855811175705 0.8167236222342854 10.987398088272203 1.2336320089555206 0.6247713833242531 -0.5791499859407122
Ni 0.6765881091442022 0.0457760618377293 9.345604585040482 -1.0202088493022368 0.2890570442385151 -1.3072023261435035
Ni 4.482517196735792 0.4491096168179659 7.876219780476914 0.13868916117450308 1.7202017122646502 2.0793629695194187
Ni 7.5519789861236255 4.343462135377606 6.501958131082177 1.986689355843082 0.788815478323777 -0.06755110757709655
Ni 4.001180567490691 8.736800508396037 12.290214174297974 -2.4988739315068385 -0.5817812529159722 0.6451340061410051
Ni 2.9350240431232257 4.359447280231572 -0.03147716045593789 -0.5228230292142093 -0.6068855041827678 0.18171837235083546
Ni 0.0992408767692842 6.75235235821784 1.3389788978386719 -0.7760810614762441 -0.9040546360054559 1.075238941594187
Ni 8.073938753562024 1.4345074532727196 8.089904505692596 0.11947890679463939 -0.45066964697841094 0.0926090789869889
Ni 2.4250692949281305 8.01188203870434 7.682172496354218 -0.6552584961695167 -0.6066471629197165 1.5247639334451935
Ni 2.7229599955053896 6.177284232573112 9.677201685800856 -0.47934644608781324 0.7087433554615342 0.1281473811029148
Ni 4.086527019680381 2.4742991084558557 9.688108707514907 0.4153223778273686 -2.3751465338484903 0.6572243616466359
Ni 4.086527019680381 4.398583642964736 8.81402787372518 -0.367272059287361 1.2187576629468495 -1.6705269707473425
Ni 8.92686766690807 7.435853511520146 10.37595567778329 -1.0406123526592532 -0.08914451747715615 0.065846466181164
Ni 1.091773388506634 2.855532346472192 6.768463094042351 -0.46789860926218774 -1.449535254718181 -0.6282416012610406
P 6.192576780163042 5.510202251743568 3.188097236476182 -1.9902660174507467 0.5832866338169052 -0.17875363329555669
P 8.172758531194773 5.0997229399245105 0.5120805600641786 -0.15759885359481243 0.35504954907924013 -0.43284136054773836
P 1.7478199862625279 9.216668831441382 12.988684663133661 -0.222936498460358 -0.15762533595737369 0.07203022639437272
P 6.915371284911694 6.659812129112355 6.707047262519655 -0.869218245052561 0.2550835155065478 -0.8459813860118075
P 7.202078848332308 0.5559238138037362 1.238087792654943 -0.7650607991063405 0.7523909169481557 -0.8746036777341905
P 4.144123408157669 2.4953632999127575 12.286065054954886 -0.5949316742550012 -0.37528747339266977 -0.08175233877814307
P 3.268874393649268 6.07194480602823 7.327477738569728 -0.2209742325276646 -0.31999230036479087 0.3031346053775037
P 3.342271234376779 2.695016004559057 7.420168492147264 0.28990062318573295 -0.6476161491329105 -0.46520255048726333
