# total energy = -381171.9475167913 ev
CRYSTAL
PRIMVEC
9.19424114014714 0.00000000000000 0.00000000000000

0.00000000000000 9.19424114014714 0.00000000000000

0.00000000000000 0.00000000000000 13.45670127673789

PRIMCOORD
 96 1
Ni 2.892949625834483 2.8211058245827014 6.213214486439676 1.7490255784748783 -0.2540525031388722 -0.09717767219427781
Ni 2.5658461043173806 5.425852763696126 4.57428305707213 -1.8688220165099363 -0.38791647501058996 0.49756476886805273
Ni 6.065036416501844 6.923686608324713 7.338611683565488 1.5701842705615217 -1.4917594534947147 1.4136902199951136
Ni 1.5429683750029148 4.643808990100777 6.6048588233710515 2.2692301962296337 -0.2559276086743979 1.8850364214862696
Ni -0.05092230525121497 7.852047537425676 3.683583579044568 -0.37652160291008707 -0.7201210011708565 0.8761990472457684
Ni 5.029792432684736 8.375466498452383 13.284052167952819 -0.43590380152314606 0.4653449896023986 -0.1224243625762085
Ni 8.862816450992943 3.2990408740669768 6.84200588834254 -0.40138159937656037 -0.47957578848979987 0.4497283661110642
Ni 9.109525526880972 9.248579231786522 5.53417655601864 0.4696148206223461 0.17085391883250575 0.03819887966722454
Ni 7.956779139685599 7.221340975067123 5.908810627183965 0.08722390341567558 0.024041357219919887 -1.1299481602116088
Ni 6.993507676497996 3.8168973191278113 8.25678999046446 0.24246711229411788 0.22579299407254663 0.02631009864943856
Ni 8.307989961801905 0.9610280683187226 7.537071220138301 -1.8735348486045733 1.6146337591241482 0.8991890803830385
Ni 4.751096591432622 5.269375971591688 5.252419951849107 0.39719815742283204 0.333029078944091 0.22309333575319643
Ni 7.500579276553925 5.419701816289235 3.7861775202101695 -2.304051160563561 0.22197336321614028 0.049426372951927776
Ni 1.740846835527723 1.0462311021298643 9.97004306910495 -0.4025614786172745 0.5111988147117196 0.028722564745673113
Ni 3.144099520253945 7.667850107904534 1.991605055269257 -1.3309276947849014 -0.004224065383676596 0.1526278827427823
Ni 7.651107394559321 4.861381515417154 1.3082081350640558 -1.0850181324681378 -1.6989019223456097 1.2028214513325672
Ni 3.4356029395894634 3.372760300537003 3.6945375980887674 -2.20924661658715 0.2908118221460927 -0.07679293789033872
Ni 4.780674465585039 4.143513545857821 0.5585510763278567 0.14667475048314094 -0.6708013290001221 0.4296282529270794
Ni 6.355703159882165 1.3546611196359142 3.2117921215741707 1.1565984158092857 -1.5645718094707508 1.7006091348447034
Ni 2.617407409336576 0.7629565287273306 2.7074346615399376 -1.5247739607475224 -0.3352947350498161 0.3979993131678887
Ni 1.021480204642048 2.9294875406251903 4.924022800585891 -0.08584990588628441 -0.5642609846440217 0.3046644117584688
Ni 2.782250960992987 4.117061713735812 12.610315637045703 0.41331974557504303 1.7008189368626643 0.8853010095470366
Ni 3.9351352618073494 6.338611065368847 12.719920187176559 -0.759237507556344 -0.754916511583487 -1.911081953620412
Ni 8.81918058194496 5.739358002380955 7.446104316477563 -1.1962715660291916 0.7013195521936374 -0.3306700917936112
P 7.065838772536871 7.909557516543911 12.895704885939395 1.0351011930330367 0.11310694183002455 0.07658622119617133
Ni 6.965262967329136 4.825514780238858 6.05675332454539 0.11981392153655496 -0.3341400526200826 -0.20009070421043604
P 8.142171820571308 4.303612869021025 12.446682047539886 -0.7176648263208801 0.23730562269783648 -0.5078995751351576
Ni 0.026072109957726873 8.26617455252457 8.013842278678313 0.3103439786417494 -2.0641399819220774 -0.1594598180629512
P 6.85050044784811 8.472539297737807 4.0612057786213125 3.017458240049352 1.4768393418497725 -2.808836615549769
P 5.7792610094749834 9.228811613064826 7.210154341718896 1.724441975598243 0.2509880052809355 -0.34008495734960786
P 3.978348195757103 6.325858652733037 3.4033210390807445 1.507733717435784 0.07415344338496262 -0.46785130096402006
Ni 9.114729467437476 8.936250855983728 12.566419570969893 0.25470016402520007 -1.0613470141034433 -0.7599044517163815
Ni 5.058239415161446 8.955236964197821 2.205727901262666 0.08034414557670679 -1.0958902992959514 0.20992054581666428
Ni 5.612431501705137 7.690863293793094 5.320012335939534 -3.208461123025907 -0.39080330964008175 0.7225625207328137
Ni 1.4558069678021355 5.757902787014286 11.103904484740152 0.09374422103269661 -0.3144592863617036 -0.18299286818788485
Ni 0.19192794757751416 1.065345929721681 3.356330191394831 -0.07235572805459152 0.08088947655721553 -0.8668178631411845
Ni 2.8703501808028893 3.9014567560503397 8.46429206332229 -1.249498800784448 0.1547079052002626 0.2892452489899212
Ni 0.9195160690031613 3.205020562881832 11.354939451143792 -1.0496425811823213 1.450585036138934 -1.117935709131765
Ni 7.181557493109552 1.737739181979847 5.571397602935403 -0.230082622586836 -1.2591514933828636 1.066551441122518
Ni 7.368439641080337 7.200561989806177 2.1185830436961646 -0.980244650204473 0.005190800172320093 0.534759375640479
Ni 3.2717523659897703 7.1451666861791 10.160011723868699 -1.7730440528766624 -0.8824740816212027 1.3424570355807397
Ni 3.029493302874439 7.972997781278655 4.635228004727308 -0.35859638589023407 -0.7257190640839244 -0.19112783859019342
Ni 0.7969402832943687 8.058651332911827 1.542393734923796 0.7875813488063598 -0.32178024550314904 0.0054962472278808575
Ni 3.7446305827777975 1.3468827915249586 8.713887211543687 -0.3184522095711806 -0.4958588419205395 0.5160756831880468
Ni 2.5006957107071774 2.6897017284103875 0.9542969642879533 0.5461689030290012 0.3854585003884007 1.8108955765067971
Ni 9.013096324484161 4.64368946496432 9.443172589907022 0.8959140091761926 0.45896068334260953 1.5117654643029965
Ni 8.650319146855347 6.447176666236654 0.21140318942695419 1.6288203350371755 1.4591033580225905 -0.9139806368699163
Ni 2.230559708073622 8.51822548258809 8.39992869676445 0.5850871773607537 -0.28133190768011546 -0.1539198620813285
Ni 4.911195914595827 3.316804148192705 9.189837224338653 0.7479210541022604 0.2671623010479528 1.567993690668106
Ni 7.936027737148452 3.1209851977114598 4.0353010038546255 -0.2100491009747286 1.1000295182753055 0.7772941079477388
Ni 1.635287751553867 6.112202874195936 8.4790810003985 0.6684009470887456 0.24716965997610976 1.113193309350773
Ni 8.258239922312093 6.625940299169645 11.285072411764178 0.14350355184401092 0.1171857398850885 -0.8078642674251119
Ni 5.708419380521185 7.198171487077042 10.805636862105308 0.47862216632727894 0.9287156290872457 0.8537656579429167
Ni 3.761906562116433 0.17713257453241982 6.592613013428993 -1.411577287417169 -1.0458406909377278 0.8088705972024391
Ni 6.553121908343678 4.547094766224722 10.650763545677645 0.43268143793110647 2.513265681452136 -0.6668932521949675
Ni 4.806197679339191 5.917496426907865 9.09772563764031 1.028535366890061 -3.056336148061472 -0.41630685322782496
P 1.1497858415077526 8.127626530888646 10.648341782528206 0.003286641171071759 -0.5131592808722001 0.3367556358660587
Ni 3.105823893863983 8.90193794757937 11.645752382960241 1.0582845731280355 0.8928518253111011 -0.3176744508648916
P 0.49541973809964646 2.729595541263149 9.148134904228888 0.2982016868522606 -1.971980331767681 -0.9689348816186087
Ni 4.45838872649127 2.061992488704519 2.204772619595138 -0.19601679125137855 0.45097149448954593 -1.308938849218636
P 6.078892138089562 3.458616125478024 2.293788505259251 -0.2527916341485775 1.235428181623995 0.26017327132462936
P 4.979233299963524 4.462516940819662 7.319894047196359 -0.06341625947311658 0.0006954834051278345 -0.7434200809081132
P 0.6064696229575005 1.6918139468566513 1.0583104963050103 0.21126471854938453 -0.5541501214622649 0.8489065300784024
Ni 5.369648366837649 2.9832922405132662 4.683618215933892 1.3255615453769818 0.8599895273654415 -0.5103963734150823
Ni 4.1400657053831065 1.5864387477081139 13.1258955879691 1.0419734946728376 1.0687083395645207 -1.5918725541682326
Ni 6.674210065815647 0.5270828661711702 11.691814612278298 -0.05361804243577218 -0.013966489482421109 0.016651235403435837
Ni 8.273502362813495 1.967071141875316 12.959435688698141 0.11008512428456524 1.0044503009163992 -0.40478728262399966
Ni 0.7282326377383871 3.436154594065418 2.781890546735364 0.7747366316332076 1.4489508429696207 -1.7177267683615964
Ni 7.085735110636289 8.509417399455353 9.035690252970996 0.09618111260896338 -2.495638455288676 -0.13343305498188635
Ni 6.31842051154892 5.90138811621 12.83606460111985 0.1530413161311171 -0.9787091873965531 0.14710078227696602
Ni 6.442505991673574 1.4142673857627766 8.972646260034812 -1.0408938884554138 1.2808127804063814 0.6227736361679339
Ni 4.068083990512337 0.85205148486633 4.481350424628742 1.8042407901944408 1.5110157306211653 -0.713175680201275
Ni 6.205892192695509 1.2719221424840348 0.6842446292499177 -0.7692113309396043 0.43836023348343855 -0.6773928661747107
Ni 4.876708315607417 6.374404246617016 1.2684163782893452 1.436084528529914 0.004316625097482888 1.894120386065409
Ni 4.63973594121998 8.139358382743941 8.709742447581018 0.2474095439010578 2.8541813622331556 0.9392090724194018
Ni 2.7764769774779987 5.200189306065753 1.8886074869120826 -0.6723409055731001 -0.6581291328490924 -0.49233488792768115
Ni 1.7545462550139213 7.3215398163829555 12.893686749981528 -0.012232280400133771 -0.051595355578788554 0.06341086015647789
Ni 3.6670955461824204 6.783262961470546 7.161481867305448 -0.7614908223668949 -0.7364037974912802 -1.4320232139763467
Ni 3.2049929801580337 2.6844242339237576 11.03130583628044 1.8842494068086002 -1.4777672529806807 -2.0218237376523693
Ni 2.7613156736305213 0.1769992580340642 0.5309168647790525 -0.9103114155484453 -1.4465553461542506 0.3096063291447765
Ni 0.23985752729667706 5.1253297936787545 5.038040586524379 -2.180226060985084 1.1416078559377243 -1.7494423542973225
Ni 1.2670859715781688 1.255271371551481 7.051634589205174 1.6664553717811301 0.3738324861136981 0.8051319560956134
Ni 1.4767238666820692 6.978723336542421 6.241944651547375 -1.0041769926503545 0.8871144086066916 -0.11636581508695443
Ni 0.731573825014417 4.128140774461228 0.264604747087987 -0.9596292879469667 0.14679610655235364 0.18267842227125958
Ni 7.9156257157794085 2.6863826073133956 10.64056345441725 -0.5185292869348619 0.4493874378318777 -0.4736008018532876
Ni 1.669003034275941 1.52447875581718 12.531593623902898 -0.5318897674021679 -0.6244368828029697 0.11334708286528866
Ni 5.059636939833863 2.1461289905288163 6.836017679006056 1.0401894061892216 0.516008320285221 0.5511882106204636
Ni 8.621945718308764 0.6014872636155066 10.32556966807147 0.7789254729035746 -1.0785983449847232 -0.8558127702799325
P 0.11784259030510467 5.839483289766662 2.8715656594982417 1.1092255829522768 -0.5409513633838039 -1.6670081589608063
Ni 7.8517900986702305 2.396387043545485 1.8703605956957674 1.847906863623824 0.09505728341716532 -0.9997518669994654
P 4.879420616780859 0.9842894987214621 10.638908490989387 -1.3194148090492954 0.6476027793964718 0.0022988233365057184
Ni 5.854938809334647 3.004705628421559 12.031851672984152 -0.5220979781227266 -1.5030314268641083 1.1562263771818473
P 1.9765044334141344 1.0143638619022375 4.901549316659639 -0.46533084853501144 -0.7442950273138988 0.21781357541149582
P 7.44634244732635 6.076602772014352 9.232454371454375 -1.3483160654646777 1.4477727635011195 -0.3989197680996291
P 3.715714693996526 4.793426878220849 10.677408456866237 -0.3991879341593512 0.6776967705683749 0.04288831472309388
Ni 7.982458655541272 -0.05779040347684602 1.138035601169926 -0.06086572513712099 0.8867189729404857 0.34637284724084866
