# total energy = -340870.1701396752 ev
CRYSTAL
PRIMVEC
9.26397022318143 0.00000000000000 0.00000000000000

0.00000000000000 9.26397022318143 0.00000000000000

0.00000000000000 0.00000000000000 13.55875683808666

PRIMCOORD
 96 1
Ni 7.843183066456046 2.7069692118671522 0.7651733853808558 -0.49386212320548495 0.3512114062800725 1.3539177279221715
Ni 2.2727113345777084 6.790934986587425 10.715987539163416 2.131621412603503 0.1458067460558908 -2.443216490043534
Ni 5.567961195895203 5.392946266768312 2.9254914516626616 -0.3836425302255844 -0.4490904754167492 -0.06680394499842687
Ni 5.322753162915121 1.5809613995346148 5.618246953718286 -1.6422952295951587 1.448427880586615 1.8296929117189584
Ni 3.6396842814391244 6.3207051121669355 4.69469209809511 0.2397589693343355 -0.7137228109539967 -0.943597945515717
Ni 5.804979879026239 8.773118944902777 9.788311143101508 0.698699340961971 -0.25978632029885584 -0.4549880718481067
Ni 5.065900319120277 8.286315827405428 5.44259373702963 1.0315787817020752 0.6976788701172565 -0.5277379500173234
Ni 0.4844194979089324 2.332028537160785 8.278502594755333 -0.05914540001190458 0.3605208566064565 -0.3373616448811738
Ni 6.330033930377331 6.404377292977547 10.16163803416115 0.5031823721651464 -0.23691790034111454 0.4011358019143414
Ni 7.083055765761587 6.620616890462193 1.5436377891196595 0.6175478689926204 0.5265871242423318 -0.21087005421412716
Ni 7.901119937446919 1.9351600444762604 3.219784631899721 1.3776963183990079 1.30679943427813 -1.2649989533025763
Ni 3.912628641849118 7.799114359180129 8.702484876057715 -0.6081461160627462 -1.727465078695283 0.8743144286285459
Ni 6.855467804515539 3.2909606430142047 6.783472858416151 1.0619522517876099 -0.048886698398373875 0.29565449495037466
Ni 8.550329720332979 5.456052433252134 6.721604358380103 -0.2852708377232055 0.012208883361366071 -0.27026176590888296
Ni 3.645224135748773 0.468421547394999 10.375378212427162 -0.8232271230344275 -1.2429036640654334 -1.7281916724486626
Ni 3.0328756911538366 8.099433752173754 6.448815632673122 -1.8604569323746927 1.4821021329106085 -0.5568754908132281
Ni 1.5805908407179157 5.920529382043373 5.758377475841142 -1.2434577367966908 1.3426385554639264 -1.8610655124929691
Ni 0.8617549089682159 6.39593781592723 12.259137117042075 -2.4768945990222697 -0.4472976451823845 1.5180281573832566
Ni 1.222241937029242 3.3780141730271946 5.723151228328702 -0.3657440526786088 1.108074242956653 0.5843711251303355
Ni 4.601617913707805 5.027816136734048 11.575558003907192 0.19544523501862468 1.2323125188131487 0.14682001781175358
Ni 8.581929123426978 8.129096985450502 3.2426990627273398 -0.8323835927227148 0.32283414068896016 -0.24404576963514743
Ni 0.08154239401163522 0.30380079307651164 10.157570224750838 -0.046224063964546196 -0.8401969181195464 0.07170421051352166
Ni 8.002949500275777 7.347310521919992 8.302406417623537 0.6719369852664622 -0.05397311178234576 1.8629794416862302
Ni 3.8763231417830437 1.6893683813598785 2.4712873196673577 -1.4284403817210949 -1.7655405454107655 0.09819274372235347
P -0.20183041789730768 7.163504084866919 0.6537139253030346 -0.08333151033980488 0.10540520231039266 -0.12769820938063814
P 7.003959986337207 1.1086008119181063 13.163723066838433 -0.7641267173278453 -1.2634542345232755 0.10048822462474952
P 1.9114350162371134 4.483696834263797 4.000376043246376 0.3264845929573538 0.4278824738805663 -0.005875227833854398
P 2.5227458961452927 2.4380639425591757 8.516214222873595 1.8310260287080853 0.3243940289769123 0.8580853683641931
P 3.4892374018593695 0.9489640736842192 4.519337181253897 -0.18459440834704982 -1.9647331632869647 0.4162757428795734
P 1.8212873201046877 6.784579902881038 7.936116438493005 -0.13860045811543872 1.3767948896306612 0.9520972412359796
P 2.3341407224159685 4.556789560857656 11.387254835613478 -0.07275887703028115 0.3980607625334435 -0.011150103079548538
P 8.389182954921043 4.0417776534391034 8.300156199209132 -0.8015498951713099 -0.16322931240771243 1.7732075750377203
Ni 6.189647722670951 3.867615009590619 9.735472235031368 0.8481082025468233 0.48458841121304286 0.03856346209549488
Ni 1.8923882930587899 8.616993251457112 4.094934315694561 0.2764208435317433 -0.28718065315140867 0.35786927791622236
Ni 0.297524453118674 5.55210127854049 9.53684993008963 0.4421582670732901 0.08345749439470787 -0.48216977446922127
Ni 8.42706332995809 3.5692873702367502 10.764188903642568 -0.29279542823502475 0.2311339466694858 0.09793280519274747
Ni 3.890876839308893 3.30098425900591 10.347148115373997 -1.5459765629670665 -2.0190821703514903 -1.1750651071549054
Ni 1.7451745391547333 9.28138668185741 8.379596598333043 0.3481952451615681 0.2171761989378131 -0.19203646644739183
Ni 1.20953176961647 2.3211155800090024 10.721831251702758 1.6018322364841058 1.173792925310701 -1.3706334980149555
Ni 3.7259966938187157 6.024832424973697 6.944280562510807 2.0796864142971083 -0.4519999357540602 0.476756830983766
Ni 1.6207501524776593 7.833937623979408 1.651158208975971 -0.3546219746235183 -1.0937650254228324 2.1468765389903606
Ni 5.193298440301359 2.007974851957595 0.523031726608958 -0.11517153766853715 0.05141820657097597 -0.08962454243736823
Ni 0.4995244016746214 1.1931715978592132 6.075299756616962 -0.3730891801897704 -1.1594654529444355 1.105463030586051
Ni 2.8470311806089197 1.4160071422810983 6.617418967874081 -0.539093998460091 0.9006204135129264 -0.9390126401378794
Ni 4.615421229629839 0.41887968639643924 7.5994396671989675 0.3792832248156242 -0.5783542295122943 0.9966472599322126
Ni 4.856692075182495 2.785286817776465 7.930489502861433 -1.3029175827252206 0.27526101889568727 0.055518087671962445
Ni 3.37432711280104 1.7716787585191223 12.099970062108353 -0.32680803773504363 1.1050979339371485 2.3104341812717695
Ni 0.2875323346263881 8.040533428259465 6.673511382354835 0.8279831496621741 0.22240222322344277 0.007324301575555128
Ni 0.9054447198540583 3.8021465306503406 2.074449398085211 -1.6567036917110047 -0.24334514402369703 0.8901588518599702
Ni 3.1382440906821696 7.611185455291281 13.364501097696316 0.17619667120165783 -0.22248732673808136 -1.1372814606482287
Ni 5.186165183079906 9.059635021974367 12.279542864680641 0.2928712757782827 0.4831537356490453 0.3295025538480712
Ni 7.350080449074817 0.9055049356617719 11.033492523678495 -1.2364795057066447 0.7874291394992116 1.0490519987861737
Ni 5.909181018281969 3.0017394865807114 11.9930323459913 0.7945924900168703 -1.5326304806774635 -0.851728830018546
Ni 1.4210560061586208 1.828800400113258 4.009703935059729 1.5105714439948952 0.5510917942519155 1.6093360010603186
Ni 2.0038894410034893 4.7043646096079925 7.551156779780142 -0.5766742707067102 -2.833340000007772 2.525035163283239
Ni 3.395652772702062 3.985184058158763 13.438314561188655 -0.868986074437097 -0.025195525429021128 -2.1629158518414107
P 5.447436940763884 1.6978727062031183 9.940589509632796 0.45910003713395126 0.1427471332939606 0.1639232531509435
P 3.2980661083244063 9.146920151247794 1.2949585464241513 1.4052428605587088 0.6144157511215418 0.429135629561377
P 8.370441942766497 2.734334980480366 5.215050242841585 0.48260686200663977 -0.30115279906078457 0.3552920041073494
P 4.457831828858214 7.215159983914746 11.007649751801914 -0.404516031240484 1.3559470996473744 -0.10899626209576066
P 6.107096482280854 7.565940223772345 7.629512367968167 -2.7813916319649388 1.0542453700616552 -0.7458284332392897
P 3.8169688833182964 5.745597828650239 0.8703490943245054 0.7805354977031719 1.5247963293450257 1.2205535785050075
P 1.6139689261320695 0.47776148236989485 11.701464625851061 1.4486626223052406 -0.38712637500912683 -0.29059019305358985
P 8.818419760244216 6.8613318977898 5.032522233706124 0.14092884913829923 0.3675669648199605 -0.8544912232550316
Ni 2.3209858844231577 2.4076966475307007 0.8640477416465404 -0.8774969401215855 -2.9932543891096386 0.4310284757087157
Ni 5.54044720375531 4.373094291449592 0.20197123024765326 2.326223582895542 1.326571988919367 1.8338159327483967
Ni 8.417502912487258 0.40523107878037695 1.3391550964918293 -0.45226758759315017 -1.3699069042615761 -1.0059022028715772
Ni 7.820912481572442 0.5043777957763353 4.966274654853735 0.3364399043978529 -0.9845157667760011 -0.7430932936963137
Ni 5.8167543854268455 8.999178351029942 1.440401029184387 -0.2733136653613293 -0.3071923203866451 -0.6506127698673891
Ni 0.7479461059925239 6.252865056799783 3.202876959490792 0.34245037225799085 -1.3092576660106354 0.6178849406170649
Ni 7.528115432557804 1.9402089083537832 8.940088115722093 -1.1385515856099038 0.637193925358322 -0.287633167307795
Ni 3.3201050939475736 4.000414025525089 2.389039011109911 0.4909722032521996 1.9746337102301283 -0.7813502802949834
Ni 6.776409080972829 0.5231873613119715 6.860323977808378 1.1196768601925877 -1.303216344912562 2.4372882974845576
Ni 8.36921909867139 4.626176699284525 13.234119978040807 0.7149602829055236 1.4995871770692497 1.4775299401588942
Ni 4.096564774488036 5.284502229061378 9.193040827971181 -0.4635693857592146 0.5908479911039308 0.018601417151271192
Ni 1.53105639089569 5.5514528006112664 0.7305011232993812 0.7216312671677959 0.3750555598875218 0.28325303596222834
Ni 6.159799209985854 6.138992332428211 5.348346733987473 -0.4751915433791752 -0.1851417962100876 0.3721376149097785
Ni 1.0603911098655792 3.536780098041839 12.77327080006505 0.8245550978172316 0.9559716365897214 -0.01176793916920554
Ni 7.918026683458807 5.0484562628241765 4.125075569844849 1.5916642948121684 0.7978925009243808 -0.1025070548269912
Ni 7.695524641971951 7.95250718135264 12.134843352347888 -0.3100565293083177 -0.09526065767722304 1.2326151376552321
Ni 6.430029227063529 3.4973248480338235 4.469047717842647 -2.0133169857329394 -0.5245197001903418 0.08672073852701193
Ni 3.7074965448950237 3.0827621718519262 4.502035790102226 0.3813015407972336 1.4503366675735538 1.3053341625865134
Ni 1.2971504018249254 0.16151547143455058 0.20145615349244178 0.6453268388781015 0.6270709779917072 -0.3345354882862884
Ni 5.427139581579203 6.778095123588809 13.035728345962466 0.5815513962933532 -0.1894561073147253 0.34398377818338177
Ni 5.833642603497898 1.0990311304768572 3.630438838962487 0.24329269351920682 -1.7331099356858861 -1.9901387478442627
Ni 9.194092288613565 1.6177208341511458 12.622077244469647 -1.7131334925639592 -0.5468345616374582 -0.6269239108908816
Ni 6.1063461006770385 5.400450082806464 7.889081407889415 0.45676701812540044 0.19282168135284855 -0.7731425476732104
Ni 4.103253361129451 7.339287923538461 2.6581267806351114 -1.345273164873296 0.2622910889985805 -1.654019202900306
P 0.7148514980731449 1.5240250373488282 2.237534186108481 -1.3220121374628264 -0.6728283867324799 -3.331073690353522
P 8.609183724395182 0.3194161416122034 8.116204317820504 1.1517320888559197 -0.8269271975938338 -1.4687172269632707
P 8.058607434543953 4.621692937602468 2.0572026643590022 -0.041130451491722717 0.24640424256499496 -0.9197658760931255
P 4.885845790086281 4.366915223181138 6.209300309514577 0.6044308719946881 -0.8386231458745234 -0.7597494141957561
P 9.04808285086378 7.388748261597347 10.652938809296181 0.19356781549025373 0.11109453938568609 -1.424372125188992
P 7.04863085169026 5.094146164923152 11.82140617724312 -2.355600750506079 -0.13304121886010636 -1.482586014525563
P 5.4699298609375075 3.0902381959788268 2.53501324577211 0.5719503828684795 0.7405944385338601 -0.45218196985787934
P 6.018884955965679 7.8305470108066135 3.369445926788074 1.4698914497770297 -0.05904024189260799 0.5126532877700591
