# total energy = -340872.92102745135 ev
CRYSTAL
PRIMVEC
9.23734257713759 0.00000000000000 0.00000000000000
0.00000000000000 9.23734257713759 0.00000000000000
0.00000000000000 0.00000000000000 13.51978458653858
PRIMCOORD
 96 1
Ni 6.50823449557738 8.102424344633226 5.29464533742458 0.09592785894757673 0.7417974577030256 -1.2306934951524868
Ni 4.201125007798661 7.806921750075908 0.1213860736029636 1.0452046000156257 -0.2397566553414903 0.8995909438071475
Ni 6.2123624073100805 3.760346723819557 0.2838090423706939 0.8107724422108423 0.6336501738711217 -0.09212056938634458
Ni 7.763700223350878 4.573149749693048 11.584413905772857 -0.13395087515856932 -1.7679319284610777 0.12765912861258658
Ni 3.9548759247818124 8.299235169254615 5.228898550404832 0.9913340752494153 0.4995928550416751 -2.7990764508392116
Ni 1.4159460833610036 1.3918735681557404 3.442407547457916 0.872869211541587 0.3713320882893476 1.5746515623042558
Ni 1.6239802794230656 1.092251118732134 6.431780704576658 0.40395707341322035 -1.955542755036948 -1.3527195938490122
Ni 0.4670465155559298 4.677171466395453 1.0497750455669912 -0.1486850960449504 -0.1229079870808464 -0.21901222370528733
Ni 2.97042459593664 5.222128501903706 10.19766244417173 -0.7329392359814474 1.911681277767308 0.2963137258009284
Ni 8.141396693693473 6.436728225353304 10.28866412626868 -0.5816128456589081 1.4108944024175316 -0.5061473683307413
Ni 7.191335991904784 8.352673197060618 13.18348014806618 0.7646147127078573 -0.8186739564461061 -0.1592836974964031
Ni 8.118275624791412 2.4492629553511653 13.031220103791476 0.2473108135396644 0.06421638677690875 -0.18088147827183687
Ni 2.5804516970799254 8.563192238322303 2.4530567320183954 1.0255693422832015 2.272388796463274 0.24064754258687587
Ni 5.870543776206642 2.5099430598727976 2.505972849959052 0.18418688849598602 2.0167491513429394 -0.06579427278698992
Ni 4.2098635340397115 4.098645927335426 12.188410493730427 -0.2356608880055619 -0.8560441695644483 -0.9422861686828287
Ni 3.5313529970588213 2.634222269224913 3.6945786909114857 -0.2656332659979361 -1.7736618889663198 -4.4377901337307
Ni 3.7906544453807496 6.512806980238395 2.015529068952849 1.5333359913849205 -1.2430934114787364 -2.210761253459464
Ni 4.499777536233567 1.0389424137246228 6.1371842933430685 -1.4720465484468197 0.33619822070069194 1.268723710452331
Ni 6.950001175230683 3.428901628623835 9.101654498143363 0.06827024513130822 0.2809866085255548 0.014178862603543322
Ni 3.1145548548574853 2.879178124256828 5.7102841931108514 -0.9414996682257913 1.48125264042612 3.201109824867158
Ni 2.581901959891601 0.1589949908733814 10.388250994717037 -0.3356369488805832 0.2269168232643447 -0.6729661978619249
Ni 0.08053207782463753 8.806429947602807 11.499766591753307 -0.40425634982119407 -0.15535839430006793 0.12152653335228748
Ni 5.779629848865813 3.6951865080644044 6.574441302266053 0.34647363448477103 -2.5300290169534043 -0.025964542384561733
Ni 0.21967879033211368 3.414629934075818 3.3646688420807354 1.8638114506692223 2.550679346213904 1.0153494643274061
P 3.892847168218749 7.095452374164711 9.599493695754836 -0.87207139823064 -0.24031638449970225 0.9263995793595594
P 7.963771829962849 3.537939222439233 1.8401377946990602 -1.140312019944436 -0.8218500401812427 -0.8986607186833941
P 0.5213260652864161 7.929621373817854 7.464557192015972 -0.8612108013670523 -0.11913900695671739 -0.19790012431702048
P 4.81271099655924 5.550950191758562 0.0879838422206797 0.624325554036086 1.1954974068673283 0.3133539691126668
P 3.6048822453450438 0.3040360517893297 12.495647284782466 0.6264312875251791 0.7768958440680556 -1.1144310384126164
P 7.717402661490257 8.641700414350518 3.2553753738711753 -0.19785255890853667 0.06287452803703367 1.25142198594909
P 5.205464335583562 6.684455283210076 3.6441501893732764 0.16172161751393438 0.18276378289621426 1.1228082067327179
P 2.964438797834948 4.667453781822952 7.079067175595602 -0.005537641988777559 -1.1904251345507433 0.944483947665096
Ni 2.6004043574189 8.334872837582283 7.756259543766135 1.024226455102062 0.0015658018252231098 0.4876066292140763
Ni 0.282308897908171 4.038455401979519 9.499825538690283 -0.41938832036662615 0.3914208886194227 0.6009704242499133
Ni 1.758512939227154 1.389314824214122 12.348795704687612 -0.8800988965208069 1.5854424822721727 -0.2242323344536461
Ni 8.400014578651936 1.9486451650406353 10.659133299644047 1.4266187551313236 0.3462568904882746 0.3176960481314464
Ni 4.055526011380641 4.057724498955029 1.4728859878033533 -0.8583080258979606 -0.6523192110355346 0.3528288872788375
Ni 2.969814931315171 6.51720395538717 6.060567925109955 -0.48813319114150766 -1.3526206063773027 1.1892311142426422
Ni 0.2335209484422775 9.219135946966103 2.1628277364367814 -0.718774257334975 -2.500472643452526 -0.40263346950579043
Ni 9.08817813880608 9.24408600973257 5.275812243026847 -0.9750888170351465 -0.029738407604697172 -0.5349694347687561
Ni 6.275961512140563 5.720981959749076 5.382835172388574 0.618651129359128 0.8757107947554403 0.6858515384650252
Ni 2.8440485097803827 7.356259509354811 11.806328133050357 -1.8058834680041869 -0.24652482730325928 -1.6168755039704734
Ni 6.6978217181686395 1.0217979055815036 9.454682644673351 -0.10185528017560525 -0.4402916461781966 1.4083814061876907
Ni 1.931195824586782 8.858297627141392 0.36704858535521734 -1.0592240542231692 -1.2488400841545266 -1.4396154245013077
Ni 0.426069663119035 1.9682652810406274 1.2774616883286685 -0.11362039113133336 2.3691646052334425 -0.465469945216037
Ni 6.974618693658169 0.9729231250937647 1.1584357557982086 1.389757106218284 -0.7118243083797031 0.1614223411059607
Ni 1.0424064172556948 5.751095697112529 7.887563752279265 0.5910174268022595 0.45735271542554135 -0.17405031428261636
Ni 6.065765777875113 7.91722485984799 2.0126765775117956 0.1573396863961548 -0.21728932747690965 -0.05437291832392572
Ni 0.16838844471537381 7.027770363838938 5.21855549772819 0.6284909982676854 -0.5322934305984898 0.5189951708276868
Ni 4.9703277758943925 5.537186551061769 7.536874500933457 -0.1513598146636361 2.4091002650861157 0.6495411340697652
Ni 4.895717758506476 1.7670667186132143 0.5232991616977147 -0.4199166820662703 0.8649682115269554 -2.4342307416051563
Ni 8.0571706025033 1.667026296635854 3.464931884018359 -0.8350182021320844 -1.815689141240699 0.17640467344740587
Ni 3.137020072424331 1.570717761129302 8.277907068580236 0.951558338013374 -0.23480831019727946 0.3152974659922828
Ni 7.166783134876546 7.326422892273844 7.505576536229515 0.04713809113838333 -0.042052449085359836 -0.2891357199952504
Ni 5.350703075634349 0.5857916328668041 3.702650281006021 0.39331013522233554 -1.642961145313932 0.41955878450621936
Ni 2.742742571846337 1.7998408106885304 1.3244834578608526 -0.15967733339039597 -0.2688255476829886 0.9720531155326163
P 2.3960373864284 4.481607683045251 3.6478811521098096 -0.7027789103479831 -0.12452829629308876 0.21169100745352573
P 6.194247978178261 3.0335248842586484 11.147630772532924 -0.06757861838092233 0.029790858109187402 0.9940365617822429
P 9.06211959490967 0.318686477390077 13.515079506885819 -0.6872705302997388 0.211305599089649 -0.606420134510575
P 0.8419902577591665 5.81900864100704 11.121374549501672 1.0802073413430557 -0.3441424152484331 -0.42905026893642245
P 1.5055390706886507 6.6783955863663875 1.7370629056284808 0.10393453130213713 0.06152521309799081 -1.2025278313515484
P 4.983888195050696 7.701144938251092 6.9054734882408715 0.6417586619108689 -0.3276909545606292 1.1797655979543684
P 2.2505307634378755 3.439164316418558 0.008497431595288431 -0.20401446474487445 -0.08433681167586767 0.12367546137449022
P 8.907421815883367 2.050043476402176 5.808478070272581 -0.10271145752831344 1.4194988562570907 -0.5411133428829649
Ni 7.243286807528116 6.095907227266813 0.7399499510765339 0.8302464917750539 0.006266035514369854 0.43986818548753276
Ni 6.874208777970827 5.271160317218187 2.7829397925551724 -0.598248140222744 0.5759965279133952 0.6294829298673095
Ni 4.417916204787273 1.7804701029427756 10.624779621958561 0.25172616899854067 -0.03248923087695695 0.24144227057402937
Ni 7.161998191332292 3.694355147216947 4.34158157550802 -0.14172460556671723 -2.2198447038179703 0.6706082391527095
Ni 8.481561840444748 1.8062977132704487 7.930516472330283 0.0010186710725014713 -0.6447910209792895 0.29663305681356006
Ni 8.569205748452244 4.112788299084949 7.278754508749193 -1.734629457654206 0.7609406062903799 -1.0508360872697904
Ni 4.505938843847501 3.7207185234240927 8.97347343521385 -0.46801842266950366 -0.9758892014492548 -0.3923094618719631
Ni 2.415602078371895 5.670361321481677 13.325708438114896 -0.07286094982578419 -0.36519460793304204 0.714093564029854
Ni 6.279250006159394 0.9811628348263414 12.144646734986 -0.08922884966084633 0.8131453133183931 -0.748820168877762
Ni 5.6418825937848895 5.555688948589069 10.221376550478311 -0.8528547160928732 -0.33260150448836917 -0.8392774916290706
Ni 4.5662864040301505 4.618320355738227 4.297277432212746 -0.3963548355859303 0.6108277766599673 -0.4532415214706452
Ni 1.1037423731125435 4.716614919935927 5.709512874991265 0.5006400653592669 -0.20765566104188754 -1.5987248012033757
Ni 0.74995214580572 3.818837578109551 11.91286333071491 0.8350644819889876 -0.32514941908569805 0.7714103954734521
Ni 2.441762233038551 3.079305154925296 10.139378506359323 -0.6031435206418323 -1.974269384912174 0.34100746916387725
Ni 9.079892242359756 6.6223618652477665 12.80128971047594 0.33641753580034967 -0.04207738878602431 0.39358755725343825
Ni 4.969524127075183 8.763688762700752 8.854350510584519 -0.4766892109706241 0.5461154240832466 -0.6358325262344211
Ni 6.4156116598278885 6.2777535566339715 12.243936160997823 -1.0214522347910344 0.7474783101378868 -0.21852602809748817
Ni 1.4070228102649622 3.0174796199027223 7.494909252822363 0.3555948800597489 1.5155642692237963 1.198518195971523
Ni 2.5432436804848373 6.7740759825659715 3.7287568590847293 -1.6146666692446128 -2.2994095480264916 3.3867517006421157
Ni 1.2123550491614634 7.416607069537461 9.689603050542182 0.7968663736527115 -0.20055761654452556 -0.3161050494952427
Ni 8.83749513126946 6.771471051910606 2.6668725809073854 -0.7850015038943254 -0.15041673402407646 0.12508056925213296
Ni 4.990945524911333 8.073105018746231 11.383644879783297 0.14803383561419667 0.6473711230016399 -0.8894821375079196
Ni 8.4435778870587 8.759929164201695 9.140591745301164 1.1978252836695564 -0.07445169135167178 -0.4503282044785921
Ni 6.691447951671467 1.1886612650089305 6.005272267677021 2.5750099525394687 0.774659498538369 0.09661871436701425
P 0.9800451163536487 1.5927026368731725 9.279656245458169 0.4517032304492479 0.16734590567924726 0.6536315020890548
P 6.963737103899227 8.474957140378837 10.767089200623474 1.2404600876209475 -0.303968928353341 0.4258813842901375
P 7.078982192042307 5.498796154594741 8.582588810627756 0.5152297902479837 -0.5877575251040651 -0.6596933920124186
P 5.424952836655034 2.4739636098633966 4.668908663306003 -0.4535122586335286 0.6368455408799677 1.0885348873721448
P 8.321487927938222 5.268167418167341 4.8935266608062875 1.1918094164927797 0.9355498784002597 0.18958646224500253
P 4.487519582404947 0.1983183589581111 1.7369271166900628 -0.24548327341262238 -0.6877772947328284 0.7364328509570027
P 2.0277260563193225 8.79466157293991 4.557884117065182 -1.8844445535385417 0.48973395996972435 0.9054887973488212
P 5.486251843140886 1.8229156928768449 8.066282317391433 -1.4298516602463245 0.80897215577731 -1.6135199572346792
