# total energy = -340861.46584574325 ev
CRYSTAL
PRIMVEC
9.34440245402340 0.00000000000000 0.00000000000000
0.00000000000000 9.34440245402340 0.00000000000000
0.00000000000000 0.00000000000000 13.67647753813991
PRIMCOORD
 96 1
Ni 0.32434793736199496 8.734614525144142 6.63504696407766 0.059224332878956065 0.23448975051559617 0.6771871779218079
Ni 0.9157074947615096 7.506376958455254 9.107247791880926 -0.38784936921808044 -1.655434338080278 0.5771288417456254
Ni 7.878134654707951 0.689746767932509 11.147285904431739 0.6863644735457017 0.32401067749556456 0.1472915581315334
Ni 3.620656823135932 4.772550624029915 7.064392342073423 -0.3694590396363508 -0.9098182779621106 0.3095741903552604
Ni 5.940255153409207 3.019017488900313 7.228523963010727 0.9569576546520745 1.2594916503311018 0.13956333624934028
Ni 2.7084095605009653 1.8608722829491955 4.070598197972398 1.0890421660258665 -1.6725740830843583 -3.477655366902223
Ni 6.046454284163074 5.727959680325428 6.840714452696527 -0.6854581596813485 0.7760612639819022 0.2273621383318794
Ni 7.113024348769017 7.006161765460505 8.723690918997969 1.0198679210230501 -0.440300387928945 -0.4112636343769627
Ni 7.4694572254496645 6.996723919260646 1.374813859254236 -0.06460359491299843 0.3123725790360039 -0.8293622893978877
Ni 5.007637094026027 6.928276173306216 11.23261337848065 0.8624025076823084 -1.566183891152877 -1.7658675897328815
Ni 6.53272762910813 2.9929372624212944 4.6866138949589935 -1.9502496249588088 1.7100785077877196 1.0353050815137266
Ni 7.244154344534001 8.81123862300439 6.824958856184068 -0.4410753184217565 -0.2826639962279777 0.4079345700037297
Ni 2.9141732964622657 0.5621414806690971 6.554820599177763 -0.04570804356007612 1.2987490531698276 -1.8755683340948344
Ni 9.44887259442997 8.920568128487917 4.093027566520441 -0.8524240563133577 -0.9462528666400607 0.2797861604595504
Ni 6.174042751502566 7.29547380129601 4.512184742821445 -0.5260083689207263 -0.5227944899691189 -0.7262492255557815
Ni 2.24178749333641 2.906538919882775 5.786626640520063 -0.2737731214962511 1.4444629824015962 4.481252832900025
Ni 4.400755550168506 0.23088803009750175 3.341724549239837 1.3053166790850164 -0.08443014272062233 3.038323770644451
Ni 8.049725911904018 3.562702840827486 2.9276142845552147 -1.66908663875639 0.3823801185733931 0.05257108922849656
Ni 4.653073097780996 8.483119284923323 5.919959111878419 1.0192565126912962 0.830724459852737 1.1268903472218916
Ni 1.5998177193002012 7.974419374750878 11.313701297261364 -0.34910258746718587 1.5973634020794747 1.9273930320756094
Ni 3.798181775715078 6.5245512772023115 5.4906268160457055 -0.4399232070951843 -1.3221800304992584 -1.4427316015327862
Ni 2.3488369646884837 4.555171796161262 4.325049072602145 1.8119677265250536 3.18813398143278 -0.9594739933160249
Ni 2.7413112005699816 8.176239772993029 1.9652959772892291 0.10823675822191682 -1.0705546487446402 0.030499197030121668
Ni 5.249647766036096 0.8003377677100745 8.0362709072078 -0.35349377455634606 -2.1262133542140544 0.4133485419304494
P 1.2105299245614283 4.968969957813136 6.052976676883374 0.9897186511331794 0.49379296053044636 1.2620858934208392
P 2.6322713715539767 4.540716005991773 12.61427948785207 0.062305800017757214 1.1782985264905383 -0.038970210615610304
P 5.590998777601325 3.470155881655791 1.0427782822203353 1.4797215484935742 0.891733909656574 -0.9228686833881655
P 6.586784995708318 0.33383157113252737 4.992132861932158 -0.4480070125445833 -0.004678122201959685 -0.5338885429997514
P 1.985881695287537 6.760291855350889 3.7912426226576366 0.3455454662435468 0.6412747802959149 -0.2884834311232322
P 2.0068038117642564 2.228770741102346 1.3212349260455662 1.3813462564467693 0.07698911306154484 0.43926757578905634
P 9.212702173781201 9.163513240715792 9.130443401407572 -1.9899885954196435 2.249259923755294 -0.7370396313030662
P 4.462540737369964 7.7063097874574344 8.10547368085822 0.7336298342905688 1.3476354944578854 -1.9731854078193758
Ni 2.5731026169623807 8.841701374104929 4.497016909205987 -1.0785145270216652 -1.6494475243692237 0.039176155978829307
Ni 6.144103286924001 1.9212464654217645 2.4760030650495253 0.7460762875840377 0.9824552847025466 0.8524423111458028
Ni 3.9937320800957385 3.0457051015209062 10.99963500561591 1.981301352058291 0.37898729084176025 -0.5735002438541026
Ni 8.478998403562791 8.08662695610525 13.101052758313653 -0.18846417571510124 1.228316767390194 0.3560185978607288
Ni 8.854138773403951 3.7794088717393173 5.483419478645753 0.4264038324525108 0.1313499472006125 -0.6240180500979963
Ni 4.651531271421613 7.312536679673182 13.321627371727208 0.7370236904634662 2.072603025087766 2.5887586695841285
Ni 7.868388443236215 3.721090457745926 0.6347502889134248 -1.152532473270028 -0.2497806152363956 -1.4832357322944199
Ni 3.9352454668631416 2.7841926621651867 -0.21134795070292067 1.212322448844467 0.22571766074992095 1.4105434468360158
Ni 4.8039010933373705 1.6337752768153406 5.596606353348389 0.016786218319403346 -0.3081585409546564 -1.062968608867266
Ni 2.245478532196751 0.05941918456996905 8.419061539112157 -1.4863927898661626 -0.4276346195358183 3.040820826034692
Ni 2.316056801847782 6.598306643593888 13.564411760237622 0.4254057302052996 -0.5528892524719704 -1.2573964583649702
Ni 7.004489117470629 9.01643235043283 2.8823172949969766 0.24208093259929275 -0.1363862240729393 -0.13602344141688189
Ni 9.339402922913775 5.810657639601428 13.185984029710212 -0.5906212198051054 0.3690731170518418 1.0074602913873165
Ni 7.091373368922408 4.43488130692285 8.953907086578866 -0.21139995857566815 -0.2563469556000037 0.0775670970522019
Ni 0.31388687912363544 7.420520591243064 2.31410101847191 0.2648421375552084 -0.9757634745046679 -0.459215479665893
Ni 0.6041455028997802 0.5597231493854103 12.744411501464434 -1.104427390232685 1.8997459597823025 -0.022874847715644474
Ni 1.005999649687634 3.8085727509371017 0.25607025952720697 0.1742601163005773 -0.5228639097544737 -0.3683814903014559
Ni 3.768382477169184 0.765238324248774 10.259299513171717 1.6357286321212348 -1.8271313216393694 0.7181098842780987
Ni 7.1755383993403665 1.1641162789429096 13.798745071418182 0.05773797814141669 -0.22897087757989598 -0.08622451561688375
Ni 1.1202069331081161 0.3851454212532307 2.0641363913278603 -1.2236031639646088 1.5851401205404057 -0.41993776511219294
Ni 0.047241559651496436 2.9933390717149515 9.504659609873322 -0.740720422588763 0.9487422087208177 -1.0300420333425746
Ni 4.323570788177572 5.4931535423946585 0.7993295067150599 -0.6978804446051013 -2.093959379276355 0.27135499897306176
Ni 4.0356043462557105 3.27290489607872 2.3952431347852596 -2.1319464000430894 0.17017489048761014 -0.034667726585514494
Ni 2.9191632072253597 0.44531215799744606 -0.38774970614026133 -0.21393583762364446 0.1894604781900995 1.1753525564883371
P 0.9366641855262875 1.1320369462655644 5.234234174643355 0.618458810842664 -0.44592030521888365 -0.9000483430595402
P 8.179949500657726 2.952251735337938 7.296551210867143 -1.5328716501539923 1.2187910872879464 1.2343038382115645
P 6.811499179286763 6.730539278815885 12.758689747992538 1.2039915603812685 2.0424272728353343 -0.12230326361731196
P 4.854809396403544 8.16723176929336 1.8101088181167813 2.1090021325420905 -2.927018915020172 0.21905824645187433
P 4.336260486335403 3.7081858383379984 4.441599932088889 0.8536353030126396 -0.610731103181103 0.9929980932153996
P 1.208745143745415 8.318695184197844 0.28398946435487155 -1.0470470525410032 -0.3001127878320445 0.6011146631372616
P 3.9373853349619212 2.3797949691044598 7.613024620513671 -2.4893572502656545 1.3728132792750938 -0.4867854188643616
P 7.045352188195369 5.047406869695932 5.199113239057045 0.08420439986306144 0.33007796673556705 -1.153668643757
Ni 6.100464928752372 4.842390685908877 12.912426655946948 -2.688689221933195 -1.0383477249947923 1.8260612285036422
Ni 3.094464192086123 7.419016142492394 9.638620025058042 1.3154239427223475 -0.340609205284194 0.7958106786946876
Ni 4.934479769373846 5.85082922456499 8.927936189605331 0.5066585036392047 -1.130668069096769 1.1303219986112598
Ni 0.9639965618971688 3.297078864513411 3.201608976340413 -0.4163276791634314 -1.1491285897948016 -1.603526079246761
Ni 2.261093028236321 2.477443971865385 12.097856429279442 -4.221868118914962 -1.322923336423186 -0.45649319563872354
Ni 2.264382257803005 7.362258243662741 7.018412276715967 0.6155508931672495 -0.14339762239376594 0.21211832479893145
Ni 6.349913744896192 2.6415036409059196 11.771794728557989 0.3282627679036992 0.007095730504516812 0.9011189504158997
Ni 9.457656332477365 6.204533535809638 7.52185689510346 -0.7388352897509082 -1.1090751734173416 -1.4449309231769503
Ni 6.215587963586305 5.470353201080146 2.322580129008299 -0.1743421344914223 -1.8106855173785201 0.7432966679563715
Ni 5.610724810599248 0.1205895101081101 12.110370452676326 -0.011211552445103272 1.059281646933982 1.2629402710013347
Ni 8.238333325466364 7.028279965416018 5.390897749359939 0.6126707434059772 1.3073648198632968 2.47314361662027
Ni 7.500835727963654 1.4215639033511653 8.618437441744522 1.305111505052746 -1.041018072738104 0.12330496540894893
Ni 0.9871706792988048 1.0928184903241664 10.454203184921655 -0.4830858585255874 -1.3650110096218557 0.9507859786237239
Ni 0.5747339970442765 1.8532005287609927 7.146287617202326 0.3670514586361227 -0.5569158571328602 1.9527381957086176
Ni 7.875770520956898 4.560208428935246 11.73737181981438 2.420272479652851 -0.44354409167722325 -2.273799560767871
Ni 6.274177365242861 8.5689382745268 10.186363650851156 -0.07508366850871585 0.6520225057307222 -2.052998106372645
Ni 8.483549127423515 5.693693757538412 3.7297396364019555 0.4783154337201376 -0.06209856910295756 -1.4591316401573644
Ni 8.302407891201453 7.090607127943806 11.016211040639606 -0.0020075173483320263 -0.378231129402026 -0.8438206309150629
Ni 1.2318351615274485 5.686199546991594 11.108376748202435 0.27634036800279504 -0.4816041317737383 0.40737972594152416
Ni 8.273141223579708 1.7660359452438714 4.2426893806849915 1.4354165559286118 -3.2360495741671365 0.24860767797421704
Ni 4.693394193179407 0.7711813640340323 1.2785824023037244 -0.7944515935636317 1.372177702573624 -3.9611258624607393
Ni 2.125487063828038 5.49290124353585 1.8953820946330593 -0.9434729899020784 -0.6983941510167263 0.5287193400939862
Ni 2.511485629000127 2.2598408783444586 9.416486765361183 -0.6155200399293141 3.0866507398846132 -2.958651454323788
Ni 4.108733637701357 6.230445563049452 3.0310493411448074 0.09641096923158234 0.9666162607877611 0.5815997330327854
P 8.931856166319035 5.334149194932465 9.554263434395434 -1.3634315809498776 1.2555686611276118 0.6121192417778812
P 3.6945523555601816 8.581618628282454 11.815259280849105 -0.7341710515060195 -1.3080273931479602 -1.4779328320242677
P 5.892757557138031 1.7123523547308073 9.969673505423028 -1.0595834944451172 -1.5211865005065803 0.6409865596315347
P 9.062603041594718 2.6507545990622177 11.628370302847307 -0.07562231462100524 -0.8961441229091275 1.1506069741125409
P 5.368667416578289 4.614910559285721 10.875753462620464 0.9178917989988644 0.9683232161765387 -1.6336892330937025
P -0.14483356155913618 4.940086410680694 1.7892932278248925 1.0968804311233626 1.867403538895855 -0.5200336393945302
P 1.5902583958720264 4.680274652521383 9.169914156207776 1.6054070983195576 -0.5896010060707072 -0.6229950081501205
P 8.227764806602957 1.6444185508961726 1.9505252807663394 1.0557978021504397 -1.1858300589808932 -0.18647722719205947
