# total energy = -340861.1117259094 ev
CRYSTAL
PRIMVEC
9.38184496429166 0.00000000000000 0.00000000000000

0.00000000000000 9.38184496429166 0.00000000000000

0.00000000000000 0.00000000000000 13.73127843666552

PRIMCOORD
 96 1
Ni 2.5706724857539314 6.92842698498888 1.267243354466986 -0.8287413679844371 -0.7238755831172824 0.568982301379091
Ni 4.719377721305294 3.195231300553387 11.037242666303559 -0.40661945073673195 0.7460996846228054 -2.217144274167672
Ni 0.6043540730417521 2.73660918127237 6.450789741917691 0.9076369540400755 1.257266617655325 -0.18169548953269998
Ni 5.3712752329295785 0.012024710954146143 3.1813311587497966 -0.29238482306016744 0.36665319475643954 -1.6198880655445522
Ni 3.0856138215893214 8.139238540759456 3.6101452795572917 -1.017394519781893 -1.2424020418386668 -1.665661672235241
Ni 4.00416213662996 6.475330772512881 12.502714089178955 -0.07334997364706078 0.6843662121687504 0.2906141043129898
Ni 1.6381264577199357 3.668113824492517 9.39555861289523 -0.3744114985456197 0.5968733713624044 0.2515119961052055
Ni 4.153089546855532 2.4615428627386957 1.8112928031262303 -1.1268137283476851 -0.41805494626718326 0.3144811407385745
Ni 7.894606927956647 6.035425434345636 3.4452330815313963 0.3158831632924237 0.6335005356671348 0.18607536376795053
Ni 6.319301305493762 8.58616149911372 13.062716427364945 -0.7903154599080712 -0.48549395374644777 -0.5879045922048907
Ni 4.196405526004548 0.05629107101886312 8.63418716453798 -0.5766133355617876 -2.245105535267288 2.4631402255506547
Ni 5.4264780099087435 4.7648702885337055 6.311500301235065 0.6211566693898012 0.6182636641127224 -0.4441716979588931
Ni 5.410012871635727 4.818356187846796 8.815192979768169 0.025012719994253696 -0.3828084643600633 0.5414139048425193
Ni 0.3226144480387913 8.025521195456182 10.221769869590076 -3.49633211737612 1.2203157514625886 -1.292733443103367
Ni 4.8593548512388685 0.7250130455861682 0.46600000232255645 -2.947700097518607 -1.446903987742921 -0.568590465257311
Ni 7.344249126605222 2.82275328362157 9.66892118834607 0.08208041154152315 2.1326879061948043 2.6047360188489916
Ni 4.361310218554307 1.8038942800253177 4.608615657230512 0.29380098668140364 -0.5573382893822595 0.1582573131144178
Ni 5.919953683995608 9.435509324181835 6.7486351805236655 0.77057041607066 -0.05026172436902957 3.227240974736571
Ni 7.033025176787098 7.213419295712215 5.392987637206072 0.3361992491419565 0.5304350372335123 0.8948786259331427
Ni 1.6025692645263536 0.7189701991122933 4.149894090390695 1.4905572056564975 -1.480505220737134 0.08396065928337153
Ni 6.4068339209280945 2.443191973586546 2.9795773929265716 -0.7774020942805128 0.8989828779095034 1.393944147716438
Ni 4.253878709514806 4.153127074236211 4.373151045343125 1.3280501161267901 -0.5742443211089788 -1.536613890805244
Ni 7.180761092676104 5.790737530471808 7.517889255192592 2.8944821187347314 -1.0770896216496806 -0.1558168219937252
Ni 7.8517506592209525 9.313188826857846 9.165861959418244 -0.42101042935108135 -1.0631141333061949 -0.7300729701772459
P 0.6908668819061259 4.892013054274978 11.47443289847866 0.29116252061729214 0.048900068134812555 -0.13325513464312536
P 4.181779229384813 7.808322097929899 0.5225209285480799 2.869490738896716 1.9480904125239613 -2.064204002390793
P 6.510128036247709 3.082020574889284 5.29056603348725 -0.5466859518747359 -0.3300877369275799 -1.2204139676033499
P 3.7243579862855314 4.982163204511688 10.18212782100956 -1.3378537324807733 -0.25750343780195006 0.05487479766100872
P 4.452164007178752 2.1922369971392843 7.96401850944549 0.7110946293025302 -0.31715303114378285 0.21685635370454912
P 2.1884748772261906 8.941761576585048 10.186055061397642 1.7560202646251561 0.8458327762490853 -2.9158916947587588
P 3.819386696010542 7.489367507691851 7.336100055890725 -0.06000877645346439 -0.184732733697127 -1.0490214026585545
P 0.8734610435235631 7.447289932105251 3.761354354528162 1.9570648481084296 -1.201459280877718 -1.133173866237758
Ni 9.075293378886961 8.541700934853987 4.921798536320093 -1.4464170208041736 2.629104677501343 0.36843856879163644
Ni 0.24597227847757522 1.2329527103713287 9.834025714197946 0.822598488311493 0.7993824552063459 -0.22670342170195795
Ni 2.0923766371518213 7.449504047565326 8.595849192436066 0.2892660749255276 -0.17080095410738325 0.6053400140725188
Ni 5.8030183657990895 7.386589393856577 8.10155073052781 -0.5820476192034815 1.2849304021191805 1.0162064130110626
Ni 7.498130151080454 4.671680420461978 1.6375785579620186 -0.9671399945017148 -0.5078856911780866 -0.5411958752944421
Ni 0.5639502186334462 8.74501490152895 7.527954098690765 -1.5069767846651014 -1.5525652719281777 2.6449393305407547
Ni 1.054040922983042 2.6455020828283398 12.186454903058193 0.6044874362642364 -0.02530376887211126 -0.41982926455878666
Ni 2.4246534475310004 2.7289723593041444 3.502492358971784 -0.7310996116695474 1.6101032182436466 0.037180979925671445
Ni 8.501359000623802 2.194376057838001 1.864529145357803 3.771435527648021 5.0053004785499535 0.6311037533001841
Ni 1.9256893940197979 6.9954133595013275 11.106462858150937 2.0732619988280034 -2.7289056462510812 1.5826073268162228
Ni 8.8624380756743 4.211247605063187 13.242650835876741 -1.0538674178969463 -0.622945642969424 -0.27171983851164816
Ni 5.950679226926737 1.2015798201234822 9.529246153826964 -1.501125725200963 -0.08676830393549573 0.03858814468584322
Ni 9.059119077814207 1.8266921637879572 4.312321975815624 -1.130662412669814 1.0616295783408685 -0.029283322345149566
Ni 5.3380165918026 3.3666939028768446 13.339251004667695 -1.1093351119469474 0.5451250351455192 2.4849676058383916
Ni 8.009525149441656 6.623526398815208 11.648641566883322 0.601909391124415 0.3377791920345667 0.30441835718593374
Ni 4.567438738780214 8.609278365612134 5.160241884048895 1.7257846056690664 -2.1195732231897173 -0.2668900212231726
Ni 6.742891614910707 3.048236550432796 7.423939457662109 -0.2830270359943513 -0.6327441171170844 -0.40049354034465223
Ni 8.381656038102191 4.651406253050018 5.446360954377123 -1.944488811215632 -1.4298897125731116 -0.7847258816354357
Ni 8.36479686233204 0.9546965644799185 6.671039815493196 -0.4315810057780761 0.20177503389139442 0.7418707341431223
Ni 2.822612555944023 1.744075635222606 10.38728625844491 -0.09582115816638336 -0.413091688724637 0.2975717665777456
Ni 0.3327618517744584 9.50465352308334 2.1492475062021787 0.7899423928393686 -0.8869760832566144 -0.22138483770252196
Ni 6.744420855673386 0.8110745876978741 4.94346590773977 1.03141243132754 0.9936156721947403 -2.074107634657751
Ni 1.614775045092277 2.2673480495687874 1.2009840729551993 0.18022121898001864 -0.12662503092111743 -0.46967626998790074
Ni 2.8202014217353817 4.482523658148259 12.550416080944856 -0.5440238316615404 -0.18185541214933196 -0.06299228456182053
P 8.786567093786042 2.564752541451781 8.268920971988196 1.2672905775502303 -1.008928391292411 -0.2139026703928639
P 3.219211296807423 0.528014937079521 2.370307233015839 -0.38080248967362806 0.738097126033303 -0.24018937200353474
P 7.950954290046528 7.407707927333821 0.07062934499188453 -0.3870482134730237 -2.082580448015452 0.5985705565591691
P 0.6365685148013305 3.9564929813221528 4.272597366997613 0.6399820296264204 -0.6675535114867859 -1.1580855418777731
P 9.177499200166876 1.6163230495452958 -0.027659555929635374 0.4191204114172201 -0.7098412165114033 -1.1878285774681607
P 7.892524158328948 8.0617820270375 7.203154618911924 -0.7260386522068721 0.9386606561150995 0.6209468673718403
P 6.194063054321961 8.687954519206164 10.65957836536187 0.007130183286878043 0.3358104983439701 0.2758611143735314
P 5.375919246288635 4.055903012741465 1.7640158089465212 1.8431197266478256 2.719800084405387 -0.2827341873442808
Ni 6.13225545834325 4.978476139359952 11.580754535234574 -0.9422794838146095 2.8644724597465188 -1.581250555678012
Ni 2.6712271022839604 5.529152923447151 3.3804626988480586 -1.8606878174385764 -0.18423008302909563 -1.3867751407718245
Ni 2.1146116102042725 7.912329233482418 5.883976184138418 -0.40196266869101094 -0.16366228618007297 -0.19670096180259672
Ni 0.4199107497413453 4.371470756873212 2.045562167938984 0.9487980016594174 0.32074306248788637 0.6542832767404408
Ni 0.8549187647299497 6.267870030272862 13.385676127305985 0.3805253247528414 -0.9483796831750763 -1.893308688797391
Ni 2.371561585715043 1.566411633241904 8.149198307591726 -1.9315471634532992 0.9744398705972378 -0.14603017492060658
Ni 4.814837995908118 6.35855494568425 2.056437602859828 0.62170997079011 -0.46566894860072056 1.5633939871125657
Ni 3.536130026643623 9.13618155403903 11.819719513554817 2.96507612690321 -0.33036798717216004 -0.2505995115932652
Ni 9.301358320098716 6.647853523340526 6.201567592273293 0.6291736261570068 1.5861585345025908 0.015177221961070634
Ni 5.958635031630736 5.908667324256325 13.675364989721325 1.242204838226196 0.5742741459056497 0.9725519095459056
Ni 0.19341049091371176 8.642030387099942 13.484267123641972 0.2139641197584186 0.13415527785989154 1.4836890177817543
Ni 1.2993292649477381 0.23852966070436452 11.860858904624434 -1.182132555524648 1.6702631755629944 0.23024485919631316
Ni 3.496013256697513 3.561207698782526 6.599033215630384 -0.6496532341675972 -1.4626249980226036 -0.31678613472266737
Ni 2.956763560027144 5.327668416580299 7.912965322584932 0.09971766500731213 0.6644471046473202 0.5868730656165828
Ni 3.581012773935996 6.072024012353066 5.353633611272267 0.7445084288762855 1.0298039491898394 1.7763679750435726
Ni 6.8805232835518275 1.293981613200946 0.8681143299612881 -0.4364637877916741 -1.2749095275480689 -2.1046765085835433
Ni 0.40087967681438463 6.948091332464803 1.7088984067584012 -2.765400398743005 0.3794644875884949 1.64628455326021
Ni 3.5443016137865273 0.4241973147994317 6.5898324400723505 -1.0357213431155388 1.6460163872004878 -1.5555675490896113
Ni 7.135784526932032 8.191289017761564 2.0454796077014894 0.05338278649651451 -1.5284637508942838 -0.8582324354650187
Ni 2.4440175759614893 9.309726925990185 0.03537518539728755 0.5768107962845743 0.06891456358352648 3.153256452829305
Ni 5.879996405417385 1.4921637105680234 12.090212182568209 -0.010667764126491305 -3.82556779071605 -0.6182778051801094
Ni 4.483105332548787 7.024074896495098 10.27291875127137 0.38814221786815084 0.7114353004714005 -0.4934815999376146
Ni 8.366926541185586 0.07568709772292939 11.740861352164492 -2.0022123911793455 0.44563028478229055 -0.5299218450425196
Ni 0.0016174301072753336 5.839035269405993 9.183204300214639 0.029565372361942635 -0.39878247119081645 0.3638054408949993
P 2.530846553008086 4.70231214494141 1.2260448577727974 -0.7078822930128196 -0.6376292131235276 -0.313074490199035
P 0.2099281675196802 4.913816462449618 7.154202027184887 1.5190357727121646 -1.5345148421843702 2.560258248151591
P 6.920367979988013 3.210157816218556 11.91638816981551 3.336374019520512 -0.6733132967886986 0.19295280761407416
P 3.370202712970354 2.2829969673120316 12.40601822556727 -0.10718646258053152 -0.9740976567664709 1.4160270956584065
P 1.3686329552171286 0.6650198984632979 6.291932586764391 0.43771334392805905 1.9946798302477262 -1.619566163428759
P 7.758157371806923 0.6357194578134627 2.8544995713071755 -1.4704581209137773 -1.6349385321197714 2.3638061691350063
P 5.473190217009231 6.591553070476494 4.30102060512407 -1.8782232552191782 -0.8657914787591992 -1.6603680279364696
P 7.152118319372672 5.753313350089433 9.778963664896327 0.37369133255014353 0.1016292802077282 -0.5859379553968233
