# total energy = -381171.3008068246 ev
CRYSTAL
PRIMVEC
9.16158649403253 0.00000000000000 0.00000000000000
0.00000000000000 9.16158649403253 0.00000000000000
0.00000000000000 0.00000000000000 13.40890790136914
PRIMCOORD
 96 1
Ni 2.441920042700849 5.145476666087641 11.078814937329165 0.5037063629894164 0.20832054831939606 -0.07205362343314041
Ni 2.9531823644733506 1.6925847401276977 13.213231833844173 -1.6377042677903666 0.14085891513231225 1.4794870638852649
Ni 2.099743957119249 8.800665578465624 6.59281123873112 1.9168743919324727 -0.44216520905182555 1.4294353986445123
Ni 0.9498549412548956 0.9676559033766404 8.491364929053693 -0.7066530485914089 -1.466594524193313 0.12146354132483597
Ni 6.002286537188939 6.6795384789932335 7.054975703526452 -0.4124532838096897 2.2478869546671674 -0.36993186550771123
Ni 0.013692906838476503 8.939170439688752 2.4730987530933977 0.4520061064016474 -2.62670275292807 0.6932198059046384
Ni 4.513730323284226 3.209624325744457 3.7607294700446254 1.175557987630924 2.0049624431206565 1.6418619987124818
Ni 4.211856055702397 0.6371874088889047 11.729079594459233 0.32726980786281057 -0.41772250262842897 -0.3593096099071747
Ni 2.189124392765025 6.800361478716121 1.7537639809185304 -1.6129201188671511 -0.43043995019509745 2.746551127246986
Ni 1.6391543690036543 7.521918851719982 8.8562076952248 -0.1865314774687626 -0.6848480369011753 -0.36032519565588267
Ni 5.210542251774019 1.15181294898096 4.872582328193669 0.6525840346611471 -2.0617997638246752 -0.8802475062835292
Ni 3.3936714323135417 2.08387608970038 2.260138596416225 -2.248240481351844 -1.113964897409475 -0.7606824675329867
Ni 1.7109353974256158 9.144041831848535 10.50544988686986 0.4959668282533137 1.7728399072856564 -0.6238876951677191
Ni 7.513563485042148 1.7959824027658924 9.499098191566501 0.7019695270728105 -0.8138143143609597 -0.13826158671878125
Ni 7.288106008534676 3.263366190801665 6.0479533801081615 -2.1773181433096696 -2.309968040268628 0.34961835076133985
Ni 3.7729977502181864 4.159909861554022 7.505515031504344 -0.05733071540066901 -0.950616800035711 -0.8273763693161105
Ni 7.990763029064445 5.032587600074188 12.54914142687472 1.3977540083808315 1.0192786241784833 -0.6127327069921641
Ni 2.3315778976703316 8.37093221290589 12.867643973535788 0.08828319791812538 0.5044985198734085 -0.21462874992561098
Ni 0.23593375040670825 8.836487380779582 5.452276202447982 0.7976623871914457 -0.7305082579424516 -1.890405399107667
Ni 6.298847084734426 4.71176717208692 7.871511241386787 -0.4744765195900216 -1.9758264449866487 0.8279163009799806
Ni 2.593929082085301 2.949261205549981 4.939988699171918 -1.052259449979878 2.3991071584291457 0.15714376833526483
Ni 6.192838370009408 1.3755755320285648 13.319618005923495 0.4160998794233415 1.064563978378844 -0.06188593887151922
Ni 0.2440701551726998 7.536549904992462 0.3251391997547357 0.07098404451804549 -0.4938559525578978 -0.4081793390246842
Ni 4.909190194609556 4.115787662079846 1.478117502509183 -1.9102502017477359 -1.6179548530775811 -0.9350143176117638
P 4.9920200960726 2.8080170300322562 5.943203467336581 0.11876542566738256 1.9294476006117933 1.2490995084635004
Ni 4.2611270666600625 5.512938729773212 9.367315186189346 0.012642885574991129 1.538907314825111 -0.5382015685528087
P 6.588408180369973 3.6227843817425667 13.381379007442444 -0.5480794897881529 -0.12604241894477003 0.30034470133719243
Ni 1.520301110328721 5.545801339722105 4.19853052847333 -0.5697785720281413 0.7994773289129973 -0.39358909991533503
P 7.571061600469874 0.8585432432234974 1.694979578778559 -1.1742822062422937 0.8567617644567632 -1.6210044385371825
P 7.312750675599779 5.171825388198881 4.39479644265012 -0.7186361890952139 -1.0525417571069873 -1.7779867415939183
P 1.8012411532846169 8.209706617734266 3.7922535722395363 -0.82110107783036 -1.1957743146777986 -0.4779626783664091
Ni 7.8649744495834595 2.856610083605974 11.667036416083182 -1.3798745569972495 -1.1268404678205624 0.22953060673810793
Ni 7.1244892393466985 8.55259730704489 5.919174458868793 -0.7954556093481139 0.44918432068213615 1.2964471445095285
Ni 5.540111994648711 2.1135229828686595 10.456332790561524 -0.8005757041834987 0.7731854850960038 0.9581169650674982
Ni 7.959760221128273 1.1950189898281802 4.955892296777238 0.22573463003078542 3.292631070106607 -0.023853409578829886
Ni 5.943514961269745 7.300245110341836 4.6519255228914425 -0.783442901157954 -1.774381026520531 -1.2834239927769833
Ni 3.1826892621119662 6.468263138031031 7.4130471412857295 0.3534413240518558 1.4329642377333773 0.15462562989910145
Ni 6.32324438897025 0.22945650891413302 8.289534267376776 0.7194147191324514 -1.0453966614217738 -1.7165944545293663
Ni 5.469925082237652 1.693381798133149 2.5769370880311575 2.272887333366247 -1.5074264706080103 -2.2886026872189746
Ni 8.39724428867205 3.8116138363443595 1.2565967596217384 0.33282493335308483 -1.0207624078128614 -0.9035445291382568
Ni 9.127395229596754 3.6633244009853465 4.757198562239015 -0.7717659790406579 -0.9465822249550213 -1.6734042922951373
Ni 1.1195366805533187 1.70426576262138 6.381097973945234 -1.4091583935630312 1.5974029970681587 -1.3236221622624236
Ni 4.021918049161989 0.48886865645382915 8.804101173316706 -0.6651742126213318 -0.8293232086298362 1.3253771972803174
Ni 6.366688631060478 6.124346351058217 0.2458191019915578 -1.347180666308654 -0.7236395558470763 -0.06724231808742613
Ni 8.93734728402111 4.8010834766288095 10.338817123481943 0.41220722923715464 1.4810461808422686 -0.11167303759697542
Ni 3.467871119510666 7.765351360488321 10.799762181144796 1.0460978012538564 -1.7815099242558288 -0.8579565560958128
Ni 7.522074598686565 7.339630769714653 11.544654114377215 -0.6415946255291789 -1.9641199551829978 0.9404632565414771
Ni 8.947095211811916 5.827712510822574 1.9535836744092807 0.9940715287852364 0.8152099091569056 0.7479457366926087
Ni 4.469406568912119 9.10360259005472 0.690141377526931 0.37498922542596064 -0.3493753815125983 -1.0730303639786423
Ni 6.848368190768588 9.117225868837547 3.476809163075244 -0.32335736018228184 0.7021441049774617 0.6707013130871482
Ni 8.66556882733477 8.185016142737815 9.829761827841779 -1.6676640473772506 2.293650276945211 -1.1921148635483403
Ni 6.679474347889347 4.472787194245585 10.11389651592987 -0.9462682932590283 -1.5400743385500186 0.9399683191829296
Ni 5.281865200882502 4.995309105543369 5.454850608189727 0.4159782662438126 -0.35218354038535477 -0.04286286080179715
Ni 1.1382171549569409 1.5460909756775174 3.267160919834515 -1.02941339861964 2.2654010522915304 0.06136066249566851
Ni 4.492292211413467 8.640722605371737 6.3689359681724005 0.8501167483364198 0.10774336352526606 1.459193089522919
Ni 3.563224909404192 7.295187914721042 4.812268857305309 -1.337693295643509 -0.6049677183347646 -0.04223551163044339
P 0.9970187873705634 1.140186896004895 12.026100969794077 0.5244407673232904 1.3713346378470381 1.9587610048639301
Ni 5.378034371954019 2.443001109880656 8.11552642704187 0.4724350636799606 0.345385800737231 -0.25858638645348364
P 5.286546771466246 7.869509434786889 12.494339566286124 -0.4917314500157273 0.9052751386761183 -1.2349453284503056
Ni 2.7532124209677793 0.7857645180567816 4.511427100496059 2.1673371208375576 -1.9429672323647829 0.9613658110220992
P 1.1091749264824522 5.547615333803477 12.698838998043364 -0.6211332723510335 0.8149841662993448 0.8920956638713669
P 1.032144309128036 3.749974683922795 2.907721657245193 0.07186619001268268 0.1635725546797441 -0.9684461149076482
P 4.316682925798642 3.8465469647901718 10.527051991134844 -0.363353183848929 -0.7605747383105288 0.5451286346899451
Ni 6.188578232394065 9.040946501557237 10.543893735174166 -0.01541144945906378 -0.9543274161180789 0.7339260253747489
Ni 3.389475425802086 1.6525760928885522 6.9062712483094275 0.6747024638267413 0.026797836919134496 -1.3323286888974861
Ni 3.657369369910136 5.366646520220963 3.266007476123178 0.7846389783485841 0.02666002578968957 -0.661505505520493
Ni 8.590901899237899 8.172950333620811 7.639819305422883 -1.0209608969769126 0.9694179919026144 0.5034549091002426
Ni 7.107760182818492 8.242477611820462 0.17439079464097432 0.057945980387164725 2.2195243443640744 0.7183816498822466
Ni 6.439165940038927 5.254664451248195 2.367020410312731 2.022633120927542 -0.47058155541098956 2.93100978134712
Ni 0.44385686695287985 2.6276895274886103 10.103290147505605 0.15559519290122234 -0.7755233892005611 0.708732813938573
Ni 2.3930796262978524 2.6457012060945546 11.084446564409062 2.498647931538961 -0.004408156370024666 0.935826271990098
Ni 2.4460885644534964 8.990777655145154 1.749138296011032 -1.3842737145062096 1.890143403695532 0.739064632152895
Ni 0.3852877620902434 1.5612625625399001 0.9280008933674996 0.35644591520613456 0.02406809669279726 -1.1891346978740942
Ni 8.472112771666852 6.909448486427709 4.237134704537352 0.8017157313252128 0.8076860899760349 0.144207519889571
Ni 2.3441659172047 3.7214363426931323 1.1103008854349805 -0.6472045155167887 1.0612385135500368 -0.19152815935240564
Ni 7.892734055980211 5.314865234625439 6.358315857368733 1.621945205183897 2.670824168727316 1.2437284739595742
Ni 1.1175302931602862 4.539117078837162 6.369767840205676 1.2242089158694078 -0.2040496888581841 2.2285185774428844
Ni 4.5057505816434436 8.628830866393855 2.8824594992655226 0.08669322772318618 -0.9705528768380058 1.3153128710657798
Ni 4.4865753815812655 3.496473591844216 12.68788357318223 -0.1554902918922419 -0.15622305629320837 -0.794371889365632
Ni 8.227498418269741 0.35008436684947936 11.947470739476998 -0.07467563443701977 0.8115219187823574 -0.4555830251196283
Ni 0.8063469377699632 6.933625912593064 6.54232631759274 1.0777766204143762 -2.8348232694215176 -0.8639297429601122
Ni 0.7219595666410945 7.201144231664063 11.193125881531655 1.8741714537473078 -2.500383940393461 2.2630947727558572
Ni 3.1896245829180194 6.07654119390368 0.0724562373300275 1.6499787142823454 -1.368940940803881 -2.5221573275148113
Ni 5.114400565461311 5.9636063199588785 11.604229161412249 -0.009967395625357027 -0.8343229758372728 -0.46715478911762776
Ni 1.6754525738036303 4.573170695001097 8.868276252817683 0.27139947905775197 0.8553525428140624 -0.3648739913688297
Ni 7.188308849300417 7.384302664365001 2.2458181209182837 -0.1616905071656828 -0.46506191114434103 -0.07756478305935674
Ni 7.523045726831137 2.6359899246488263 3.0318208402180735 0.4649593241282057 0.2440344567812378 0.9453357541424301
Ni 6.651467378663318 6.639639770789323 9.519506541140561 0.17671731959181824 0.9221215208094958 -1.134351688595943
P 3.124962107027502 5.214509218628736 5.731449891571109 -0.799484528001849 0.11835533471315747 -1.9003519687974175
Ni 0.7449203341498526 3.3810284432615565 12.609897402379898 0.46923404024415966 0.2832337526885187 0.543906846467702
P 9.044272157373085 5.701346751406605 8.229087037328881 0.30796416555566314 0.34864133156005117 0.33978053873531167
Ni 8.735187721397116 3.2149105610219904 8.13093346667138 0.06651443878246609 1.4592715081693386 -1.597148457855191
P 8.083331696732026 1.3232445512568682 7.214421202485901 -0.16552350775852784 -0.5836931252267045 0.0748656389606388
P 4.878737081849556 7.640543070738178 8.63864842224031 -0.6129533076434025 0.22716647738130558 0.29334641564248837
P 4.731904338707402 6.579539764861043 1.6918417354812367 -0.6221989946113865 0.45644151646518166 0.998377612359758
Ni 2.6421648337945065 2.4807193605524134 8.86013709957581 0.3468297322726091 0.18363153021314826 0.13969703361372715
