# total energy = -340887.31841881515 ev
CRYSTAL
PRIMVEC
9.12726587587704 0.00000000000000 0.00000000000000
0.00000000000000 9.12726587587704 0.00000000000000
0.00000000000000 0.00000000000000 13.35867620751989
PRIMCOORD
 96 1
Ni 6.632318677139795 2.4088862847235584 11.491988135488807 -0.996000113266517 -1.4708131902603507 -0.09716841622289718
Ni 4.713931664705186 0.5819261826088444 5.860544449991736 -0.16016095789503385 -2.604487650283611 -0.7354144369948175
Ni 2.9507629370592974 1.716099417128692 4.710189485664648 -0.4385841765687866 -1.2201136627541118 -0.19484565376141283
Ni 3.931834499764816 4.42083690043755 4.817539824165327 -0.6606341586591333 0.3423380150498427 -0.36090575074970105
Ni 4.064179856076497 2.7696871078270595 2.3294325218801917 -1.1714588778608857 -0.348363138198 0.39549171625468665
Ni 5.3458944319923924 4.687051866474985 2.3816112758776136 -0.6883352241188274 -0.8155768055780213 -0.15564918606760936
Ni 5.094848981968062 4.8361183740117015 11.426758303905865 -0.1199329636129225 -0.401786805234779 -1.5458220396670732
Ni 5.629962330232977 8.00321576867786 12.510988051860064 -0.7725167411637535 0.804860961822414 -1.0144218103068143
Ni 1.7065522969423461 7.005423054747306 0.158436558763583 2.7041852606862653 -0.5143173057360432 -0.13798570734957527
Ni 2.89723152224771 1.9664420676746783 0.25919609851994 0.134404160645904 -0.24508166709882953 0.49205386635215265
Ni 8.130249056205168 -0.046581001788735615 6.5763831404763105 -0.2832188402901832 0.3990251833292418 0.43361654815086614
Ni 8.566331568885134 2.4142348625717407 1.3892885324324116 1.8974350522609384 0.9726719800635377 -1.408218655357581
Ni 7.321335983896266 1.0754657471865812 4.487914090649286 -0.35511331243764 -0.8282765125328767 0.6676355296776308
Ni 1.147324712030848 7.598293741959829 2.4493529310506945 -1.1401551826515977 0.34487517964939957 0.5456163729596409
Ni 7.636135386599017 3.916391165773135 3.6092869609949623 0.9477122247944065 -0.5335180470342102 0.5029476304465209
Ni 7.896417629767308 4.145330377660439 12.686440572538949 -0.3736136852346727 -0.8896747131347001 -0.24740620146694814
Ni 8.143538355432051 7.050530003084708 9.461176024683915 0.0370915055356587 0.29953480384138736 -1.194271247769711
Ni 6.926043222758155 0.8584576973524242 0.3368380990717297 -0.1745524507300155 -0.12770643691075426 -1.1058605231347858
Ni 1.8406774701147708 6.71741217761523 9.335390434412316 0.6917702179423053 0.27880708437573276 -1.4419394446487939
Ni 0.352595411012177 5.040715167603609 1.238079855576637 -0.5614168303270074 -0.6620837466214662 1.3958058835155251
Ni 6.336796060128786 1.7777997349677934 6.880012595106356 3.1046417771453947 0.9640775535263074 0.3760492912593588
Ni 3.3548817643735047 4.432729727973696 0.10239697126824082 0.39215133902754395 0.6291628275237293 0.4084079100957224
Ni 6.152324887962207 5.752842711751884 4.5591825213864245 1.1834731287129423 -0.345193996441399 0.8830307254556212
Ni 5.6568786375269875 3.1665041223792434 9.118565842623804 -0.9405360187609415 -1.145826779115078 -0.027541399953378374
P 0.3526300946227966 5.603703186087549 12.490629685152948 0.003790834500999923 -1.288446385692239 0.537934430934351
P 3.996930160538258 6.446067688112472 12.527205378004519 -0.7979346670162257 -0.8615589287350904 -0.32964499296320643
P 2.5990985071742787 8.665198113682937 1.2768460922568168 0.5214258917563666 0.7632581986799629 0.03567996990011274
P 6.608368731280357 7.985189418421612 5.458355126699893 -0.932339341882762 0.2939259422950422 0.0639685324321608
P 4.767298788729627 1.1389276273545206 12.652536430431681 0.5803990278564649 0.505535188668039 -0.055390303844846535
P 4.254382951261265 6.4409107828492935 8.13202704761272 -0.30869075930904255 -0.5958824682040447 -1.2627980889965154
P 4.763246282646703 1.0819187242150197 3.6375942636201377 0.32313495975883055 -0.3404675375000072 -0.81593418891744
P 0.5563890052002614 5.793039191006827 3.4666697795803034 0.12907169268939706 -1.4978388269195753 -0.15040876360427644
Ni 0.4283909656617699 -0.04555600982226652 4.491974811271567 1.325090519277834 0.48976532742829204 0.6590256765214327
Ni 2.4249137637362006 6.41834818141464 4.592365609483442 -1.3084642235750625 0.19664825418779036 0.31495396660993497
Ni 6.2387053329369495 5.456151804698953 8.982453663653514 -1.1413528025041244 2.0828599269290837 -0.0034553055384521137
Ni 8.705695792714312 2.5671074400106613 10.49519029354708 1.0923771439363703 0.14172383423576884 -1.1667144211973648
Ni 2.405983814150654 5.508898274638622 6.912179818502858 0.22919122112081816 -0.07409276535035628 0.14318627771390824
Ni 0.4942122440784382 -0.10560155434417402 9.28819425489838 -0.07533743639073476 0.7834542140118635 0.1198154641984517
Ni 1.6031312464342313 1.5134102221208638 11.350172328024783 -0.7606968657106898 1.2660988712349743 0.0018941316989193185
Ni 4.300712953236306 7.048595022702772 1.3108077361395847 -0.08522049983240161 0.4666387687131576 0.05932614856414299
Ni 5.841039482651181 8.2561049264246 7.710079931713437 -0.0340203228095027 -0.5141820657097596 0.3463659052623131
Ni 5.528750078085374 2.739767930034667 4.60406767716118 0.5269097976890732 1.1830129012470723 0.8507484683831478
Ni 0.9070375703847637 7.8242665924125605 7.160116521743756 0.6328454185816391 -1.5938913843704743 -0.6115602839506177
Ni 5.21751030910411 4.641470300308051 6.823705578718606 0.6836275342305129 1.1658487307629597 0.7804241689362882
Ni 0.678484441847252 7.134117504677975 11.270889245054729 0.308123831061979 3.302669171068899 -0.7275561172926631
Ni 4.606193417401524 0.3304225438336965 10.532300844183473 -0.06927143270231297 0.02319983515523101 -0.42242350764852404
Ni 8.278147273699961 7.1174784988465145 4.265505437551018 -0.7171572905568423 0.890698269303208 0.6105058745441744
Ni 7.547482252402095 6.505906043697257 6.768787732208828 -0.0034316513893682837 -0.8164435244536907 0.6257720566746255
Ni 2.529849940392435 5.479243787558852 2.3484154096082626 0.5679497463495187 -0.18668137278306557 -0.27617196074573086
Ni 2.3052553070985353 5.33556236693413 11.357974314961005 0.9672050434116956 -0.38431127415783495 0.35434635236462847
Ni 1.7396295087543139 3.544783659781839 3.8023605813218 -1.3268509536123665 0.3517829625128264 -0.20203368686941978
Ni 1.6216230872540567 1.0290535998179673 2.601762756105822 1.0759534511627082 0.9031583494434318 -0.6584438358760337
Ni 1.09353773377259 3.649610309246643 8.095758943623748 0.3952268926290742 -0.6400758748918073 -1.1768309408060764
Ni 4.125259519830826 2.594644401389444 6.825161377638034 -1.2540136579356662 0.3956452111134154 1.07972757349316
Ni 4.40103073332056 7.040672555855976 5.725769415483492 0.7870607004161992 0.5339739036247062 1.0769132439728164
Ni 0.5804229219064627 0.41878086734035125 0.3405757144792906 0.8341219155700602 -1.5829184302987385 0.5291497427631854
P 0.2735578514962456 5.7814110541833035 7.86155421200843 0.21521213323290678 0.23043923459530638 -0.13490038355603218
P 8.62624294259754 1.6596655317442006 8.003463117585172 -0.00447294816968907 0.06904389007253915 0.3286898281387888
P 1.9549234580425856 3.4007097667211563 10.129175976131494 -0.6731466893038472 -0.41243040099155426 1.3625473785727114
P 4.392524121452802 6.173500144972076 3.468847545236577 -1.5206481115046069 1.5294343423376693 0.4057604451705464
P 7.1561415974214295 4.225577299915081 10.458948658629371 0.02453475191657065 0.48734000581625103 0.03167110585103578
P 6.458718078722678 8.126625531622015 10.338813758708984 -0.26533527514154304 -1.0173698371915447 0.03218506937297683
P 2.736290441706753 8.548861981851994 5.629920344809595 -1.6433961759688216 0.3528625687302504 0.8135880572827665
P 7.037733576219261 3.994812634837271 1.3306467614140034 0.2386366828044342 0.5932892535555718 -0.07229299313745614
Ni 5.398075011443006 3.177374696128706 -0.08199753186433682 -0.12315044210895566 -0.03943172363306112 1.7518188249492992
Ni 1.3616694256600566 0.9751662216342317 6.944988688695821 0.5434031673584061 0.8996184546109732 -0.610521044052826
Ni 6.93147394599991 0.9550223456769985 9.554018573953046 0.1920457224187725 -0.04539642585692827 -1.4727019226426314
Ni 2.517592022218188 1.6377053298624142 8.982453663653514 1.176716269605083 0.01165635329200573 0.25355962266285365
Ni 6.626440717866365 2.0698813727146983 2.420271636272744 -1.9662076909499624 -0.05877310427415039 0.3703614968459622
Ni 4.292954777176655 6.96517181189665 10.205293723269211 0.606516293768807 0.3295125811504002 0.8764792974903486
Ni 8.577037851847452 7.0943317523908975 13.865504439193122 -1.4049302144142963 1.5489752405840742 -0.06627661174004715
Ni 7.773564630046258 3.9072273907567956 8.085124766062457 0.5073614432435004 -0.49068681080129684 -0.41187350004681966
Ni 2.7647310024148357 9.076637008291074 12.460091678728972 1.7123361934736445 -1.9799330109558548 0.5712006491866486
Ni 0.29807825147771677 4.982565356220041 10.040140409491162 -0.970453118035348 -0.5268879433122022 0.20184291101485238
Ni 8.887912530190615 2.6913934204862593 5.9045880718456685 0.3454163968648503 -1.6537381813247778 -0.04835576559556833
Ni 4.061405167226928 2.645957890574566 11.118092423923212 -0.850415253413445 0.4604784055387166 -0.008205418628927803
Ni 1.1017979094596295 3.4898466460135626 12.894515767185366 0.012022735492488971 -0.5884684351281607 -1.3426508967591004
Ni 3.1230127001154386 8.515428806667876 8.246952104127404 1.2440511474063156 -0.24068508069303063 -0.5606840659260408
Ni 5.709615980200704 8.182904253485313 3.3086768059420137 1.5377323206804032 -0.9745527420260183 1.0721495040355857
Ni 3.3281936387283078 8.369730260267644 3.4369733070771527 -0.17633885320647696 0.45446716634763024 -0.019410029095495603
Ni 3.441362609273724 4.531249436665302 9.131149604192556 1.1177274497757008 0.31787216869799445 -0.5088351995755495
Ni 7.5300948107625265 6.375322249714414 11.724349159381717 -0.8935084850584933 -0.1619851555879662 -1.0989239439159526
Ni 8.095446791128172 8.932362315379436 2.304424725896855 0.0936406055752968 -0.02991427106092913 0.401238903151109
Ni 4.996949927361229 0.4562601595212242 1.5824689417708946 -1.6890088316016139 -0.22340546767697655 -1.3328354533305753
Ni 5.981489851128708 5.662975651183277 0.03458503614732575 0.3596127429698903 0.43600381743612004 1.7661578672797906
Ni 7.996835809777041 8.952487936804763 11.655017534479706 0.557783347339478 -0.17683687588881802 -0.21988845566265358
Ni -0.08130751055832557 4.965396968963333 5.449618507730132 0.7660164781513904 1.0694423895170677 0.32112024332164696
Ni 7.402951996043788 6.00888077625225 2.337126807078174 -0.001144912237720609 0.6052363986151189 -0.6286853736666785
P 8.99743059435502 1.8420830690714605 3.3788636556637766 -0.8765903691469161 0.13568868378528245 1.8528588083124606
P 1.8725772646188623 3.498097694434649 1.5651289619142785 1.487197288045329 -1.0699530106048991 0.13387065673993717
P 4.925200489708392 1.0720977860500975 8.297727997347923 -1.1925205836271913 0.42763204843265706 0.8536993234813556
P 8.627356469043749 1.744658632294158 12.585249313103036 -0.3965944624005622 1.4872019160310195 -1.7601026622246463
P 6.546148159281961 7.8467561757195945 1.0410185327551387 0.5920795495181868 -0.5021251345452256 1.6887748612139364
P 2.2823458695576857 3.3367002505960652 5.995000030191643 -1.4368861984956027 0.9264229763983272 0.7595825496005887
P 7.088316884128181 3.8910447482229604 5.940122343652057 -0.768025023940987 0.6995730018161758 -0.843450649170154
P 2.4321151765727467 8.863916948001414 10.366974112352324 -0.9026269024199939 -1.125257696714475 -1.472140907932839
