# total energy = -381171.5959228542 ev
CRYSTAL
PRIMVEC
9.19081521297118 0.00000000000000 0.00000000000000
0.00000000000000 9.19081521297118 0.00000000000000
0.00000000000000 0.00000000000000 13.45168708601854
PRIMCOORD
 96 1
Ni 3.928862183057785 7.849847837341202 2.803816311453776 0.1763995312410833 1.1309799439102328 -0.38745213377966176
Ni 9.18250687556126 4.476129284422714 9.434273638309095 -0.4026571236548743 -0.39094497742426865 0.1408375749760736
Ni 0.42507796823005095 2.4426338107759817 7.970541624814949 0.9751422959809013 -0.33325662157386476 0.10079367168031028
Ni 7.379820348368092 8.00338959895683 9.166020390945786 0.2622203836616452 0.9733767194400463 0.592631822477231
Ni 4.393807151129815 5.060674332939144 12.01259880908393 -1.1618424378170444 0.32242250707283826 0.148584308801028
Ni 2.7561784772142146 8.78806465221289 5.161492982169519 1.5717711554326672 0.6991513408977249 -2.841976078416215
Ni 3.645582871641716 7.289566541408589 11.357030815693745 -1.872987974962168 -0.5042007861273317 0.8017581545273741
Ni 0.6878663567727789 3.3745365354866546 13.325510461394293 1.146183905344181 -0.19826753495876823 0.2178014912266378
Ni 5.6133364429278245 8.014694301865198 11.448677031182205 2.6989126994334165 0.9774064094247297 0.7141681260215313
Ni 1.8898430293720854 3.2201400280413703 5.861559227267963 0.3112922014876316 0.0032506457268137567 1.1775117689231849
Ni 7.14849671625366 3.092259022946205 3.8057916507286693 0.035092729938075044 1.0348258278844629 0.023051482502824818
Ni 7.62848704909073 3.2788785290880287 6.964624344826723 -0.6924536171625751 2.2566004232807653 -5.5535828283775324e-05
Ni 5.412397646435399 2.037346425287876 7.565000572822557 -0.18282343248955613 1.4426174445524254 -0.615617741849443
Ni 3.8286179597882026 5.374926692161072 2.548906289848491 1.1085180153622909 -0.2830738300718867 -1.5353355383134526
Ni 0.7604462257706602 7.148404808099933 12.771798760290057 0.9553661417952385 0.948815228050598 0.7908062835015607
Ni 1.9377915131712429 8.837768581748225 0.7702748837301808 0.009677889409396236 1.2823790964522368 -0.11437706679169979
Ni 2.6514767084888935 1.7784411562400961 13.242998078223179 0.1810023201204173 -2.543312878546504 1.7643609232803679
Ni 0.3772894046183777 9.099467858669293 4.947772518738337 0.619770587675552 0.9329288958376448 1.7084895660340447
Ni 3.5056159443315047 5.284084673017719 9.460652197510163 2.2202393681532278 1.0084838475558244 0.6705097659016324
Ni 7.437924683154037 7.006085032054321 12.914655279953433 -0.0679686547304894 -0.3541134104182159 0.489657341095518
Ni 3.910535697204705 2.1757692956154804 5.417868938826743 0.639775312932253 -0.5110265507999134 -0.7588017055705061
Ni 3.804703458188546 0.7030652081545437 11.418828020096425 1.3004225842175088 -0.0450711813070256 -0.025466776812536788
Ni 8.593449136696854 5.221191923422619 3.6291984050768784 1.339828339708641 -0.4174741340630488 -2.074968182885833
Ni 2.7587059514416956 1.597593482152302 7.310562040045889 -0.8770572814810056 0.14524496001514986 -0.057201388911656326
P 6.242300702140312 6.835200201830489 6.855988907121905 0.1576983552871542 0.03902523222326182 -0.010333263605208011
Ni 0.7456655564883514 1.6286032932196504 1.6094137898030774 1.7250461848411454 0.04646394788949417 0.782075331386466
P 5.421377073054486 3.3250991395971266 11.303708462146195 -0.4042838606250199 -1.3109975315198774 -0.7870324182814252
Ni 5.814578536327547 3.993666622250398 1.4930295756575702 -0.4357467071199915 -0.4343068893496714 -0.5826356304964676
P 0.520860969717745 0.38355937886560504 7.229623124466575 -0.0688698263885201 0.8475173630403599 -1.1485308083098025
P 8.45827981501117 6.3985721359216186 10.475407365560738 -0.06841242713612734 0.8078146451340992 -0.6712780115262246
P 2.8430776365626973 6.673202890072016 5.494421997310225 -0.9883156001380655 -0.64073716262489 -0.2205713406622911
Ni 3.2043593980465164 7.084611358598313 0.6155521023391674 -1.0404940819138337 -3.456953615578498 -0.8367837786729394
Ni 6.389418083810451 8.662196435684338 2.134312284714031 0.027851989215261705 -0.62386969744559 -0.617695193203762
Ni 1.6050656150502727 5.942606594468675 10.629227608882154 0.2723248190854987 0.7698517927370806 0.5154761019308348
Ni 1.4394930761118365 5.995545691015185 8.25980691428323 0.3863067073213089 0.25789295993088485 -1.2890750204151735
Ni 1.6752374904205176 8.972919521803165 11.51500714572668 0.5870144762904536 -1.4203676320152894 -0.2923038333105869
Ni 6.248752654531918 5.311923652781501 3.330288273956529 -4.473158228817347 -0.8196625456116207 0.8313410103908134
Ni 8.324112292201107 4.585242644526912 1.123494461969104 -0.9970460380325281 -0.8921267742196184 -0.27186973382595114
Ni 2.424013218830977 3.7167749275183257 8.478491337097184 -1.7456952285500644 -0.5343346293982346 -0.7668744552763115
Ni 4.0128110906716445 4.885359529705691 4.74593026509478 -0.4716812162330715 0.7189686327339683 -0.5614155447754265
Ni 7.869920578115087 8.551015142121292 6.205008049684214 -1.5846189579296128 -2.0125834500010247 1.4575776654066832
Ni 0.4253665598327524 6.609712737477694 5.565191275679691 0.7276142242241082 -0.5230001782220218 0.35665366034156637
Ni 8.016927670000754 6.201769206346889 7.857453237062076 1.3511692186427569 -0.5743762187011527 -0.6291286318516843
Ni 2.2841657721206103 8.350177444597966 7.148253159646283 -0.05234123260587759 -1.0675459438253032 0.7844461456114877
Ni 0.6678202693634742 8.231891650751857 8.812537036305669 -1.7509497920807846 -0.9028071367516001 1.6452640824154956
Ni 4.165847357441775 6.5017666109258245 7.317408278416982 -1.04412113714346 0.08450779003609317 -0.6297572665746186
Ni 2.8411016112575758 3.1633499798537157 11.59854246664877 -0.07921311729605714 1.4216189879238872 -1.5186285099714167
Ni 1.41326248903827 4.527414034202146 2.06740314880108 -0.010935415965581166 -1.531619522914446 -2.0220515373924597
Ni 2.053559023605245 1.5048489642268084 3.8889363619974207 -0.5898383188924938 1.0048107695796116 0.22670213615037732
Ni 7.661721037478263 1.161912070226815 7.7937866208125985 -0.8241432070907935 -1.0506388836573195 -0.2581963501039166
Ni 6.71384467564991 3.0148080218008144 9.500550446124407 0.0611500891467592 -0.49257528607326134 0.02666336822379924
Ni 4.649863267412071 8.723517555850712 0.2015407948993341 0.5573444600298465 1.4265920156584464 -0.03148290109962965
Ni 8.303708682073808 7.603147971108312 3.4627334379657566 0.01786196788208537 0.3956660370490218 0.49727320576956296
Ni 2.83364785999035 7.705276311529289 9.223176233585274 0.6555621434528645 -1.137877956581647 1.6673079495894123
Ni 6.883562272321416 1.112741207983094 11.473899385809393 -0.8272490997096269 0.847727679278953 -1.258336453680736
Ni 8.166342755514059 1.104736007793509 3.3019860770979657 -0.024531666592777106 -1.7089019709811148 -0.44712692393247516
P 6.848370640259508 0.15471359057564085 13.329949625219287 -0.00556875233702912 -0.48842398290904915 0.7472803351944679
Ni 8.743838448639659 8.70974971442247 0.9857857179959553 -1.392604345859092 1.4421621021825615 -0.32435751931202206
P 0.4819994450775346 4.449907888164521 7.036133483833689 -0.7458142921719028 0.64865487481007 -0.08799857679817102
Ni 8.69850934722171 0.9496409983799027 9.709037659282398 1.2469228125271556 1.2261781237806366 1.9307776322771266
P 3.645674779795442 0.8440578304603432 2.034756453515861 -0.16100967904857433 0.303011192425762 -0.11323935364283079
P 6.6612732117183056 8.592116468467818 4.361925131683601 0.6658033615648985 1.2065603495497093 0.15584896078324129
P 0.16208554358604996 3.011425801743677 3.173508588085115 0.16918964375620538 0.5274268465348078 0.6949720127090547
Ni 9.053679216482712 2.2365573484902415 5.396641831642052 0.662950979717768 -0.011606731000992914 -0.5999288703592764
Ni 8.133310965064725 3.3221672694932485 11.38370531914981 1.0774179515233768 -2.5409924579434433 -1.1909887203636973
Ni 6.002760481082722 4.887675615179601 8.162847488427836 -0.7216562068684604 0.2750653579451134 -0.03904991481361017
Ni 8.501761562539217 8.532054490007498 11.376441817760798 -0.2548724279370062 -1.003798012044381 0.11525381296969829
Ni 9.150394166649193 5.140468992004563 12.071651636016332 -1.3270532994311597 0.44242926134648963 0.5143476447533464
Ni 3.58132069055609 3.034908335020818 3.0560352623179474 0.5978293075177703 -0.06576419088000288 -0.5198055825441241
Ni 4.17571829315201 4.0513022254523365 6.799007689974498 -0.8669633875801134 0.016020800908288536 2.7271200151055677
Ni 6.832691109233753 1.4530862920479977 5.616698443191143 -0.9113164597741918 0.3190667032267279 -1.568925458453756
Ni 6.667109379479943 4.276054424575319 12.642743168990265 -0.28434369792324576 1.222599919511075 2.591066491781699
Ni 4.164487116766622 2.6922012114051412 9.583062829295523 0.5346367340196857 -0.340751130178697 0.11191549262508468
Ni 5.352501102651786 6.161678869691355 0.4500530899237122 0.6791566429433529 0.30771913942439266 0.804861476043046
Ni 0.06724551975559058 6.651439039269562 1.6054994215358624 0.9955470848894983 -0.5228363989506479 -0.9874738209630607
Ni 5.1970476514386466 2.056656328385831 13.299118115970169 0.2787638898426231 0.2756862793585639 -0.2590862089080377
Ni 5.15588198938451 0.001994406935866817 6.449572889506036 -0.291844120065349 -1.37412119945324 -0.00750093636273547
Ni 2.2424946152209784 0.8672931308039602 9.613315317176163 -1.6338386141873733 1.6605140665960305 -0.2795768726622217
Ni 4.0786173287398775 0.2741794851156005 8.487355878524113 0.7681684914973868 -1.1758775757538718 0.70727525555644
Ni 1.4854195805290091 4.667840502280991 4.2933349956389915 1.2137638092766838 0.8434149108362119 0.5094052131464065
Ni 7.154342074830669 5.1808626255673955 5.18959390017142 -0.3395781929165184 0.6329819441595035 5.792130551012586
Ni 4.945881048934645 0.5982136291386477 4.116471540015244 -1.248552634821095 -0.8927173566157657 -0.37433385123014884
Ni 5.232285237577417 7.2294769905021505 9.270001599745893 -0.8675200314145317 0.24698454054849725 -0.4705802698594089
Ni 1.2706302252699884 8.709078784900267 3.074745924253605 0.49343583430134375 -0.6792944540727979 -2.300867106408625
Ni 7.806687768351199 2.1503842635561985 1.0686096698082015 -1.310622664678962 -0.08711386020037255 -1.1325388037569204
Ni 3.322498138846664 3.7611022300606556 0.6621752705615875 0.3618920259223703 1.2644921888694869 -0.032278657528047636
Ni 5.7396917726711285 1.8176767470659736 2.4611744426272453 -0.2289719060211605 0.3662194496531306 -1.725003504528668
Ni 0.4076200144296868 1.1481534196139458 12.708065051088358 -2.0252846996177767 -0.5941441453566993 1.1548837471110238
P 5.976015208348287 0.6614151901302687 9.119167452339049 1.7530992343236194 -0.1736404804387074 1.6567188612196566
Ni 6.34581685568256 5.65326134490665 10.616300727060512 0.5701020168058311 -0.27818050653532733 -0.11590070252507781
P 5.635569025314284 3.5465058819244613 5.388571376663321 1.7360422788413328 -0.6487746882173858 -0.052348174584413064
Ni 1.9925779636076582 6.539494908030585 2.7740877000493764 -0.3900360924567541 1.2816116221585927 1.6071402789605804
P 7.172742087206732 6.231152243093278 1.964591930797914 1.0799625723221011 2.495184912691025 -3.719508242651111
P 1.954969147102741 5.290003558117711 13.043294527316842 1.0603291143618898 -0.1779061976935968 -0.013394676139351126
P 0.8864486282036543 2.299073274655062 11.07197583874768 0.16793186008970432 0.38144937922900757 -1.4612486865003673
Ni 5.049801598353291 7.3346291091807325 4.899023514920222 -0.4446180414676924 -1.4404083527162483 0.6855525191673677
