# total energy = -340886.64964232093 ev
CRYSTAL
PRIMVEC
9.10909574584145 0.00000000000000 0.00000000000000
0.00000000000000 9.10909574584145 0.00000000000000
0.00000000000000 0.00000000000000 13.33208238555289
PRIMCOORD
 96 1
Ni 6.556007390532167 2.32674539685659 11.566914500824307 0.12384335441092219 0.4699629479903842 -1.3872183989568305
Ni 5.314628951978431 0.5980840876489945 5.782257127067549 -1.6837578676153198 0.14009555460372647 -0.3855153217682651
Ni 2.8782646987349016 1.6116631744793686 4.529881277402301 1.2174759680209482 0.6665767493958134 1.0337176824219487
Ni 3.5990765422412063 4.644873589280569 4.68991988881561 0.22065567284598128 0.4037734966475046 0.07431233756033007
Ni 3.6579304088787343 3.188556931073666 2.556013134789821 -0.11407650483214547 -1.4882478407970305 -0.20028559383006153
Ni 5.3714788175851185 4.6473148268999545 2.7458621724464325 0.9506422539570081 0.3792482578126307 -0.0997426047079766
Ni 5.162561710120066 3.1589250431040203 0.3291608129536807 1.3591419524355883 -0.6537993951254869 0.6570639248093716
Ni 5.9972827940384255 8.032209204422356 12.380211902813432 -0.7162054681665343 0.7781199462831438 0.4849691915912292
Ni 2.1000291165994414 6.716400345764111 0.29174064825054413 0.49136378226366345 0.8080676416851695 0.28029755287833014
Ni 0.7455922271621983 8.911082074688355 13.078745631223711 0.11798175342382261 1.4122984818539095 0.10992931543299132
Ni 8.591125091923587 0.20491274904161094 6.674466624193787 -1.3353749319229777 -0.19158498073227007 0.430431208444349
Ni 8.953093223571233 2.461514466180569 1.1372560104486544 0.4527347570375557 0.19626413137549426 0.5863737573826611
Ni 7.319413365039412 0.8920118297518324 4.449262137750733 0.14043596866228072 0.15509357067445548 1.429132779802429
Ni 0.8474164304487298 7.476344863945361 2.397588655115897 0.41956032716811614 -0.24696885681921338 0.17086548879673155
Ni 7.984550416270747 4.07294991327007 3.787950906669182 -0.14241957475121278 -0.21025453211731532 -0.8137472085684502
Ni 7.668182417170301 4.272548415941717 12.68614270018144 1.1100411368750365 -1.5793610519647832 0.9356360103561628
Ni 8.572223718564528 7.673119546982643 9.063816102344253 0.3891650027057104 0.16260916232521028 -0.24335465710539378
Ni 7.019560156252204 1.1314954183945494 0.22037543881365923 0.3540787005255386 -1.1943905469563945 0.0562307974682709
Ni 2.200502441009275 6.9520708669908755 8.94465364650272 -0.7796135001095348 -0.38495327861720796 2.106892028177623
Ni 0.2032093481653971 5.019457818326913 1.2512235490725159 -0.25697970408799614 0.07824458273520073 0.18686006445277498
Ni 6.81237377695015 2.103882264036011 6.888287157817481 -0.10084869328796181 1.055750493852272 -0.04609165215173998
Ni 3.3955155829858525 4.5293884753306255 0.027641550582197624 -0.24763194432450902 -0.19355187465065377 0.7402373123047574
Ni 6.300497259100087 5.993912428668376 4.609980287695409 -0.12173402137740325 -1.0588401885211893 1.3613767553033778
Ni 5.461230736479958 3.14778461919167 9.242199521375783 -0.26106184457716974 0.08999375285132889 -0.1907645417135037
P 0.8035379169689322 5.548195272122814 12.524317795122005 -1.6392736691600154 0.4616675407508114 1.1687512491217358
P 4.160743376612043 6.494247722399921 12.853406646220487 0.5243700619863549 -0.26064224054124785 -2.8184286301135786
P 2.2718813140895517 8.726622888895143 1.1334311012084288 1.609238813360822 0.20219515214794856 1.2035580723882757
P 6.848363813644914 8.131817164750691 5.721183373833586 -0.04196965956356643 -0.4031276355333896 0.27224511488749886
P 4.916014928753198 1.1946032326748148 12.67142422351948 0.15050672263472145 -0.24761651770554133 -0.5627316924836889
P 4.365105936279733 6.60232714163135 8.032712937408744 -0.7563205910198652 -1.0176133206609186 -0.0023895832780991104
P 4.8664796669090755 1.1758931503232466 3.530601648836528 0.44266940238175373 0.29897198935938185 0.060845156311830705
P 0.5137138224315184 5.565666517473499 3.4253588019732955 0.09224681055156371 1.0424784593337142 0.821128845744502
Ni 0.6977949807575493 0.3216585618218639 4.611713748587086 0.8913325604530973 -0.967785598505514 0.34393981231932375
Ni 1.9014599417299982 6.550669460513656 4.82938651873779 1.113708815534611 1.0136530504615897 -0.9514045860443293
Ni 6.489620301837799 6.28306245013178 8.860195023057974 0.05465034035502846 -0.23517520661839497 2.334059019779561
Ni 8.951107440731583 2.8647285826811384 10.343856275330687 -0.5112978021834291 -0.8642809556519438 0.045695702264901945
Ni 2.202397132892978 5.436982324006797 7.032860346730064 1.9291676074775292 -0.6146443221925803 -0.3522717292237869
Ni 1.1440750794108667 0.27087626479082305 8.53991831103783 -0.42861318139900373 -0.9221397756419409 1.4427907369054958
Ni 1.8020432724091529 1.3356120324811813 11.572686934702686 -0.7271105451148123 0.2788201970018553 -1.4267398540902203
Ni 4.30443025052326 7.388496746029818 1.4095214123176734 -0.807644695215138 -1.1592595075812164 0.465593872388411
Ni 5.8081779694919025 8.330659612487976 7.7632576915307 -0.4741613023424479 -1.1013325533574452 -1.1239191804087096
Ni 5.356640100861309 2.9709224191244603 4.659309683979091 0.911530632667527 -0.015004186718316095 0.21642877924882725
Ni 0.9195449820964527 7.398653387617938 6.886460784150739 0.10003673890962772 1.4095180908952951 -0.5226718483483257
Ni 5.7394771705164755 5.215622191959348 6.986570655646342 -1.205078365687544 -1.329501503861336 -0.828260828803593
Ni 0.7677564785632869 7.301714392298858 11.141487854715997 0.6336334617005733 2.349333172329812 0.25917388352583753
Ni 4.81900306066936 0.42739056711853307 10.171578683076303 -0.31596235326979133 -0.06911999472611322 0.29123245462327907
Ni 8.598804059509941 7.354073473777346 4.630045803471472 -0.0578639621963197 0.08779340276590042 -0.2791750092381127
Ni 7.780697965956363 6.450715354552722 6.8796872606665 -0.7532643206920447 0.909771226774259 0.33246934978587905
Ni 2.6761703038702995 5.5919371491686904 2.4161065355504165 -0.7215160817461702 -0.537122733666333 0.2756222588898479
Ni 2.5828658376935154 5.608697885062987 11.30135248240345 0.7273571139079795 -0.25463974310090987 0.1390599142503605
Ni 1.4450304887650363 3.4460072998674214 3.595395556711377 -0.293481655668772 1.3232102715359857 0.6102294809543362
Ni 1.7798444064448045 1.206053365837386 2.4912465542017563 -0.7192591673911936 0.29289878658210844 -0.4241680011434566
Ni 1.3742072705160375 3.442873770982836 8.171379788737708 -1.3997080467834087 1.3390482670095067 1.1622846675607854
Ni 4.15852075728693 3.1849679474093437 6.900538891392388 -0.6282048344858342 0.07166692951768303 -0.11919145746120763
Ni 4.380810017085041 7.1979617934749225 5.851904361075268 -0.4993591417643141 0.18307642904062663 -0.40400952391771067
Ni 8.471167412036634 7.203572996361275 13.32822918501032 -1.0557389238880464 -0.8101646334235144 0.8847312530864957
P 0.45120720846050505 5.804525222158417 8.351203355782763 -0.5682598213907697 -0.4960665870559715 -0.48977586895125325
P 8.646900084250097 1.8159528613823002 8.318552713533025 0.5748914677746744 0.7383580930041734 -1.0047938002987469
P 2.020734439447347 3.400261421790705 10.426514941485914 0.31660101529505474 0.6722041228849198 -0.5318167480723872
P 4.340711778277055 6.553648134773132 3.4542756259387546 0.788585621701158 -1.6714183722133602 1.5781413206250692
P 7.066699725954913 4.269323796101183 10.239452376171728 -0.24865370072080403 0.5371713275160813 0.9749031833869015
P 6.770590355457139 8.263088341366295 10.05890919057469 -1.8867276931457635 -3.004038109988704 1.836475738968747
P 2.592248206156084 8.97623032638184 5.769445184113566 -0.1440717656426551 -1.256824387911584 0.1493003610314461
P 7.248808765084686 3.9877980876505656 1.5493077714952277 -1.2612767672559826 0.9296309418126634 -0.54337899898869
Ni 2.8831289557824857 1.6831604658023769 0.35743817840839026 1.0006383833694765 -0.25213883105592705 0.14945179900764585
Ni 1.4424526147117287 1.6570264705411064 6.7996283303940075 2.1368145267686685 -1.1812550380157012 -0.8808411740034702
Ni 6.823086073369547 0.7914820289493115 8.896138603365207 1.6762013954243005 3.1601241264834155 0.783363196959954
Ni 3.0051270730826576 1.9554040058419684 9.023512908885387 0.09014133417278669 -0.7668844825786405 0.3724140084996167
Ni 6.919524068430917 2.052151710153559 2.4377843612467465 -1.2118305968097132 0.7067250394799248 0.3088074873925649
Ni 4.4027265010859535 6.877713319651122 10.193310252436643 0.417520671030268 0.7473764944526999 0.6842086035449636
Ni 7.153618716119794 6.126887006160194 11.651426867933061 0.09567769060998361 1.2996535672619682 -2.496481777125578
Ni 7.887647857334047 4.19533061258522 8.129263885255488 0.6469767157766987 -0.23101027660742796 0.2581469849232199
Ni 3.3921269994246144 8.602274624931532 12.04750947349252 0.5319267912876904 -0.6473065883122917 1.8229216544333962
Ni 0.21076169932298486 5.218910575469045 10.633748688085062 -1.5197541389354279 -1.9773590795810914 -2.9132074630583764
Ni 8.916966550442549 2.7104751578800395 5.70279848619475 -0.18263188530404031 0.021053221125873423 -0.7439767247425316
Ni 3.917375669607735 2.740662700680963 11.29470010989062 0.13803610097153649 0.019549897107469554 0.5086238548956917
Ni 1.384746494119136 3.3610376561598128 12.634587951843965 -0.9471159859713044 1.0327077531001956 -0.8795828761163367
Ni 3.328099166489282 8.573936228536338 7.904991575346405 0.9506844200488531 1.7287511444965582 -1.0930672280248592
Ni 6.066621229705484 8.082145266472647 3.630419118363541 -1.0398091400316671 1.2357652532484396 -1.113185338930973
Ni 3.2450970874301337 8.359471681854096 3.472553937159133 -0.4079728794408328 1.1804471974024253 0.30792328501539873
Ni 3.3098172116306652 4.760805048914652 9.164246614004792 1.1137466107510818 -0.500956568158421 -0.2898078063616106
Ni 5.144024700584798 4.8302436846332535 11.517132382489569 -0.04672851440479049 -0.16895155960347033 -0.22154321765725718
Ni 8.394077136018462 0.047075806033546656 2.3364739109517574 -0.17863279144697622 0.25163875149105697 -0.35846063164331815
Ni 5.017317180862152 0.3275858503253525 1.4867938702477383 0.7854061955319118 2.2932689823463925 0.08379688001199762
Ni 5.913989223920247 5.713324957064016 0.5946590677053772 0.8377535987853765 0.0007381637176051804 -0.47618373208911546
Ni 8.208124058547714 9.170217626167135 11.345628152451177 0.024362230894448365 0.09805878924765048 -0.21519310706951322
Ni 0.18777398568013304 5.206084968871669 5.779630974807589 0.5454279110979188 -1.4952936919002182 -0.9874807629415961
Ni 7.503808787163461 6.292727200557786 2.5659329398924786 0.9197509636947901 -1.2898530362317786 -0.14153331549151754
P 9.022786913966486 1.9574444432551872 3.5410543360314763 -1.3664755099825239 -0.47060958043544754 -0.7395839949914748
P 1.8363299082277034 3.526048922858284 1.3891762473068519 1.84824316391732 -0.7158581121294446 0.5927547212083404
P 4.789289190839362 1.367001975900609 7.994049381156928 1.1811570789852561 -0.2820196777757595 -0.6256990373448451
P 8.863541704779477 1.856360809440507 12.406422414477696 -1.2310830172814218 -0.7604958054434774 -0.4632811650948344
P 6.809923430235168 7.864966209303178 1.4078143678032216 -0.7757781855238446 1.2896051818870304 -1.33131233181783
P 2.0935798769183753 3.5436203682605107 5.868342634985512 0.17466223683500243 -0.1035072139567314 0.22584544457703687
P 7.331364498459693 4.171674291325715 5.885767423948664 -1.6187984320247992 0.27296245266949765 0.06221169764205415
P 2.526854008881542 9.002373430738706 10.197762778363344 0.10835760007049725 -0.9930222615851156 -1.9511865349507815
