# total energy = -381170.83640904806 ev
CRYSTAL
PRIMVEC
9.21587064363518 0.00000000000000 0.00000000000000

0.00000000000000 9.21587064363518 0.00000000000000

0.00000000000000 0.00000000000000 13.48835824143657

PRIMCOORD
 96 1
Ni 0.06374341394360342 2.2515754879684633 4.493538822635037 -1.0488226563841874 1.4997100758003592 0.8818446755673199
Ni 1.7099771895548141 2.387214675214109 13.439462996601575 0.5991773369052326 -0.662603109460046 0.10192238596811479
Ni 8.763611208775142 1.194570396111414 13.058079848242919 -0.14043879687575814 -0.21700702034980046 0.7860111761057624
Ni 3.8446862192095104 3.8816326454676835 1.3347133794439563 -0.5826119763473837 0.007362611012658287 0.55354411244715
Ni 3.668322098655093 0.5437188702974118 5.0504999777641695 0.3495782415520237 -0.9965562428803031 -0.34318519354148636
Ni 7.410951764015012 1.3846016531439735 5.621313508375632 -0.4428316389912309 -0.25024881312206576 -0.5899097955603776
Ni 2.1108122765273714 5.576182467211028 2.228114645532586 0.8296469105178421 2.1626003774835207 0.4628057681203126
Ni 1.3428906216537038 5.189539821355354 6.543985301887206 0.8953607077758837 1.3191566702919024 0.5005331074677574
Ni 7.611793237560626 6.625796430642271 7.796541035831946 -0.047976013658646406 1.432431762268675 -0.41540362468726527
Ni 3.9410657966123472 5.457647936272483 5.95272267543532 -1.7946644593599157 -1.6356859518087572 2.1091394294509027
Ni 6.984883622641139 9.203632178623666 8.660254295547894 -1.0123006501987535 -2.286812170977455 0.10276982157007462
Ni 0.6143382454860198 1.3111142989452524 2.07691077399973 -0.01690963127114507 0.08618826306230963 -0.91625169229228
Ni 6.721457170118408 3.7412472847316516 4.6776820597782605 2.174251331458888 -2.119528743105027 1.1848391558225335
Ni 4.587116775297918 7.10672665121667 10.462892458615507 1.690545322850798 -1.8909232192843497 -0.009655777922209178
Ni 5.533697302568928 6.770163047587715 12.572135272336249 0.42922021885538336 0.7150322737940396 -0.026316269297025647
Ni 5.674432866397455 2.3302605933294713 10.676872077652177 -1.014327707931111 0.7002180915993423 0.7132947222776426
Ni 1.6542119550104875 3.51317291280916 2.0167790598442474 -0.6443577900966128 -1.8369390517584108 0.9036070069450759
Ni 8.872939084729422 1.0199665068903245 8.866680586831711 2.6631306567378004 2.136715025076327 0.8353532168740001
Ni 2.46151302604808 6.478757211148843 10.899416927061598 -1.3828356965081023 -1.1788248313076535 -0.4490375106916266
Ni 5.704310719709751 6.6970719758357635 6.092947680018472 2.280890149066065 -0.15840026645018526 2.541096073400843
Ni 6.147197825394218 3.4319257953504283 1.944212371143953 1.1421709275300458 -0.3525486370342574 0.3078484659134053
Ni 3.514094499894672 1.3039996466451005 10.92538172160881 -0.7003975546000002 -0.39180912519677685 0.837300570408358
Ni 6.992459068484046 6.333395280151048 1.1364237805381248 0.2929648639333535 -0.486362215284014 -1.0079171764190769
Ni 3.661769614477103 3.8223008689024254 7.791887942637195 -0.17160313829370447 -0.4363048936163067 -1.2430504740559432
P 2.914556021414888 3.355627600540896 5.57170355397544 0.3524067121397544 0.21687486564731034 1.2761907082533375
Ni 4.3266209697071165 8.519860640528092 2.6362053876293787 -0.018981940419141502 1.3412673861480127 2.4025976880809075
P 5.5450328237207245 3.521282879161665 8.704428729317737 0.05707000554011462 -1.593979058988274 0.5290726096683468
Ni 0.6030792160623206 7.42664639208128 6.229692771766731 -1.1291770863735393 1.0992314478540426 0.3581816669503186
P 3.7769587842952386 4.993094318207632 12.162210571939287 0.8282430881917799 0.08389072527738456 1.2822469417497464
P 8.605918442573197 0.027081758094853473 6.974075249302254 0.06193993203790623 -0.48758194662372795 -0.0009135129532048783
P 1.1414132530190864 6.504819693927121 8.971026363001712 -1.1224693353360602 -0.580721187082574 -0.26068543507435754
Ni 9.041018137385088 5.517357563542801 10.649720278938824 0.0863751822621351 -0.5475706684725344 -0.09352387749177442
Ni 4.352840122289932 7.016005618518876 4.51387917119937 -1.0384287147443727 1.3767452673396485 -3.0248015677883
Ni 7.746077691790569 7.989339818882297 12.548624664197755 -0.5782470145104686 1.2063636601578709 1.3878328926123775
Ni 3.1892442681225726 6.476877173494398 8.461396077410303 0.9200096166728154 -0.2480464061541083 -0.8167289169045935
Ni 4.68697995188399 8.51504995594172 0.5325934710011119 -0.23397270166986156 -0.14609856626469678 -2.605219129132997
Ni 5.443409415801324 9.0818167976607 6.654036623703614 -0.16219187228213358 -0.34235498433070716 0.0006355767014698732
Ni 2.4636971874407436 1.6443325414537997 8.817231910171483 -0.9224570497720436 0.7593169546440277 0.19453095073447144
Ni 1.0949099686841546 0.4654853426083045 11.237745369959308 -0.6074483186647732 1.2949409922776471 -1.4974426199224211
Ni 2.3838969617062653 3.596899099527918 11.306522492563978 0.9817160925436769 -0.2650478258081113 0.9670242948594571
Ni 8.053832483126422 8.608489670541774 1.46928721201875 -0.21361727794196114 0.7110691753812334 -0.8808100636552186
Ni 6.9272567821840765 2.8447918790416353 12.987967345951342 -0.12428378438245047 -0.8544236032418897 -0.12220170504244114
Ni 1.353645542941628 8.67921226348396 8.270939968731321 1.1111292277328928 -0.2749992805938683 -1.1241721769597801
Ni 5.444045310890327 9.117159662390081 10.972617667676724 1.1107430480380678 0.6546630286773628 1.1465371749185416
Ni 5.757983951569965 5.146944066262993 3.5218238507808604 -0.701578976502611 2.4211916490330108 -0.8990960064485998
Ni 0.6514330472649603 4.5499399522683674 4.308275857182917 1.1850664413419914 0.021535302968614525 -0.03110417760397224
Ni 9.161229956819263 8.039649257880393 9.962528731168916 -0.24668912079526545 -0.36779116501562464 0.6585700770412528
Ni 2.955585078461879 7.9619871141843035 6.40671398391312 0.11570684134671684 -1.7391157755603337 -0.15785416413872813
Ni 6.469633499002275 4.665783448917216 11.364252550774616 0.6432630143705375 0.04409570476763374 2.9101043986530204
Ni 4.186936015156074 2.478249047520977 12.851762304235193 0.6734691056402724 0.45033746044997286 0.5175530390645215
Ni 4.561892936767457 6.360167384985168 1.8563491799983314 -0.18710303370151646 -0.47991543121740576 -0.13570051085982437
Ni 8.81450124763711 4.260607686771897 1.0150839385112824 -1.0664951339632858 -1.3819597216610522 0.74878443054382
Ni 3.6116721405086745 4.517407928149796 3.9282686383429284 -1.3456698860910825 0.21330437468723265 -1.9347397022486679
Ni 1.506094478627011 9.022328351290906 13.365843855449626 -0.10133283201323193 0.19980736864206236 2.2258502865821024
Ni 8.332160998821879 0.3607395976431899 3.586109157930745 -1.1890123133636168 -0.49368574552862077 0.16847590551863242
Ni 7.206267272322813 7.119195724483646 10.613800500693912 -1.9609101899964487 -0.030983592865707926 -1.0337613911756907
P 6.432235495072201 0.6374037270622123 12.896745891466116 0.49559916050124964 -0.061064214301172245 -0.14011303810522321
Ni 6.581182399832639 7.459454892325504 3.048813749619351 -0.5407981256353912 0.7437057304693321 1.5414496216309905
P 5.437179487103263 7.345168877851171 8.374787166288062 0.7013460345561986 -0.039403698608603106 -0.4077720762839364
Ni 7.6386667169741544 3.1448790658260286 9.873222334647382 1.7649039402680315 -0.43716955560944715 0.8810126665843279
P 8.743723359469794 3.927988475868933 6.33331049413918 -3.3046882583814567 1.1843570739797924 -1.8683335069092921
P 0.7518841964115893 2.684500237258546 10.383419396296384 -1.2930617729770633 -1.026701913225748 -1.745902202354548
P 8.113929176972654 5.45193409634231 12.910895017989981 -0.1886528946871396 0.7749130093100719 -1.444514147354506
Ni 1.9442907060462216 8.352454346444851 2.110685097509571 0.7091485613197529 -0.42841366379368795 0.4096368974068171
Ni 6.6963807855216295 5.193032636409444 9.383203422235665 -0.6531666466374944 1.714836848408311 -2.4691645773678634
Ni 0.3756407392288323 6.8639898287636845 1.3106747019054632 -0.3810300323034018 -1.2714796759309135 -2.1466204571154965
Ni 0.13830349550986032 3.5377608562506184 12.28920342914866 -2.1147819724486614 -0.3916096075914611 -1.410793358063293
Ni 0.5604613428799071 7.000992964895887 12.311796136549987 0.5680171092523443 0.2651069611808209 0.5931339589246302
Ni 1.7598995619769953 6.837263803283838 4.313806301283074 1.780757105250204 -0.13869353204987728 0.39080485230197853
Ni 8.066071159622021 5.972031768050966 5.25246117961868 -0.42889805962927424 -0.8097776823977408 0.461856773943482
Ni 7.266944566032919 8.242453711918147 5.5008362718608295 1.3660013985595831 -0.14563653902661372 -0.830174243776222
Ni 7.280399737481393 2.329615482369613 7.636366435608716 0.07472474250740034 0.22334813207647986 0.6210360846515369
Ni 9.035562341838856 7.3508458542979245 3.3732225411774897 -0.6249588167447108 0.35344235249312034 1.2126075841850534
Ni 8.137457295265774 5.167062312339718 2.9826401105312526 -0.9487928594530949 0.2650228861074468 0.07324070176270613
Ni 4.601088035514279 2.292576897402889 3.8744230696977233 1.0083594061628183 0.9750067988443015 -2.1925339318181596
Ni 3.114374533295584 1.31672676429602 1.5483418738010484 0.4981756629791743 0.11078240746190599 0.17170546819952365
Ni 5.211722422503627 2.3490425381322044 6.0840727963849925 -0.5851864219427793 0.4554907225161381 1.2745210338603985
Ni 5.816025506215507 1.0163170220316975 1.4663464276288813 0.4398316758226425 0.9534239304672031 1.0396918977275127
Ni 6.436631465470093 4.439930101870808 7.029552027088815 0.40255685063158414 1.22049032936724 -1.4757353101523165
Ni 4.301323404209814 4.7307000432206765 10.118750644382384 -0.4029530576287383 -0.6755059335646431 -0.6784035668274123
Ni 2.2242780784956 2.0603185201121734 3.9359574393973547 1.4425079155577543 2.970432506119116 -1.056042571171394
Ni 5.0727194423958615 1.2609430980099832 8.587350305974303 0.38202736321966463 2.4528573555674082 -0.0545742357014544
Ni 1.4587617659151184 4.972589005554992 13.493619140094598 1.9226012671139208 0.5019654690389097 -0.6619078831652342
Ni 1.0961264636370303 2.9437058209296305 7.038616757661911 2.1339719151135506 -1.3593095883617043 1.233752593693785
Ni 8.722084494701974 4.561238609936743 8.46648047336107 1.2049765500023568 0.4326575266717065 -1.5707252306666561
Ni 7.685280591759348 1.0569774442444837 10.909438265029454 0.05422019479614532 -1.312683918083365 0.722407226101872
Ni 5.541613735633475 4.671801412585609 13.460248471728214 -0.6754601679283723 0.001952752850996637 0.9580832836160853
Ni 3.1779456104541963 6.718296126415103 13.370551322282422 -0.9115488874999722 0.2586396082889223 0.05259988558390296
P 2.7416662841728505 8.35423300951989 11.841160043720754 1.3424184690333203 0.7366385392099055 -0.5777446209527534
Ni 1.22322253859998 0.9350053934769802 5.968032080099844 0.5449337450703196 -2.377839507299621 1.1080462179321948
P 1.625486085555081 0.1504085418780595 3.9587657981766893 -0.9984925406710674 -2.68106410128777 -0.22304525612408038
Ni 3.7662960217158656 8.840720400219924 9.332865414037919 -1.7664633143353512 -1.0244352286787584 -1.0764332190126042
P 6.074696569376994 0.719403781169807 3.9304269952971977 -0.3480065261895297 -1.2020020407550651 -0.12031657220458634
P 8.203636463876386 2.860790630846122 2.8002239275862784 -0.42852036457488135 0.6282945659861632 -1.068494938002134
P 3.475185093144358 0.5992684534637288 7.249938519543966 -0.9194105496362359 0.4626928966915322 0.02018393114704266
Ni 1.8675317176939332 4.3439928862690165 9.085610050104668 -0.8461377090840136 0.27751047705149623 0.47695814836129474
