# total energy = -340890.68131537683 ev
CRYSTAL
PRIMVEC
9.06611433495774 0.00000000000000 0.00000000000000
0.00000000000000 9.06611433495774 0.00000000000000
0.00000000000000 0.00000000000000 13.26917474609301
PRIMCOORD
 96 1
Ni 6.507729326317686 2.1732382431118245 11.310325646116294 -1.4767732644985279 -1.6398369978626532 0.9881474499913175
Ni 4.5588230138201835 0.24444147859749416 5.767314282582532 0.03947620371775137 -0.2759572736317634 1.058667410388751
Ni 2.674113856215988 1.420895819489983 4.806930829014041 -0.6744103865076191 0.3718846183587079 0.5008172143670794
Ni 3.7957009803737205 4.534661819385687 5.106362823499879 -1.7899200026963948 1.2535989389957507 -0.1875817731101479
Ni 5.030551069660968 4.49137112391675 2.6000944731612043 0.1713048903269953 0.30179377507889316 -0.3579862631100609
Ni 7.501991942168454 6.358102176994264 2.8502720822347603 -0.4847915283627845 -0.8732898440187734 -1.6077262333710378
Ni 5.319533460880313 4.317745970215049 11.613685987899867 0.12115655160737845 1.0146778921816781 -0.6621881334098144
Ni 5.754797605270613 7.949241489576542 12.395466084440585 0.5389968107605942 -0.14741497108327514 -0.05696073365575997
Ni 1.9955605363473778 6.178538718469077 0.28016106206934044 -1.3188478808022317 0.7317511292106172 -0.11409964476059704
Ni 2.4515860823342983 1.4221469432543208 0.2512664493930996 0.16137400436652855 -0.25617649146041044 -0.016134186557701245
Ni 0.28969408118674106 9.423228474022775 5.304485524474169 0.9384009746958097 -0.6612558514035322 -0.1083023213525296
Ni 8.531077502793293 2.309456609482669 1.4743115513358227 0.22674918733822885 0.9939961954626108 -0.21665169389291075
Ni 6.831960769680117 0.8825862207122612 5.045019681367538 0.246630242532872 -0.4619159093161916 -0.049849062311643176
Ni 0.7106382981439124 7.481284937257239 2.336702095979685 0.12606633020417 0.3014718729631002 -0.3180112653790201
Ni 7.404159503465773 3.8551565575224727 3.695385332982256 1.7722480393379285 0.33451029147530775 0.16466655907487127
Ni 7.737484259405239 3.827459578536587 12.631378162766419 -0.3456305697581854 -0.11401171303248106 0.4345508870396774
Ni 7.825869807075746 -0.4051709914122799 7.354028424807033 -0.10211496159489511 0.3580837079198736 -1.0909879768983275
Ni 6.781589438994166 0.8459890373825315 0.2569227980638996 -0.2775590709012446 -0.35852670899456324 0.7099443177481708
Ni 1.8919892473343642 6.479823826704411 9.307264713462853 0.3479913566808781 0.43018541098213015 -0.5983833802490276
Ni 0.17616819874443043 5.029472202067082 1.4558139584635144 -0.99170765653875 -1.3369605312425425 0.07682584801080317
Ni 5.909719365306885 2.022396234481002 6.981589732226386 0.8509215036259022 -0.3188381321556896 1.589569874176985
Ni 3.490671566959606 4.117992275290003 0.5091756406856945 -1.0070453153370849 -0.17254827581579316 -0.020995885525376744
Ni 6.002529176723747 5.4927869038984065 4.694540930685293 0.11593901196218097 1.2464307033820854 0.5798848072242078
Ni 4.857397353899453 2.7392266886469634 9.380324901631642 1.8674739871224744 -1.3219018371372073 0.20981847302116122
P 0.1802905608867814 5.32073925407348 12.333459302746293 0.6022289792473627 1.0488470818642197 1.077990793307711
P 3.905799871635453 5.813682017222602 12.512035461431362 0.11760740080353939 0.7756336895261803 -0.7207753469254039
P 2.342838042093481 8.510724076337217 1.3403860052548409 0.07384516811592444 -0.17293394128998604 -0.3881720426648218
P 6.313714481702973 7.792959812405118 5.929835259570023 1.382197034482839 0.05660720697108316 0.4861837807246207
P 4.647743462230516 1.2368808988757378 12.760142370013797 -0.13645410119639723 -0.3976373018427797 -1.488296948867411
P 4.24787342781105 6.139880807373883 8.134202912516852 0.004482718361701958 0.3284856825477827 0.9827643313025333
P 4.8570891060154855 1.1849864609984189 3.7297395596504117 -1.0954467840006297 -2.3701529372886405 0.4521961109252664
P 0.5669612395924826 5.7756224696668745 3.6223251448134643 -1.0706713768281624 -0.9165185728004216 0.46684754228985403
Ni 1.2034360034652856 0.9647524140180158 2.56726698013011 0.42204401282191834 0.2768417331192458 0.5254270424959596
Ni 2.247371859205961 6.583984413142656 4.798610855981194 -0.3895871778447936 -1.5872836492459697 -0.7239126070028049
Ni 6.370051315555114 5.664879884294504 9.230821051461808 -1.2699961494068515 0.5703709541965015 -0.622951813617011
Ni 8.574694578374666 2.392447819183748 10.17536056379438 1.2822515697354366 -0.3871687982112881 -1.0910676810963273
Ni 2.4079327422959884 5.443041135094624 7.144561295091322 0.452717273536059 -0.5834722674651499 -0.9690269271117827
Ni 0.800195187773495 8.81173720114552 8.876653298897612 -0.5467132055682455 0.9837565200124734 1.3619511397496091
Ni 1.1129471172924137 0.8150835605691157 11.387804658362898 0.6165029726678737 0.613446445229737 0.006727034311188414
Ni 3.950849393265851 6.944770429097915 1.3590286559548985 0.9399235819879233 0.5194299443722603 0.7472566810453841
Ni 5.569087321294548 8.030582666486971 8.167813717817792 -0.5497921016038855 -0.15702035538352313 -0.5476079494683731
Ni 5.189960556243235 2.9025618026926963 4.9161756923149 0.8145882164125068 -0.5776970555442695 -0.26976014368211604
Ni 0.8164153727501391 7.451366760283942 6.915774275942249 -0.009517452572131995 -0.2452806704835131 -0.45333048164002576
Ni 5.34430208496851 4.394762610635704 7.377634773050386 0.03908925269197785 0.37488740974077367 -0.33800004979612114
Ni 8.319429065992802 7.130480713073981 9.239949721884356 -0.08884035597317602 -0.18628825110970498 0.10707204848985431
Ni 4.7953670003081506 0.40848102971923467 10.696944995032606 -0.4300715111120852 -0.05634186912483845 -0.5392035274547617
Ni 8.42145911558598 7.4323279203918435 4.665985390681416 -0.4087784060612637 -0.4741178506990221 0.8949734996397942
Ni 7.427686069903865 6.161557886508172 6.882123579738678 -0.3899566453690703 0.011175299890529141 0.11951104558415544
Ni 2.3499096111962605 5.009735271378941 2.4875060269307236 1.2635645348488949 1.368023056975302 1.0173089020466222
Ni 2.0583433774201296 5.270032477160858 11.274552572570464 1.9393517470993826 -0.7579244451718753 0.6823111294119346
Ni 1.0399830299345063 3.4011980855809796 3.7450921174948295 -0.6531579048867462 -0.21766522275908964 0.5606879225807828
Ni 3.487543757548761 2.6552019419231705 2.9738341531344767 -0.12649878975589826 0.70330444383415 -0.7798528698138504
Ni 1.1902720055970348 3.3764929242924233 8.16193524934825 -1.0650869407618495 -0.2028186446645604 -0.8085353253502074
Ni 3.370083181528751 2.9295697569967722 7.457647764225488 1.5865740247734545 -1.2939413473685393 -0.7592789023172407
Ni 4.34585092434148 6.788760735353523 6.114528325528995 -0.11926344834972362 0.4998561360053907 -0.5671174802562104
Ni 0.7713885164053271 7.314540964259397 11.275906143425651 -0.5890176227634115 -0.947707082588084 1.324626692267538
P 0.4554289956703017 5.558198918099115 8.096399029382532 -1.66740770839207 0.11176508309014947 -0.9104201732121675
P 8.254860200415887 1.6974938986652308 7.690402114963503 0.46186654413549494 -0.539538027976045 1.0716478818088189
P 1.7748369191983207 3.388260740568587 10.173197388938068 -0.13264989695895862 -1.0387778705536754 1.5299488200802425
P 4.264582276344925 6.340441386465784 3.498045944277812 -0.7337928422309944 -0.5635423613104423 0.7616700282572366
P 6.83253193487688 3.8107235316600088 10.08047279899501 0.2722636268302601 0.306624106588001 -0.4028049620866482
P 6.390232485840738 7.73522679696089 10.191190905858948 0.17632034126371568 0.35792764195798354 0.9171886022842526
P 2.458902436521405 8.39930153239727 5.755544653083522 -0.5046838964113373 1.901306362290887 0.7236714375262763
P 6.933202067334907 4.232578893097731 1.4416563144751806 1.2074836326949268 -0.13500811277849006 1.2520809596893274
Ni 5.451880596473098 3.0104848265381894 0.38727901497082484 0.5873890860210529 -0.23753933597519736 0.05730757547221743
Ni 1.6965328905563914 1.093400575003193 7.196987913874197 -0.27280690092823984 0.373526267727189 -1.1276061423419934
Ni 6.901978369911866 0.721705303789762 9.3029256711903 -0.002610698149969697 0.21373426313579963 -0.16603181485351406
Ni 2.6360815070029635 1.436797783857002 9.522676494282013 -0.024008704209771553 -0.31781303332528493 -0.20905794070605285
Ni 6.280877015946221 2.1892308686211868 2.632007195266054 0.45268667740843976 -0.7761574232401343 -1.1154389108518403
Ni 4.129778223794635 6.895559561033958 10.285069612144035 0.8777141983387141 -0.3268666588871209 -0.2038514568044489
Ni 8.244878408643887 6.879104563698645 0.20660677067477812 -0.25838069820058085 0.9766309647112857 0.6811268792958463
Ni 7.925306947997903 3.9675491756854915 8.003024399048872 -0.9560389994925472 -0.5966993076783853 -0.10525556410640582
Ni 3.42930303970741 7.982305608189152 12.314324362043312 -1.602568086208866 0.8817865686358749 1.117255909455921
Ni 9.02518072856441 4.746428115671224 10.222120861180796 -0.4722687133054253 0.3438056007343047 -0.9427893335714925
Ni 8.856106764208345 2.5687474765845764 5.74799439314917 -0.25526580672068294 1.2461257705471571 0.8745766811509971
Ni 3.5075164072069955 2.8855991029602603 11.478897347743777 -0.6782246180473869 -0.9130694379095566 0.5205118645825293
Ni 1.1666094474454272 3.248243672333557 12.568005117657014 -0.5635223067057843 -0.04981100998485616 0.12945118751600285
Ni 3.0509287621375463 8.265839264753664 8.031300702734331 0.19861129145143214 -1.0513423374822473 -0.17936786984078787
Ni 5.813836141164586 8.017908238787374 3.901177059987367 -0.28597403443781716 -0.39245164387678216 -1.5298467472847395
Ni 3.327336452913873 8.413934240771484 3.6510529409877934 0.10596801679239815 0.16995300428479118 -1.3767743208053709
Ni 3.423083685342658 4.446022420516619 9.212071420613785 0.005908395064634985 1.3038017851023869 0.9905684007279845
Ni 7.278267441207833 6.041178021704706 11.43810799319209 -0.2630341378121922 0.1088903326455157 -0.11472442282878952
Ni 0.19062593111392034 0.02362357386039999 0.3179966766034799 0.7165060301260886 -0.014249053719846428 0.6560632514589991
Ni 4.331200083738799 0.5887788434974035 1.5396356242284581 0.7213003661909384 -0.5912771082215494 0.7792234637599676
Ni 5.851877556491845 5.766610752117948 0.2804239793821361 0.44113676778731126 -0.38906344413083965 0.5349424381855626
Ni 8.066013040914743 8.64356984821289 11.525777317838086 -1.8124307822044012 0.8480135859504879 -0.4517024591182995
Ni 0.2833151632114647 5.102073644855616 5.839763414651929 0.13672560969022907 -0.8227255008076606 -0.861343984510807
Ni 7.7872390943232555 8.961101433156148 2.5396271176639007 -0.14808320079489334 -0.06647792911757583 -0.06219909923656385
P 8.377443130978296 1.6175035727757157 3.772492634545253 0.9441183367955611 0.864367344718163 -1.3042810387316506
P 1.7731324897222662 3.087166020732173 1.6936643720126487 -0.6464362698921964 -0.5995254642732707 -1.565978717120606
P 4.28181695950439 0.8930956603326994 8.104665512341395 1.3065266402327178 1.6073079148866967 0.09972949208185405
P 8.425257817450165 1.719751209110517 12.339549918288917 0.4433096070689139 -0.37779481319555575 0.6355666741675442
P 6.3694529520156475 7.746078935699386 1.2762051693671546 0.036730008431181904 0.1598681092449634 0.21546564400460957
P 2.0811809191764135 3.2955143919513663 5.85676147222988 -1.270003605606019 0.46684317141447984 -0.7938620396087489
P 6.942240983226537 3.909888689155137 5.929291292715962 0.3505966555142091 0.5786578767956421 0.0011505686646754378
P 2.344923248367378 8.346863127665893 10.41411305570983 1.4529828469471493 0.9803480085515568 -0.7797914204482957
