# total energy = -340889.0140149747 ev
CRYSTAL
PRIMVEC
9.09740701426173 0.00000000000000 0.00000000000000

0.00000000000000 9.09740701426173 0.00000000000000

0.00000000000000 0.00000000000000 13.31497474536368

PRIMCOORD
 96 1
Ni 6.358387082506438 1.849157167763006 11.271286236617108 1.4166019943252701 1.9364523140644005 3.0897188372869757
Ni 4.739858282859262 0.2659454123295684 6.20991830790924 -0.7385478404174765 0.492676587537816 -0.29366497532417163
Ni 2.924161378515057 1.5166924242502047 4.872082727287723 -0.8323771649648115 0.21862321579698477 0.9001655853636948
Ni 3.5526284577694383 4.521347661038658 4.940441554192349 0.08550846338646564 -1.0100794741777186 0.5851812797364568
Ni 4.964072978949466 4.332849385335135 2.8527067039645866 1.4951576805429863 0.14588465048167779 -0.00979950258892506
Ni 7.286404486282532 5.998602825386605 2.587006011886776 0.0022741407461573738 0.1143061043444483 -0.6625576009340912
Ni 5.410782961182578 4.724283521855187 11.157349399998454 -0.8297381846800677 1.2006203299161904 1.3187530070955804
Ni 5.531605625256829 7.874988532685357 12.55773875203587 0.34512406243541205 0.2977594571085194 0.14735275038677204
Ni 2.1529832736351375 6.1224276338132775 0.6005544147025688 -0.8415205220269766 0.30987372387355017 -0.8503764297557096
Ni 2.6466449740586877 1.8784963057525748 0.20068698177435215 -0.5911279842381949 0.05399496615921668 0.15765567497467686
Ni 0.6270378765944861 8.807290815218998 4.73917233836177 0.9552463283879227 0.1701242397553328 0.17672529001161824
Ni 8.737377241436104 2.40747414064915 1.3448660568504596 -0.7356229534611975 -0.1514184358157134 0.5947648096598338
Ni 6.694718224048873 0.6009738051711949 4.910722144584807 0.5269519637809182 0.12726677827017435 -0.35964359620782577
Ni 0.7588829591456867 7.202826606992558 2.259045394643319 -0.15987119456875692 0.5049800874955175 0.22774780380607226
Ni 7.56386630629613 4.020007748998612 3.8404385783917596 -0.19799731201651707 -0.7617821283550686 0.0269526173294439
Ni 7.212833754833961 4.096553332578218 12.515837004542488 1.3590990150127946 -0.8450329060556092 1.4286720381159266
Ni 8.00939362560253 8.981933739865742 6.931470056902929 0.25061570954318124 0.03088949049000487 0.5190291093894157
Ni 6.792160551802755 0.6988055019501787 0.45464383098991945 0.08342329872266277 0.40034673035414275 -0.7620662352543909
Ni 1.8449268734482311 6.622775928476312 9.209342535598777 1.9681277907908103 -0.1771232967809853 -1.6857964953119031
Ni 8.892233305578253 4.838565150204012 0.9518744442299997 0.1165661040232186 0.15293410112929146 1.1995399523678179
Ni 6.419967431359582 2.1913197472748402 7.219352956782279 -0.35251701246537354 0.3941606561480889 -0.02340269519465647
Ni 3.881217705845478 4.351599141427073 0.3837732099771016 -0.6401879749896394 -1.1331404418966613 0.5623833080053348
Ni 5.791536741733715 5.607359734416252 5.032994025614635 1.1555722885376163 0.9435418954668007 -0.2789178989219842
Ni 5.476921111007125 2.974388163271773 9.471673548076174 -0.6359019460197758 0.5901831038264223 -1.444516461347351
P 0.3827761341558128 5.817482546864335 12.39826575377598 -0.10602175284846901 -0.04313796884005473 0.8394433277829737
P 4.124955437633547 6.146008113090475 12.636590528322564 -0.03806775340599895 0.7422648842577475 -0.4504130508829146
P 2.229537954621872 8.445432349273856 1.3003615411776006 -0.1511204449593204 -0.20407771388264206 0.1696449861260691
P 6.532311311990027 7.790892101189055 5.936894203092948 -1.6274684489949713 -0.5245747217979934 -0.7331675499421696
P 4.6011592137774135 1.3038858766992003 12.73819673931918 1.1297113616104542 -0.7791663852697871 -0.0933600982204005
P 4.042987799405326 6.396114029868528 8.27733409931539 0.014001199375098469 -1.5231870758763766 0.4502063341887472
P 4.7260211266167405 1.1626850206570005 3.7545563258761243 0.5258366192295525 -0.695016492793745 0.09589931970248645
P 0.300611991933615 5.7375891174614235 3.6418585561083794 -0.564719412337679 -2.3450219465489677 -0.9743593950682897
Ni 1.3507557182254817 1.0518695044241524 2.64406131043418 -0.7289841079884414 -0.631523357336106 -0.403072356815422
Ni 1.9332990862949504 6.461378828608734 4.806838852583913 0.6464211003835448 0.3561134715673802 -0.013789597584924639
Ni 6.2287945179602655 5.675244586409481 9.245412845122761 -0.028862432757647067 0.6366128560438713 -0.5508591094158191
Ni 8.706800856077052 2.2956942992606764 10.214503222602826 0.8686394897309557 0.3598410569306126 -0.02369194430030113
Ni 2.4965741460661532 5.040100010322745 7.083273940953451 -0.7894623678791564 0.8078683811901699 0.5771144435679222
Ni 0.41345895917826797 9.016704029911054 9.04286544359062 0.40263629771926784 0.6512136366761817 0.5108745986030814
Ni 1.3402937000276511 1.045510416841297 11.614106558664334 0.12585112886957037 0.2362265307010448 -0.7989587374053659
Ni 4.191976035949563 6.929385840929779 1.524084977282863 -0.008251698485830948 0.7175735521586545 0.699697186098866
Ni 5.740573066999587 8.021202060055387 7.963447170899797 0.5482011029676817 -0.7483565989777822 0.8701351004398755
Ni 5.491549741669831 2.9571485767631738 5.032554620850328 -0.266390970099567 -0.2211953473995352 -0.2666372817824182
Ni 0.8573460159793918 7.589712039948336 6.837772221923158 -0.14486237986475053 -1.144152733846765 0.9255922529669156
Ni 5.079082399868575 4.64887511416665 7.365418196416114 -0.02259048370600626 -0.31955829815116576 -0.4721229317561804
Ni 8.210428128329195 7.037981589823261 8.962642688049653 0.1129130806516636 1.2673633397696946 1.7812312166731454
Ni 4.884507056203181 0.332837737205072 10.663204627256377 -3.094960802412205 -0.20595616185227758 -0.5039171934486418
Ni 8.115724120121005 7.182593973538666 4.521445913035646 -0.8424296641048071 0.2400070807893996 1.0674829517978521
Ni 7.657223898249294 6.204559025369813 6.987579225108964 -1.699848345419279 0.005384661350681049 -1.3708782670359099
Ni 2.7182233733461065 4.804167853850971 2.6720358373544664 -1.096347698548344 1.4768863930376244 -0.5130515516497423
Ni 2.4349665049916234 5.365805380339036 11.535641422180605 0.2074276041914815 0.15468887903686906 0.44284835116177923
Ni 0.9358775635351603 3.4300772863407625 3.592380487958343 -0.7326924100779639 -0.31890498083788305 1.10087001189873
Ni 3.1871492237871344 2.4013151960231234 2.6742064786953383 0.5464962044614331 1.2702743427689027 0.36515449872372596
Ni 1.1725011229487041 3.2290427836141 8.192065012040219 0.2761254237785115 0.3920346109440216 -0.045892905877372575
Ni 3.6356513952245706 2.634763760348804 7.079359326666037 -0.5264410855827707 1.0182540395687107 -0.45015002702951507
Ni 3.9855558682027996 6.899591832583782 6.14571335709951 0.2710246122168365 0.6839890313349897 -0.27310154935052317
Ni 0.6980112983078565 7.382345741860203 10.972990444538421 -1.2921423464865873 1.0799875120227658 1.7275334700393734
P 0.4026075719553354 5.608351351793264 7.916684678777632 1.6546401243137567 -0.47982518549644454 0.11771744401884243
P 8.52299684245186 1.735803474941293 8.035813405644548 0.32846639927407306 -0.3449697962457349 0.9705248518135479
P 2.032560895474542 3.1890232896556157 10.639690559051218 -1.2591208972552443 -0.6718822207691267 -0.11618198121092249
P 4.1126011587529785 6.259780286640102 3.742693306980497 -0.7478639756120797 0.506394965565173 -0.4293806556926476
P 7.294173671970312 3.9590278290159526 10.437183186110444 -0.6344911817151783 0.5140195719899663 -0.49359138604260155
P 6.378119358568259 8.034293228913368 10.192879595598978 1.0604214169653803 -1.3989179467819455 0.2376648058094681
P 2.5173617213548867 8.62051194946277 5.935828896718196 0.9941172944215072 -0.482673196468201 -0.7683584960210058
P 6.77708614819075 3.7101318673859964 1.6394864964492124 0.5995012959035546 0.9239822281673183 -0.12024638108828323
Ni 5.03311320164802 2.400514624195811 1.2903525738547716 0.6347596048852165 1.8529338845247705 -1.742307028804122
Ni 1.438218190359346 0.9935915143586712 7.004089199565853 -0.13896941141908326 1.0080573015413674 0.05953029415514908
Ni 6.776449329691752 0.8481203354103309 9.258820603748815 0.8472795359979407 -0.3595073277402776 -1.3776598087341176
Ni 2.445046432090055 1.4680667831481133 9.329510186359775 0.8049627775076008 -0.41801226595470586 0.13454171466503279
Ni 6.581291751970131 1.633002774388696 2.7349225738712706 1.3216922922295624 0.498976818724231 0.5417849150286927
Ni 4.360214385977809 6.886518858540058 10.468113460606796 -0.5531263081834409 0.5414568422653127 -0.121035709758798
Ni 8.207826269890429 7.11187073052133 0.3980907093160111 -0.6788586520869598 0.26463027865471844 -0.2753103840763839
Ni 8.014178861752148 4.072809099972708 8.425610008881462 -0.7946166583865863 -0.4222031641076019 -1.0223860594592136
Ni 3.0656715463996274 8.498470232833293 12.57626016320888 0.3799650813739972 -0.11094695806422829 -0.11870320497087944
Ni 0.3964904754020995 5.046431805684215 10.331129252768676 -1.3295197586937813 -1.5437296759144188 -0.7376700657982135
Ni 8.478519619000387 2.2212684115420216 5.940968931745825 0.619330671924656 1.1490609697816598 -1.4047201552860193
Ni 4.00210405176963 3.0386158575993245 11.545029036596553 -0.8005924163540471 -1.2981846960259256 0.5065849700887921
Ni 0.8804961878994089 3.5470062601639953 12.476371542678132 0.25238411429751373 -0.18280646320869162 0.06327767701272329
Ni 3.365622156834997 8.482495185915562 8.24067791677233 -0.8650677132192973 0.22724181070393124 0.18059377182808897
Ni 5.676791145621334 7.821104590262965 3.360539435472277 -0.5150392715037323 0.4942567875407423 1.7541107063072692
Ni 2.9247163203498987 8.438118033942503 3.574791561016008 0.8395235462016057 -0.5227528380979061 0.020741860533041695
Ni 3.367114131604079 4.383158046756008 9.58742076871341 1.041986350188644 0.76446378895229 -2.1121604756654144
Ni 7.4256039127564515 6.583256791909897 11.371973609493741 0.1794930825647425 -0.7684155745111864 0.39999937431705307
Ni 0.34804860192400494 0.07385093158813025 0.4017824371287761 0.21662855396445918 0.28336127940531847 0.06449175192548248
Ni 4.064375803564543 0.4393692844210867 1.5720328615538774 0.7031134108692665 -2.174545465660539 0.33992477762265977
Ni 5.922120923656899 5.687835397875391 0.43370978744641675 1.3987353984574944 -0.3239070620381647 0.26050880028717716
Ni 8.041061699817009 0.08616700135875908 11.433116373064001 -0.00303133062715607 -1.3123306485090045 -0.19346445714317004
Ni 9.081550347923345 4.944577235472987 5.595511271372032 1.206711787525909 -1.151952432396842 0.9535481147498932
Ni 8.047675514799462 8.75317943761839 2.686175937254369 -0.033173144317859 -0.33545568610771265 -1.028501685438648
P 8.638579400020067 1.2981090231725723 3.8819673321928705 -0.6465429706733897 2.109154856069871 -0.3163714157827519
P 1.6222860287912662 3.3484189599549117 1.45312975038375 -0.048631902075090445 0.5440621410986436 -0.5700585651624053
P 4.592307436641336 1.2791682215309343 8.303218042077535 0.8143182505805718 -1.099894792469654 0.8532660925986788
P 8.562252154211546 1.866687871299719 12.548271990177902 -1.1008131905188656 -0.8306673813625566 0.013005154010416313
P 6.386607239419195 7.9125972137547755 1.4082713455735905 -0.13931599612522458 -0.9728169902818343 -1.150930418890231
P 1.869489872695312 3.3524764035342445 5.792865872915196 -0.6243695199001441 -0.7807401575148103 0.11645348970475428
P 7.026937337569202 4.236626110136479 6.266413206177526 -0.5741479047404306 -1.579471095180086 -0.7888715283726929
P 2.439351455227584 8.43681710472312 10.432135944635526 0.4707815872369376 1.485759527157538 -0.9505646066415373
