# total energy = -340869.2684297894 ev
CRYSTAL
PRIMVEC
9.22993882764754 0.00000000000000 0.00000000000000

0.00000000000000 9.22993882764754 0.00000000000000

0.00000000000000 0.00000000000000 13.50894845077446

PRIMCOORD
 96 1
Ni 5.34623912516585 7.516188561462726 7.546071412070149 -1.7242889949601465 -2.875339484368009 -0.05230909381636152
Ni 3.951835315965836 2.316059371160824 9.562525116290306 -0.5730837251419743 0.9829353096627589 -0.9413153201291272
Ni 3.5190065550365865 9.222564309917413 1.1610229548082311 1.058405929197248 0.3168851221943768 0.8601787605581122
Ni 8.940377383916433 0.5568569896549477 13.456790533536818 -0.41394143831944197 -0.43307610226636384 -0.851050830114915
Ni 0.2527683413268254 7.426815061823584 13.838297141476966 -0.2668092885839082 -0.22513196344978 1.1773621307191982
Ni 1.3973850795070928 7.3024600932561805 9.746584868474953 0.8161771581661814 1.5482627878980821 -0.7775537893670287
Ni 5.47831955270237 5.769118011819463 11.999648059760007 0.9451195243665659 0.8759630199755625 -1.8678804785322733
Ni 4.245568895694852 7.683481206403286 11.976642436724733 -0.38354405697450716 2.053023560293942 0.6910618790213712
Ni 7.60688194238333 1.6126087978366923 5.161971699353004 -0.5845235915477999 0.8482706962666164 0.8685752121519235
Ni 2.216892906209575 5.922611897908374 4.265923680240364 2.365071409000675 -0.19863648826241273 -0.7018666829463589
Ni 8.270477638970725 4.088687621981489 8.521999015534435 0.21902276522824857 -0.33317897425839393 -0.9415942848221267
Ni 2.3983811973801266 2.576112903364978 6.381086967429726 -0.8701911504887917 -1.2480484414911668 1.0798730979320885
Ni 2.445804624122449 4.576000713011932 12.972589777947698 -1.7227820713973172 0.16226566294286246 -1.2161022276018734
Ni 8.887683661987293 3.210089725601242 12.921606363721038 -0.26475600559930534 -0.6742458359052969 0.10625315213298475
Ni 6.535516769336401 8.98967448828209 6.142640722497618 0.18196108448926082 -1.6385370481043073 -0.2887485118591608
Ni 5.842551406751717 8.154891112482966 3.9279971524299473 -0.8469355223949607 1.6632255519899226 -0.1230709950212719
Ni 2.237660269029783 0.3160561872759805 10.137452480580544 1.2898412091572364 0.7915791571118431 -0.12412540442771525
Ni 0.8623375127889754 2.187024823504601 8.345747791770188 -0.33685359489650374 1.4353062556029925 0.5303753876401703
Ni 7.906264244799441 1.2380117222553044 9.397986685156656 -1.7073317982805176 3.8979363742864486 0.3103905156089687
Ni 4.0789684961816315 2.441115815094598 -0.2279333443755666 -0.27144678735591965 -1.1919040330891149 0.5417926283381767
Ni 6.383988860261136 5.512248808581074 9.184720636895575 -1.8780023974576239 -0.7004255796244583 -0.03926537325852592
Ni 3.0186977098502097 4.9569664465248495 6.395285382641426 0.08092007268483484 0.15145494548060368 0.09724117844236156
Ni 2.249216152696849 0.5041697286831296 7.697818070700453 2.389991569281123 -1.3759016883924304 -0.38018285381175815
Ni 0.11162780563727635 6.114179282501 5.07229914968925 -1.3731848036818997 0.027160619575191933 -0.23375570056304903
P 5.3394643499169465 0.691809774217978 2.5051263652698963 -0.0686278855810431 0.0972874582992647 -0.444063454515803
P 2.432587351429766 0.7071388569610005 4.843106841629829 -0.8321982161847861 1.3275662345118362 0.8071109341988552
P 7.95189706336971 8.032640570014676 4.7040725780271995 1.2054609458379433 0.6709195997455413 -0.6570693241260104
P 7.909670092301955 0.8175095449022269 7.309125032230613 -0.688616245694356 1.9764800194102476 0.150545803402773
P 6.043136441777827 2.3218003932382327 10.266800846163827 0.2080333560962804 0.10708079024060267 -0.8387925815728522
P 3.695086101934853 8.055946166068466 9.65722336775655 0.4341719064337039 -0.4307158295643034 -0.7783819416952789
P 3.7599725733242124 6.586078375349333 2.44172868304627 0.7584085838971455 -0.5614011465977234 1.4564864892250335
P 7.920404511395245 4.566309277029168 10.554379902546836 -0.3947029018048041 0.30978322104227296 1.3712672749442125
Ni 3.3343431648393014 6.10697070011763 10.58777382196173 -0.6863873563638372 -0.36495292423588116 0.11255672575350938
Ni 2.0332263494276597 0.16424030410294166 13.009968262042362 -0.4067420923575253 -0.6312145678464356 -1.1861483615522603
Ni 7.030435330128556 2.122526009554552 2.890779984816762 0.5023483062996251 0.2752350507537582 0.5828014666503705
Ni 6.274604852802345 5.37484270622355 0.5603320617001957 1.7493505659144644 1.4264030395760918 0.17180034190617507
Ni 2.8311361187971267 8.279227621172307 3.4734881877103043 -0.44524384797714933 0.262639987697567 -0.5335283314468554
Ni 5.503231158147588 7.756739232493947 1.2413575751541155 -1.6416447404953536 1.8478204745576046 -0.2848383781714772
Ni 1.5536848670614902 7.791831460690582 5.517284663316498 0.8859610117285387 0.6537004076537775 1.018814025837239
Ni 9.018425748364287 7.773196213786583 11.450211941086147 -1.1321127719630952 1.0520067105391238 0.06136580470199109
Ni 0.0352777499711623 2.0780561633022145 1.6209249729038064 -2.0128616433630753 -0.6679522895871012 2.9096842803964664
Ni 6.292732453059628 2.653496712202587 7.889320845719862 0.865538996428761 0.7587525975001256 1.8153379285488669
Ni 8.073649189130313 4.300643941894042 5.857953406013086 -0.4888531000266677 -0.9915091673746989 -0.11030906736991326
Ni 5.135676526047009 0.4214011734147167 10.532887066518777 -0.39080896606703663 -1.7047336985360382 0.3285193639991955
Ni 7.616351859829344 9.098763137691883 2.107017865994324 -1.14244295024451 -1.2599269380963076 -1.0443975307332982
Ni 0.5379780723605244 2.4552099319952454 4.582803178077928 0.849861180682188 1.713702734803868 -0.05585824462020058
Ni 9.516805536293143 3.112215452114362 10.758486159313351 -1.037103568175046 -0.09460399792983062 -2.243997132694458
Ni 8.283205724894755 6.48795489350861 9.35546066406429 2.9901346125337342 1.1871539199986394 0.3529435584798309
Ni 5.833782964672073 5.0881423400363115 6.574399733493152 -1.4266064138361496 -1.6110745810179803 1.8978050340058477
Ni 2.2356942920161362 2.2702973334441174 11.58018148156623 0.8891113844320624 0.13092597228931646 0.9423674155427254
Ni 6.478881863440937 1.60806766783334 0.552326935578433 0.1474280837093977 -0.8102319963263401 -0.6049929151457452
Ni 0.2018846104417045 9.209383956980854 8.714326024109328 1.9046603663647845 -2.585907830398895 -0.09653361085237569
Ni 4.499013791552664 5.005322097109324 4.082714928434397 1.5614072956998397 0.9338287819440949 0.06675792225183988
Ni 5.444113398652731 3.523723053881532 1.775386156603188 -1.5607205540454605 -0.2715702003076613 1.1523864346104669
Ni 8.003021695663545 5.570000537099313 12.540613863384932 0.9321979312088914 0.4799030899222316 -0.7319251928946363
Ni 0.8717723564666715 5.45422941183093 10.87393331372174 -1.1332466284572227 -1.1720540882427233 1.385228879330627
P 4.513800153880652 4.56364182464915 0.09681559948000124 -2.8013356791870336 -0.612174777606165 -0.5341281698143834
P 1.635886704073387 6.978830741005098 12.248995785681867 1.4365794658884614 -0.3121355233245334 -0.8008790943565304
P 4.420522390031311 6.691715027561456 5.7135833146565185 -0.40361203136897583 -0.3793174204876693 -0.1306004706290977
P 0.6212579662512658 7.330685246813601 7.661762236868961 0.7207159544423781 -0.13172892780658602 -0.7174326557054159
P 4.196742518219786 3.293851422309413 7.335778327171018 0.5973688229415841 0.514902745925868 1.0239060956481658
P 0.5683436487792802 3.8633571204127213 6.973724738733036 1.862325095931683 -0.1823007272168667 -0.4223237488458662
P 0.47782748268807523 0.9461518201496236 11.086848624299636 -1.7812942087005967 -0.7742856601387181 1.0591901156614403
P 7.454717167514911 3.657280271663044 0.9743705127497215 0.468377091560503 -1.3800589050939136 0.2523044100995139
Ni 2.864040851443366 7.008052727977888 7.711353776289713 0.12910537414080991 1.6089840170375387 -0.6635004244633347
Ni 4.691984126878033 2.2204464327365883 4.117446266014912 1.2613700983007372 -0.9018177762551373 -0.9541944900846405
Ni 7.081836860593326 8.423168520363921 8.468287231330153 0.481551681269248 0.191902769083005 1.4522979050649827
Ni 7.952469319589645 6.614700416285094 6.9629174031214 -0.41603225941019967 -0.03838014244009519 0.9595554972862379
Ni 0.4556100964460657 0.49818965118481295 6.236919934731845 -0.0025304797313375773 0.7306201009299675 -1.0010083651143857
Ni 0.5674963403762158 6.615688019761433 2.7396821909003513 -0.9554823556581287 1.393360507298826 -0.9895762120180441
Ni 2.943270648087216 6.8345575640083585 0.5391918093431276 -0.2342164422495515 0.3059738745985118 -1.3289163207818275
Ni 6.171912551141176 6.258969336083487 2.7046130375512942 -1.9444379033730386 -1.3214084424405566 1.9828381004177917
Ni 2.443294080705962 4.726587168306014 1.6743801648030205 1.354078678980068 -0.4861004769821951 3.0076335406494463
Ni 2.963290385845896 2.1175603023557645 2.196177231047942 -0.2662007084656319 0.28866726499926415 -0.03901494781061668
Ni 6.837557294193499 7.889539595274901 12.908773056492054 0.4797007441034383 0.07845772718727133 -1.2358411007916976
Ni 7.3927381269203805 0.8665620558835571 11.527159173807577 -0.32396028387360337 0.04325701091642228 1.7597640479383048
Ni 4.070476952272925 4.073098254957786 11.44714575533998 0.9399940302145424 -1.72752704228147 -1.5271961970357697
Ni 6.506377851814893 3.3827911148140877 12.052914037909082 0.42657223970957503 0.534917241374582 0.28436555230011673
Ni 9.168661465975186 0.4817880495263646 3.5957987247822953 0.9213923559529552 -1.6620608422578602 0.5206962126791936
Ni 4.723550518364748 0.41880294557743303 8.131144325343486 -0.4297256977368922 -0.5575815157413171 1.4452520539617948
Ni 6.809516739416703 6.2793121217082595 5.032732247050288 -0.3950032066540423 -0.0428911429365713 -2.0482863027192724
Ni 4.141824380984127 8.883724018142907 5.784086203946365 -1.4861179389382213 -1.3407246262706651 -0.5932126346813654
Ni 4.180368606378431 5.2945699264691735 8.591447845786918 -0.10626857875195246 -1.4933008298399055 -0.4228166293218847
Ni 1.6661885939128278 5.141242179282824 8.569496281789007 -1.4042648129161557 0.0966732217540335 -1.9366880842242906
Ni 5.149502974715751 1.5636347413371272 6.329928184361475 -0.41244505627957356 2.1848069954875466 -2.2504176915088214
Ni 2.903000424094076 3.479317817202413 4.461182117451568 -2.1706103922721907 0.26358486810933957 -2.4003505439179436
Ni 7.694981710436166 4.66603876826132 2.9925160647942985 1.3878717162701129 -1.4711903710941114 1.1762426724027741
Ni 0.1766010384535292 4.821387872095504 1.113189718772923 -0.3867875036124694 0.08025904206206824 0.28457252610460027
P 7.6817275179873565 6.764419257310244 1.451563898626353 1.9962798277449942 1.2758094136545188 -0.9414490174935142
P 0.8144627420280267 4.470844017629432 3.4216408511903262 0.006285575898395626 -0.4274523283216832 0.3010342712050493
P 1.4905797739051527 2.782328201200123 0.5126391207381618 3.675605884841205 1.147228287448295 -1.5540356858261173
P 1.0780199590884256 8.923837333172516 1.7685236969334885 0.4272163010514771 0.44202148438510974 -0.13500014235869007
P 6.641753367585552 7.412480966508125 10.476743193379773 -0.20534166819673025 0.30706839321427115 1.1386433739927617
P 2.3242647869595636 3.9693075905519044 10.066814834180843 1.188954720652804 -1.517641206357483 1.7467961749237269
P 5.066230464776234 0.41513312181862655 12.765011218117642 0.018310368273413626 -0.24993642408796957 0.4269537914187098
P 6.301187077212211 3.6648303617905684 4.774656690780521 -0.17797895991306123 -0.3916648863094287 -0.8924036820300889
