# total energy = -340891.42720621184 ev
CRYSTAL
PRIMVEC
9.08933402600430 0.00000000000000 0.00000000000000

0.00000000000000 9.08933402600430 0.00000000000000

0.00000000000000 0.00000000000000 13.30315911102131

PRIMCOORD
 96 1
Ni 6.557463657727122 2.1141699993120353 11.544867572780527 -0.04602326080764977 -1.4759569392448193 0.38786299606483526
Ni 4.612591593518787 0.39802557163992003 5.849918086415781 -0.3496831425610042 -0.2982641646590799 0.20438161827630608
Ni 2.3272421669648318 1.4227352725175701 5.035165638428765 0.1662542152769653 0.4223828842185758 -0.591798270832342
Ni 3.570535807633519 4.787524915703146 4.973931704197039 -0.2591407162950569 -2.172872705943806 0.06096085595408856
Ni 5.116676967883451 4.300127558564425 2.7506278894011027 0.5401491791974826 0.7260448228544593 -0.4979319223994844
Ni 7.235927904902077 6.088426755270537 2.674068429110193 -0.43316274844289915 1.1329306398787002 -0.6523112406157346
Ni 5.376222900283655 4.21845080323092 11.812632989917889 -1.3512998306833504 1.6529383111313019 0.41104894726299535
Ni 5.669999264531843 7.836005735651911 12.471578801258975 -1.4314853391950055 0.43486430451503816 0.2831517344976736
Ni 1.890081558849957 6.390865254821733 0.1551894708672601 0.7930110044623634 -0.13179500515783107 1.3823906385508835
Ni 2.871747809632198 1.5691735326086116 0.528268456407877 -0.007238426729968179 0.33419970221342443 -0.5203956507196392
Ni 0.4458718258214881 9.004912266855943 4.473559322771808 0.6367792064184066 -1.4416424822336655 1.2117586059211969
Ni 0.09164957259946567 2.3731523930041742 1.1098694890003604 -1.2608491928002608 -0.37409576707741377 1.4033662123612862
Ni 7.015547912712431 0.600983128416339 4.639383314420305 -0.019234422749579778 -0.2603380790372678 1.04388536698357
Ni 0.7438829107807691 7.227511181617097 2.318567306594222 1.2697863473888906 -0.5145631031982623 1.0586031328097187
Ni 7.51900612303102 3.9881725263141217 3.6738406332225413 0.8544997078954638 -0.17254159094757382 1.5877544182348011
Ni 7.804583908010255 3.982000868527403 12.524990454649389 0.929092038590058 -0.11993244939229024 1.3233645377256626
Ni 7.87475356649842 -0.15787173333097224 7.028125733103095 0.07928999328057958 0.47888827550447205 -0.24111934001697183
Ni 6.9419697539738685 0.7040207275857301 0.49848543568661097 0.4400476484881905 0.7188696452622587 -0.9960890734358974
Ni 1.8325369852892603 6.655992038298588 8.991511861738182 -0.476776628478108 -0.07047676586432379 0.05495398763837633
Ni 0.13762796864381638 4.839434102183186 1.5207510146513765 0.11116653027420209 -0.2337227904425846 -0.17789488483968718
Ni 6.251571211255523 1.8692306266515306 7.0110705067835095 1.2669599336836888 -0.34374903646475635 0.38853019733518895
Ni 3.6312525587605853 4.387430611644585 0.5625597867936676 -0.29738793270171365 -0.21747264713230932 -0.2327750818173346
Ni 5.808893377402007 5.502973662928405 4.933675952839754 1.0520717594491042 0.4306806054509938 -0.03226631623287346
Ni 5.402154770188672 2.8244469154906935 9.295290129121135 0.24395680946576692 0.6043869061306301 0.29187085953822633
P 0.33578999280127736 5.733924550561282 12.344227233636753 -2.5927130262461864 -2.0100012910961444 -0.07093750755082621
P 3.967948758161768 5.997033501889902 12.419509642500515 0.19240233442724286 0.7014277956367274 -0.10027533728299505
P 2.4831151557489712 8.431011718029154 1.5266708978862655 0.5271815632932212 0.21815270391846947 -0.11507306441745989
P 6.12858343288721 7.764072746367539 5.923005421118287 0.7286958873240612 0.00782926623643168 -1.2959555495850907
P 4.7703097171051425 0.9825933628503488 12.579706427468958 -0.1483498241927187 -0.1773672944709913 0.7584751754690228
P 3.8686841415362156 6.337692650915545 8.18083052645024 0.3005007672990825 -1.7664021220801127 -0.16883200330647055
P 4.93648092131248 1.2566913189862468 3.7758756788516155 -0.1501349411175995 -3.007998123077716 -0.9422216339934805
P 0.1456047681631447 5.575951925622899 3.7350218493170613 0.2670314318970433 0.5826009206037902 -0.14771707570472625
Ni 1.7123305431252716 1.1415930825308522 2.6352097083888713 -0.08573677734718783 -0.6763284294659385 -0.01607479407467554
Ni 2.019522764359021 6.512780491777922 4.608626826027526 -1.4700020072129651 0.9877910950931633 1.0104509985845243
Ni 5.9071036312834355 5.771727090671682 9.144591698183797 -0.4584870861403007 0.3449263446023092 1.3114528738897415
Ni 8.764417578521954 2.553203010231128 10.52301192277921 0.4353705547274953 -0.5844693412710967 -0.5074833135333454
Ni 2.141974272021271 5.228230364078432 6.863671504088557 0.6982108313613266 1.0402768236967053 0.8661774013437084
Ni 0.22364760776302686 0.07122765696588908 9.578886439288139 0.8757809858717434 0.45702798509627096 -0.5093535339728648
Ni 1.6025859243965002 1.2394306737182381 11.690949530978727 0.09220413023908637 -1.3612392012842494 -1.173008995956825
Ni 4.059287475538397 6.879107920022553 1.309772120619024 0.3641939345826695 0.9489340130166497 0.43075388189109043
Ni 5.771672554667675 8.342190746170818 7.955661364175436 -0.9564596319697335 -0.13590928443652076 0.5230042919870799
Ni 5.3769682256717415 2.8543962710241786 4.872588356885445 -0.12702355191111672 1.9994566828110787 1.1766861876980959
Ni 0.49574409255189195 7.476849791934114 6.7384222994207805 0.9637173419734111 -0.6160422309813713 -0.21586030833986694
Ni 5.267069088264953 4.530333120809215 7.2794885381021475 -0.8504800452131096 -0.3594728749579164 -1.12635118688897
Ni 7.940260396644044 7.1651492610358405 9.267074109581651 1.0818669884336658 0.3231555285841209 0.1362422422959073
Ni 4.830299321512124 0.6009649497483369 10.399412432232626 -0.7307440281023415 -1.185799462853274 0.23439076304388667
Ni 7.8693454127677915 6.998850806152488 4.7921441152424835 0.6125506728883451 0.9668024086566381 0.17342425066284325
Ni 7.183082517019927 6.258342765086311 7.104099840284336 0.038138715853250446 0.23364257202395247 -0.36418467861128895
Ni 2.4549018630096877 5.360443816457819 2.5993041122844924 -0.3063623682861821 -0.7448524424792656 -0.4430023602411403
Ni 2.129231025751788 5.199517157969091 11.13422509661374 1.4353419939369345 1.194629145329762 1.5638961235599647
Ni 0.9314567697603978 3.490558757758212 3.7616145138039556 0.4954394949949339 -0.37771253789439463 0.13211947837678537
Ni 3.451520068223669 2.64121503136337 3.2010589251575214 -0.13205725768028226 1.032944037480718 -0.07005253384271162
Ni 1.143101911975028 3.3339131755839824 7.959093496694235 -1.2540383405260143 0.2585521907814386 1.6222840765805544
Ni 3.4812876370771333 2.6574031352192535 6.985794886793368 1.056630068243748 0.8049463224473684 0.0009286824618564652
Ni 4.075248346044255 6.883707123027087 6.109103172256144 -0.37829720675327105 1.054544646469629 -0.09345497192705196
Ni 0.8202542218578566 7.408361660236144 11.150455011406029 -0.12778665532938638 0.46057173658347134 0.3990611787734998
P 9.197406182330342 5.695958402438864 8.068685414611789 0.0861458398601484 -0.27745699810574154 -0.9287845346519682
P 8.586993778821308 1.6679927718681118 8.10960559628455 -0.5612034287646206 0.15762302196452854 0.45778697474948254
P 1.9060242506878124 3.2943109473413736 10.325327088656804 -1.2016960794788722 -0.5546090633765546 0.006128224384924929
P 4.197763479044513 6.26623230699923 3.5095463764864214 0.03897946658699094 -0.18558762549825455 0.36985061864781466
P 6.934661929437017 4.011986581396893 10.464118492052757 1.3184365042964261 0.4578036869200309 -1.499093782372599
P 6.123193457824584 7.871645014270058 10.162269890278228 0.07804969311557526 -0.9130699521301887 1.077242602287777
P 2.2858766079260175 8.592065627193897 6.0084778823306335 0.19944150066221134 -1.2816707575313024 -0.4638159545523819
P 7.067802493884511 4.0919545419381995 1.507606928752447 -0.20816885323288017 -0.9402840506511355 -0.43708239521227943
Ni 5.357380710899462 2.7462786430815966 0.4770936881151215 0.5257582005831333 0.01348466474999613 0.6166850067716928
Ni 1.444595120790114 1.0442735833815269 7.321952088688287 -0.34352483626909225 -0.8185852533870419 -0.07425962994552371
Ni 6.992151966993708 0.7472141516921567 9.444178873658862 0.6153326065088564 0.6785845724899668 -0.6304671481574496
Ni 2.8272646090310216 1.6445422901453828 9.311081029081173 -0.758153787573862 -0.4288947171951646 0.061988782997970664
Ni 6.739204891078272 1.9977810774284905 2.7136579322852006 -0.21675865178442022 0.06905725980897784 -1.758349169868649
Ni 3.8826817158978453 7.028536570999942 10.298640804029699 0.7829459069168774 0.36907645948595147 0.8779008604282236
Ni 8.292181230496999 6.958512341855793 0.5580605664631441 -0.15676710172213645 0.3004336615065729 -1.0693968809911132
Ni 7.52733195297599 4.047144125312984 8.085154378888305 0.9228128904495655 -0.7358299272656811 1.1900492392685633
Ni 2.998580376282958 8.22903762719165 12.534476083612894 0.9454743366028233 1.0341606834966381 -0.6358073294234405
Ni 9.15459541918536 4.927137085959393 10.086588459651821 -1.0471735508165383 -0.023735395943726867 -0.007732849867883457
Ni 8.746102570509823 2.0157416014145806 5.663434038582879 0.45807519541386266 0.7889010960590478 0.29937693810728444
Ni 3.7138473368281972 2.6240271007673694 11.449895848603676 0.008396708704127474 0.21038771526106995 0.47667558412386934
Ni 1.1835403589457338 3.323315012138749 12.646089469412281 0.6914004933077125 1.610814642488374 -0.4258834411726665
Ni 3.3197883505463386 8.495745954784688 8.173833557136225 -0.5580543416126775 0.00715435165659413 -0.6195443305973588
Ni 5.487349097780588 8.059494280069918 3.6632906432475134 1.7519820900000407 -0.6002813686026888 -0.5215341351994567
Ni 3.2566265685729885 8.433838500903484 3.899980536368658 -1.2200293305704215 0.656190778175799 -0.801082211506272
Ni 3.665855653302612 4.455164328620468 9.478142079087215 0.0045845340468888785 0.05320306638554063 -0.8991448574086645
Ni 7.18207360094581 6.087017908500373 11.588035546751751 0.4088568247076829 0.020714606839532065 -0.8306786942164661
Ni 0.65452566821637 9.067992244823282 0.559392153894299 -0.09409260551105086 -0.5347904859887306 -0.5693096028115227
Ni 4.78670687564305 0.5688686935238018 1.6655422874214265 -0.3769167814659767 -1.0413191489182905 0.3630099415768974
Ni 5.974391970893267 5.6668179976314725 0.5181111256616949 0.02501426265615047 0.07128769180139337 -0.6436551076026333
Ni 7.791249855030703 8.457716181324262 11.53981208520914 0.34833511317354204 1.3397337231123054 0.2846324328082582
Ni 8.94690413726119 4.906131635082948 5.979756495820691 -0.13858168906236132 -0.8526747388715832 -0.9040541217848237
Ni 8.188181070856896 8.765999122638139 2.54549252819803 -1.1390092419726123 0.06362349038791623 -0.13788492010565284
P 8.815026990239845 1.5958961745717217 3.335501082233967 -1.0332471705434334 0.7081057218775354 0.7074284933048526
P 2.021940527203302 3.3856678433860052 1.7125559586084977 -0.3801383737270679 -0.48344247053405776 -1.360193276518238
P 4.5828876500033315 1.2177435227917144 8.140415711747936 0.3511828670349823 -0.8331657223043781 -0.07163556205911534
P 8.660453776217855 1.3230525465279694 12.529061567348462 -0.6557117816568514 0.9194059216505456 -1.3203290933334488
P 6.5237694965852 7.94658657310878 1.3898873283711473 -1.5837378408762404 -1.6751683261740957 0.5560509380294038
P 1.7840181203916141 3.3087993457390596 5.897796153266352 -0.5656406386003677 0.6819390907844965 -0.9590001390034001
P 7.098179048116047 3.5374324532016668 5.999791205825822 -0.24901674048717756 1.7107487943818669 -0.7576292825289598
P 2.310281469718858 8.65670897060942 10.148142338440383 0.07905036646594774 0.5347498625587823 0.8507304706610187
