# total energy = -340897.65987953485 ev
CRYSTAL
PRIMVEC
9.03049016285050 0.00000000000000 0.00000000000000

0.00000000000000 9.03049016285050 0.00000000000000

0.00000000000000 0.00000000000000 13.21703516927001

PRIMCOORD
 96 1
Ni 6.306975507636998 1.925625570899692 11.277408691006338 0.32158304189067843 0.14038043283399695 0.7723030824910506
Ni 4.548459154643751 0.35741505553925057 6.0574594560594655 0.3415435441730053 -0.21811105204725661 -0.3169992791747379
Ni 2.7097791417015444 1.5579672305254628 4.816578015672096 0.3699231237569629 -0.2005912979959384 0.05978817580222607
Ni 3.429662714997849 4.480017070746808 4.942391705744747 -0.5167133167720456 -0.37617296132141664 -0.44291288585112754
Ni 5.216218739517683 4.63504349300025 2.584934423208541 -0.15454026927414674 0.18211149402419602 -0.0644542138193277
Ni 7.391835365770206 6.172628907540042 2.5813664765997957 -0.7663874883375641 0.34153248842941186 -0.19767875233483376
Ni 5.124694723117693 4.550924478420486 11.348820000023393 -0.06997051565186659 -0.35232135151479965 0.1289487939582876
Ni 5.387165915684612 7.776227204160142 12.33052908584985 0.7971479094488723 0.5161605295923692 0.19370099863400836
Ni 1.8115795123781844 6.424949829319235 0.3355450147975143 0.7164785193222628 0.181955428062306 0.6399270080187689
Ni 2.680691933332095 1.6118702254826944 0.44201991048234196 0.37839336601150314 -1.1277704358339997 0.5424336043562852
Ni 0.42544173689506 0.025690841071172473 4.655634816354493 0.2610199355956408 0.43175944033746927 0.02902749758060162
Ni 8.671040399724252 2.346401253599007 1.307138145698343 0.053688490662391404 -0.0893185811611752 0.45895502691565476
Ni 6.862377735624035 0.7262076254605779 4.837514303745283 -0.53618916610847 -0.04238514983443023 0.07129566222119335
Ni 0.7967131763281582 7.414845054353055 2.3981251913132864 0.3618249201298607 -0.03776204924012206 0.6121498379055006
Ni 7.684919919520743 3.959653144055475 3.6190754371672145 0.39034411061547614 -0.8644799590366273 0.06560632514589992
Ni 7.681741187032061 3.807335868809433 12.525691521017922 0.15996503983414384 -0.23686699249852106 -0.632755172860678
Ni 8.04614855099741 8.625002961578504 6.9832336866731435 -0.5810274054690832 0.7446660375000723 -0.4909848016576898
Ni 6.817469108731371 0.6989093571650149 0.4805214047025057 0.5561329562202487 -0.23838754290810557 -1.4008087360467554
Ni 1.8611749635936503 6.440969918622993 9.353550387004473 -0.8205693736966061 0.10702422597105438 -0.6853817979174585
Ni 0.0034920904925383653 4.820764550847532 1.3620949988414532 0.4399620307529197 -0.4269316799315228 0.23066189212907373
Ni 6.393090260512214 2.1089625793804623 6.9414938587301345 -0.013486207411892904 -0.41550261215897477 0.2485544561387784
Ni 3.460303167651541 4.293329750466886 0.6397018523672944 0.5099189195580315 0.15462125902372725 -0.6594758766849739
Ni 6.055295750649555 5.647280150355094 4.6765566556436395 -0.11642135091523821 0.41715660282262995 0.2588910621780961
Ni 5.3953656006270085 2.968502680908227 9.210832522654652 0.1808529390267466 -0.5827922106789899 -0.3803970267050933
P 0.2625876858882372 5.469514954219542 12.37365599706065 -0.27889578743479715 -0.26609092236064497 0.12011345505484475
P 4.018215871865435 6.01799079635766 12.542834100231746 -0.2753564068229709 0.706961323860447 0.7898747728262268
P 2.4376904772583563 8.642774965947046 1.3383836411836878 0.18669937050519458 -1.631768876142538 0.03157674636501659
P 6.358675063028212 7.718134061831464 5.74314512330994 0.02564649692351067 0.29519863835987864 0.33510627318809383
P 4.639468433112336 0.9672557865419816 12.581017721203041 0.45759491334333446 0.004563193890650206 -1.0051568400651205
P 3.9395332122805193 6.201833512279811 8.334318712076524 -0.3113320535866316 -0.6403293856635102 -2.0027361248932993
P 4.72453564914469 1.1184532810249654 3.8041399783897036 -0.15154467698093255 -0.8261720645953642 0.3845807257691377
P 0.2681775592135055 5.57556902906922 3.519788811542021 0.498714823312096 -0.5683927474242081 -0.09034419421221214
Ni 1.4906720188616511 0.947506104858037 2.6686777694032795 -0.8551404268032563 1.6018299224912607 0.051857608101239724
Ni 1.796471502566918 6.566466638495777 4.750942608074819 0.8974710692506671 -0.12375310868996106 -0.054472162905951346
Ni 5.9415025458487385 5.498827924839607 8.97126084669228 -0.29814615102397685 0.622900134443469 0.9543089041753177
Ni 8.686681208446974 2.3144333189116892 10.28586630459202 -0.23695569555758544 0.21555357573272552 -0.2282201154568005
Ni 2.3532553955277282 5.30351648658613 7.033128047108425 0.0025384501511375637 -0.4444244373996475 0.3125263310050489
Ni 0.417438916635201 9.146893041084006 9.178080741433192 0.9169109231428337 -0.8388218921488908 0.5844094345674387
Ni 1.5099159931042145 1.1571037783305362 11.554583327431418 -0.23627949542616725 -0.13852898144755496 -0.7987985576784179
Ni 3.9654055662011873 6.843540133432581 1.547965962823145 0.7498491243629086 0.8405208771178686 -0.310812947858368
Ni 5.686084165991083 7.848362758477173 7.961492222261178 -0.76510399363945 0.049445399115321295 -0.7309466310314509
Ni 5.350502126184468 3.001599426848628 4.750651826296025 0.05080988356301572 0.07971319686092723 0.3267473597004373
Ni 1.0158217618946357 7.346601641236653 7.060341428797757 -0.27185353587603506 0.13102778797450337 -0.10885485142188996
Ni 4.967771897959071 4.618635092625432 6.778356250336537 0.4991843067493468 -0.9677668294524366 0.9992571867512339
Ni 8.044107660251836 7.208209381608646 9.053629752305264 0.23077167823406064 0.000827895217934058 0.5102359365778181
Ni 4.576119545589304 0.3114968198618286 10.344326084815696 -0.2570951466199379 -0.21733046512749024 0.03364519885827109
Ni 8.320061374425581 7.03314430199047 4.849290062737447 -0.7619549064875072 0.38630362199751533 0.07861687847295493
Ni 7.173776123144594 6.016139545902603 6.948538543998376 0.1855547153777901 -0.2003023060006099 -0.40549999242030815
Ni 2.410490641304062 5.2557000419055235 2.5282075940205964 -1.0304819490934705 -0.31429910663475547 1.1179483075372554
Ni 2.3843834946427527 5.117678032368527 11.522293907299222 -0.35548226574128455 -0.03791760098137986 -1.0138160584020153
Ni 1.2439319399177005 3.3492913537783213 3.944306729307558 -0.7101988569611382 0.33973862975378266 -1.1725798788392061
Ni 3.7481771286578454 2.8416965399818666 2.805394873131711 -0.25771812491591745 -0.5111679614737842 0.07916298078441206
Ni 1.1608875536508714 3.4018758971919514 8.202544898587593 -0.8992104205392771 -0.014011998008375869 0.7007963327003156
Ni 3.360895533460017 2.685703855295785 7.1985521755762685 1.1815116341111973 0.3837602867503714 -0.5925233219238246
Ni 4.191827042589639 6.753551300336784 6.089087844321855 -0.267240719694372 1.162541777876914 -0.5080042190338219
Ni 0.7931488419154225 7.412939620957851 11.584532947598223 -0.3717131257778502 0.40593039508950735 -0.9535198326151191
P 0.002751590310515748 5.637671708968848 8.048724949801446 1.5886435057079737 -1.008153203689283 -0.03642070472087921
P 8.453008248568715 1.5813110472392244 8.02804061239995 -0.25795389507580735 1.0712825280496001 -1.046152822861508
P 1.8563707429005278 3.1950505841570243 10.437387090617888 -0.2969451887373402 -0.3338407762121089 -0.5773946938125024
P 4.057850692583695 6.1980948894095995 3.7645819168366534 -0.3205170625200093 -0.001195562969997941 -0.30981381716989226
P 6.952294324799635 4.020067122320492 10.327566398378918 0.7107760696208468 -0.2913689802011434 0.6568723776238559
P 6.183564830959912 7.673839508260478 10.079217989161577 -0.421271653432268 -0.5209679782833415 1.3056043855287642
P 2.4319019331525453 8.43273479846334 5.682453005952165 0.12189857197972553 0.7341011175000324 0.5989873323816136
P 6.921870603906535 4.010846992005307 1.3730914265444893 0.5207301512409226 -0.5629726048499014 0.8750294524176994
Ni 5.340044818735905 2.7357869529725827 0.40280410450122717 -0.18430850167551482 0.8078061604936668 -0.13189964905649543
Ni 1.307064095680141 0.9542157589463638 6.7985917723838085 0.13739872449785367 0.21777346620217977 1.158531114055624
Ni 6.864861120380818 0.5348578631809214 9.183261533560342 -0.6674941190037601 1.6045866593007914 -0.871717614435647
Ni 2.6136224839189004 1.429400144044292 9.080380772905333 -0.1947906321537613 0.28841658244103874 1.2624736157775613
Ni 6.26730456495864 2.0824942131181663 2.5537692990844163 0.9942779883690875 0.1276529579649995 0.21978561153620213
Ni 3.9893363647665527 6.813278961359925 10.364772017280544 0.8937573678445059 0.5769398656632709 1.0043114613456896
Ni 8.263638872751466 7.008536216673256 0.39842792903527396 -0.7409986159508142 -0.2104676765693859 -0.29935971171610376
Ni 7.637193779740383 3.8113724978504586 8.225093129130183 0.7438463698122543 -0.26088623823125395 -0.4187100633526789
Ni 2.968276918657611 8.352218949403417 12.389635449159297 0.6684009470887456 -0.1846964811425529 0.2154077941834806
Ni 0.09977156293951803 4.81719750728779 10.240730109350732 -0.11491622712462145 -0.2915055057790077 -0.1826930775592789
Ni 8.663229025852916 2.388916800635135 5.765138881765014 -0.702514600943003 0.24907587585988714 -0.22945938718054032
Ni 3.494050108873718 2.741738045898838 11.790308917692284 0.9730260209688468 0.2583040793263745 -1.114802562819422
Ni 1.2579291994559327 3.4248855857748004 12.824237715135377 -0.9196874574467064 -0.14764019972020379 -0.20011307280793922
Ni 3.210673331899697 8.367986184986483 7.983631371605649 -0.1681007815674008 -0.43191267808588196 0.17831808842003483
Ni 5.574340882425866 7.904758168681214 3.6825435271585722 0.1605653924223041 0.35496084602017575 -0.7010938093360765
Ni 3.164563649833752 8.316566574786036 3.5123874219178046 0.007674228715806137 0.09775514196430261 0.07160599437276055
Ni 3.520446231215817 4.252493874575346 9.263212073944722 -1.0814090749606406 0.37320873648677017 0.09485442337773986
Ni 7.278475624490572 6.203937616455558 11.335034957000738 -0.033010136377433476 -0.5704758552054819 0.1005005659199237
Ni 0.3799786379148812 8.973345083789972 0.5079199114373426 0.7466342169700367 0.7372090670013949 -0.4033778038709827
Ni 4.696775922808866 0.47283736074051735 1.5323829492365812 -0.8191881770783633 -1.2542478854336594 0.7978953291378581
Ni 5.965297887063733 5.675545584132298 0.417125558631345 -0.1406730243737513 0.3309683397603203 -0.7977377205140712
Ni 7.807743614346226 8.753028218658194 11.152890876252227 0.553154590318215 0.22762644773685958 1.2933294248161533
Ni 0.21727539609147034 4.9264032231560755 5.748432475219382 -0.7382354513833801 -0.4019603546981659 0.47582634874969665
Ni 7.803381887664312 8.735111726449258 2.5452309707660943 0.19054111284878797 0.09782353330839282 0.4892022558359703
P 8.303941949731552 1.6254611129698167 3.4479413298567754 0.95996378846825 0.45857913163347475 0.6766421040516153
P 1.918970099751513 3.0791261837103865 1.7688752281005409 -1.4070493176398284 0.9410885488303018 -0.05339127113694676
P 4.701209893410978 1.1863264440503558 8.194601679561897 0.23633631680603168 -0.9016447410123827 -0.28703975669817017
P 8.546293210523514 1.4573224192005594 12.39494898948981 -0.8747196344867645 0.7415843132509552 0.07561922929721171
P 6.320891492765008 7.7110360966720775 1.2909961447792524 -0.619330671924656 -0.014444714670420284 0.2802296757548722
P 1.6621339329599856 3.262390948270959 6.074695049320543 0.8950069239808908 -0.3450181329851671 -0.7025197431493256
P 6.999541848608688 4.065978133605893 5.850123920338144 0.004933175635559246 -0.7412966068072072 0.5278911877657361
P 2.2926427464821697 8.432391639842402 10.246863618175487 0.040522128483762465 0.6842412565551119 -0.4700935600309775
