# total energy = -381172.32561543264 ev
CRYSTAL
PRIMVEC
9.20283179238810 0.00000000000000 0.00000000000000
0.00000000000000 9.20283179238810 0.00000000000000
0.00000000000000 0.00000000000000 13.46927456464977
PRIMCOORD
 96 1
Ni 7.946479719462426 7.975634291012565 12.280099716672163 0.3129783309408029 -1.0078379864417095 -0.3825454405066637
Ni 8.32129265825474 4.551306544500916 11.404407925628972 0.9647393554800224 2.3031186214469623 1.5760165609725825
Ni 3.4439205756878626 0.6063442264370363 13.299669502371932 -0.7060789212554937 -1.033529991891175 -1.0849985920841119
Ni 7.7620825761069545 0.18714510896938222 0.6129021644694318 -0.1853960783127388 0.4025936174067905 0.4525594078019561
Ni 8.021758884639237 0.8120081940965524 10.738688868154313 -0.6765078924665962 -0.6886309009823752 -0.012974043662164751
Ni 8.863468298502493 0.6905630225493912 6.858419697699653 -0.4660139906449651 0.12130953224547493 -0.005393145991113292
Ni 4.149244020367704 9.125178432891017 6.424534701040171 0.35880053148124014 -0.5273790240160079 -0.6284346911084532
Ni 3.162470366812264 0.9738160661998229 9.627258254708593 0.34697757070438306 -2.039829944421803 0.8394741810209091
Ni 7.993819086903686 5.480534890006162 6.426824365624034 1.2112693249896043 0.42766264456027636 0.8505340383794965
Ni 0.47242461621051485 7.917996954643082 7.593977206114872 -0.3013911403238358 -1.3533207177681208 1.4825569610598401
Ni 8.754626405281693 7.1221360494486365 10.100851630574054 -0.6597126752861283 -0.9576456818580347 -0.6309242902995263
Ni 3.1499637182211533 1.6341836769079388 2.4602841675369183 0.04305517931826133 -1.3064628768743176 -1.0045310335556634
Ni 1.8552264970035146 1.427543288780787 11.432168268141911 0.29316566709025 0.2454601334841708 0.13016698263610485
Ni 0.7191737067325435 5.368251137644026 8.00721472905911 -0.26627038536130276 -0.1529353866808721 1.3630533716748525
Ni 3.364923466411855 7.187457750478587 12.851358146381012 0.49800597017052944 0.1245864032245338 -1.020421993754307
Ni 3.973506741857145 2.470408202941687 11.60543734712919 0.6239602002768673 0.31026350311280115 -0.4202624954414633
Ni 8.253569018091397 3.340812046758647 4.235292339467486 2.46752575621286 -0.16300922597710635 0.09522131979885537
Ni 9.095885818861948 6.592605100270926 1.073745016697671 2.3314465218573783 -1.54949023254728 -1.3974660448267677
Ni 6.542026335990761 4.392014726646954 5.180390968633784 -1.933273916336419 1.392662452790537 -0.399011556482487
Ni 0.750463335290142 0.5391515896759793 9.433677605371466 -0.2338454320633779 -0.13755736156290502 -1.3623326914587441
Ni 5.272136760980627 6.317596873745421 1.4352856312824067 -0.7319812429435523 2.575775369950583 0.5087565238188141
Ni 4.1696282930897866 2.3638486120392064 6.291606235812372 -0.6145018830774449 0.07917737896211526 -1.5079013533619
Ni 1.5986055286715635 2.913653399955855 3.6667947593372507 -0.5288522661274246 -0.8948832539188328 1.9562446661999795
Ni 7.767475435617176 4.435930640610736 8.699818019447095 0.39386857882896686 0.24934352769897702 0.9876178027400926
P 6.653168937193737 9.030205207386777 5.2144009543095065 1.2277457253780728 0.41083143193555055 -2.5755969353911903
Ni 8.623854163574789 7.513385246065619 5.398188870191298 -1.2065770617202576 1.1495178548134202 -0.549881318883582
P 0.9892032011846185 2.254270492264111 5.913172902939303 -0.35257280540397345 0.18601211463018288 -0.386578730035773
Ni 7.7315291741036525 1.7620754322211583 8.604092002291086 -0.5196657145321502 0.32554922562727806 1.2609342963148993
P 1.0715777497784607 0.4468757142100428 -0.3704250285287082 0.4012571579835541 -0.3898008365174964 3.426916445786459
P 8.77583893287736 5.555878475006472 4.175865972571064 0.7120490227959995 -0.10615339333032686 0.674470036100961
P 7.510283891705646 7.988794340670613 8.460375057193266 0.8078293004221184 0.17595935837987114 -1.5173776682834512
Ni 6.56307321261171 2.3357891774885835 3.1057726395827028 -0.6631638670595225 -0.39203795337813124 -1.1456599145199107
Ni 6.265738915827167 2.234778894239113 5.471758149195755 0.8541834622066258 -1.8117607527205701 -1.1671245121515899
Ni 4.3393377166870435 6.925407111308701 10.32702779031946 -0.48397263200591484 0.686226919526573 0.7938795231102458
Ni 1.6498653025144527 3.6227776142222523 12.216833928295086 -0.9314366275628346 0.3999718635132273 0.352923760985489
Ni 2.2001118263636794 0.7289645996214933 7.385364651105397 -0.6206213657116215 0.07961086695510806 0.3803062667634999
Ni 6.125220875107762 1.1653362014681117 12.236041158813487 -0.34094370580547734 -1.1413021517718471 -0.048371706435168305
Ni 3.1119100081959563 5.239816415247013 9.159483829471654 -0.45149934196855795 0.5528727974117382 -2.023240158383922
Ni 5.1790225075259855 4.137031862398312 1.748015345600482 0.3152694409678248 -2.036715052941905 0.3600596006993218
Ni 2.60367441210127 1.0615006488165284 4.97980604391572 -0.19547377426371498 0.8458050083349434 -1.3476234102730276
Ni 6.067086585814131 3.3382628623143953 12.976892136154095 0.3630083989150006 1.4137339287488557 -0.056506933947793006
Ni 4.964384858452788 4.1491888033761315 9.772578333128395 1.1382877904255557 -0.3372163775525612 0.30582192240167977
Ni 4.830474451058195 0.48568313617020076 4.087305280354745 -0.0044978878703535435 -0.2178737392254699 -0.5322283816885092
Ni 1.154522873951883 0.25336408611238215 2.6316004055889266 1.7990173370119726 0.465007917977954 -0.46822873890809685
Ni 4.601020242579782 8.65149947068862 1.7345460807896287 -0.8667494717970944 -0.05962799607527795 0.28380839424506604
Ni 1.5911788433050982 8.336909864037754 5.592833366899382 0.3903073438402697 0.3633441849878645 -0.6556397907683353
Ni 7.332604815658129 5.171089666403441 2.5286004700764697 -0.014439572464097713 0.12541764087657756 0.7380089371948709
Ni 6.442101986908877 8.32918868804957 10.173828247202302 -0.27429454121735986 0.15989150628373108 2.47840743612237
Ni 2.2774064117328763 5.351152275920491 3.9482348450977276 0.35647676844406995 0.5887258025546055 0.2715241775610743
Ni 0.13754460572323854 2.728878940491308 10.487150623896586 0.4283504146559204 0.5578321982995424 -1.594440314895409
Ni 3.593899127629975 2.644995127461158 8.2979082623239 0.1814419787609972 1.5952239871389688 0.718644159515014
Ni 5.722827049025118 7.870151431445742 12.788214755668585 -0.9716479096743976 0.47583277650759986 0.4959920250642942
Ni 2.2660961312924974 5.408642366979114 0.8558256377586977 -1.226736310276952 0.8611372678166396 -0.5103236111956179
Ni 7.054890956545585 5.671070322258078 0.18152401922732894 0.7212173195588288 -0.5231117640992217 -1.2361131235061615
Ni 5.889720406052191 7.58688826468019 3.531441347896237 0.4416851840916135 0.022785887546263983 -1.1051401000289933
Ni 3.588837570069187 7.095006100922812 5.347449976635573 -0.1390203192616767 -0.7908805883829219 -2.2194076162805523
P 2.962906956438287 4.0017686387102 2.428159842123386 0.9583874451200655 -0.4772916204413135 -0.847237884126728
Ni 1.9276619871143552 7.51558472289658 9.69715008207434 0.9501452597159312 -0.7773331887157903 -0.8886874095207663
P 4.419660033760785 4.845309416127269 5.736833759220607 -0.5432316747775483 -0.44747427996956485 -0.09591423210082191
Ni 1.803313322093687 7.850383748462884 0.8219343686148541 -0.16809101137538793 1.5173822962691415 0.9665807795641352
P 4.9259814408143 5.597521289483864 12.931810223384948 0.0857779149977684 -0.6809857257322918 -0.22025792318693035
P 4.251008935835329 9.006765594464365 11.260313664422071 0.696084271936627 0.37401734843099455 0.1663647727129006
P 2.8502919021267186 7.689564260508756 7.665795186203296 -1.0451380084437485 0.9355015416608277 0.026864942711644055
Ni 6.28199111701326 0.5659189466238119 7.049548712610972 0.7425690457617276 0.16421970134543978 2.6069957614174455
Ni 1.212344266959939 6.098707516321163 5.933983266779685 -0.09575868035956411 -0.36703526068620657 -0.483708836821567
Ni 3.562305805618729 3.7018575489856183 0.14893495080139726 1.0266201521452192 -0.8465683688635292 0.060613499916998825
Ni 8.991718964260931 4.009011267438091 0.30565181628170784 -0.9781569144375091 0.16655760544999704 -0.3442617144351168
Ni 4.476505926584398 6.424911096866055 7.2897867995434416 0.7822347397824658 -1.1345640617170656 1.2610409970960925
Ni -0.12103104411036952 0.732194793628469 4.529393681395476 1.0630881651642656 1.223079944471287 1.0744210736785818
Ni 1.2442504852567606 5.111814225950649 10.429434143172516 -1.2145333404528567 0.7362027372240676 -0.42974343834870504
Ni 6.117582524606937 6.300608446005031 8.923704514608641 1.2349283591694409 -0.6094100703768343 -0.694098866075482
Ni 1.686906701027492 2.304407520611698 0.682951360261159 -0.06488693048137212 -0.5557082099780042 0.016721426519738944
Ni 5.558179182988648 1.4461422121087006 9.8385644786236 -0.20431888335917073 -0.08363284363030758 -0.46806007454071646
Ni 5.0108223483650365 5.457905126293475 3.614251190440307 -1.0638435552730516 -0.5639010302014417 1.4462894940873738
Ni 4.959470546202859 1.7264420669932106 1.0007923274324373 2.0331525324016275 0.6253527097490197 0.5370072911343913
Ni 4.814424712174533 8.694623941106533 8.594542223598669 -0.8509495286503603 -0.9142048370655803 0.02260051100833527
Ni 0.806573921842652 8.593291558739558 11.405688039550254 -0.25577411381566917 -2.01696563822912 -0.02306896600432156
Ni 8.736340378239355 1.8582818372038448 12.662384434707395 -0.33190499264197676 0.8944410241750919 0.5756070057844602
Ni 4.287544178592289 2.7548769406899 3.9986369150048615 0.7725727912126694 2.4163299500653355 -0.03823410378053416
Ni 8.093053223590918 3.1021642091834574 6.791275835947819 0.7977081528277165 0.09676706701942044 -1.7608007167329351
Ni 0.486662317487415 7.462153080718516 3.2029260159708532 0.11656944645732828 -1.85527358840154 0.6579211306033443
Ni 5.915506741116424 3.370555599552223 7.518993451842973 -0.5086889038056723 0.6590310758380714 1.1130292729690832
Ni 6.2843010278273645 7.048964332783499 5.7244550299933055 -0.9740212950025806 -1.1545726436285084 1.1871521202264264
Ni 9.126199947235104 2.0566580822590192 2.1957883359235737 -1.6486283709020382 0.659510072357019 -0.01102771856907133
Ni 6.9800535273013535 3.1696209672208684 10.586621273364385 -1.6115630906186247 -1.702525892251442 -0.19263167682922955
Ni 0.5667637665948672 4.489794815889449 2.3828092066619186 -0.22903078428355395 1.0514379825198472 0.7443644470992534
Ni 2.1281272750173454 3.9927222549242822 6.685905250930527 1.1397795444797338 -0.07041660205034969 -0.7195065075153093
Ni 3.3707120476950108 4.996318685245396 11.583023849966828 0.9393821076621565 0.481151617617352 -0.22309693529762223
P 7.339203246151012 2.382926082627413 1.0692715200971272 -0.9260918183111535 0.16895233093441872 -0.9796298994386096
Ni 6.3669976755387125 5.968174548244404 11.329707618580477 0.22876621776825765 -0.6245944914267566 -0.8379955395928534
P 2.4725340571172176 3.208374092472647 9.987332858167086 -0.8019075356210447 0.49023558219649116 1.1365463822544168
Ni 0.7467776011026954 2.5953550520377204 8.10576877646681 1.061892345083952 0.9222505901881923 0.7343417727559288
P 3.014958173827045 8.145601393903824 3.3916438889168514 -0.07202534129836628 0.674410129397303 -0.08876862219497615
P 0.6512448434171901 5.868084548187804 12.426025341432874 -0.12680269414956225 0.17269122915156068 0.8256807267812426
P 7.393840459311735 7.441667576845218 1.5938734324938233 -3.1083691053983116 1.0828895161609093 1.0543993791410164
Ni 7.698343762168741 -0.0033203817598769204 3.0365001628057584 -1.222723589573133 -0.6842037184489571 -0.6550301822087945
