# total energy = -340867.57452440914 ev
CRYSTAL
PRIMVEC
9.29616800367875 0.00000000000000 0.00000000000000
0.00000000000000 9.29616800367875 0.00000000000000
0.00000000000000 0.00000000000000 13.60588154444608
PRIMCOORD
 96 1
Ni 0.4760865215017016 2.6892234267645208 2.57427351806276 0.01404799345263387 0.13503665202358034 0.2990951452008075
Ni 8.498296680040566 0.4741733700851713 12.821964963623486 -0.9350487703941253 1.3096513019046285 -1.1323688538379595
Ni 5.15809048240448 5.696868503045138 8.600522923320534 0.40459367855595485 -0.7326178480862866 -0.07587659672365643
Ni 4.817785652934485 8.116252055331403 9.247223879117008 0.22871685258756094 -0.333319099380684 -0.48020468032305047
Ni 3.9571092158691674 3.1536971749448925 1.3897315953806642 -2.010010289957209 0.16037513078836896 2.451038557191114
Ni 6.919165883273863 7.168600668542772 9.334940663063056 0.3644654430765013 1.180409145075638 -1.451704494455358
Ni 2.592775681640604 8.093615885752921 8.711410406516833 -0.44503764550361413 2.2044476525366097 -0.9039042264705207
Ni 7.727932517084054 7.25292621032774 11.895839783929693 1.814886185723429 0.17624552216172226 -0.4821885435222986
Ni 1.5867257661899559 6.324146044994681 12.453966849071644 -0.9489221859421079 0.892511668362863 -0.9080329039269135
Ni 0.2644648300222913 1.567575659688243 7.036825625007298 0.46728180161379523 1.578616717599591 -0.9413230334386111
Ni 8.611059200363757 8.742172356723055 9.280123018393494 0.06476146064710138 0.5185611686140618 0.8081627725021372
Ni 2.9857711924949237 9.359010301778705 4.8152710394351095 0.3364437610525947 -1.0718371150014896 1.2478129284415929
Ni 3.8722444963283253 5.701014594064441 13.195514749827183 -0.8801631740998389 -0.6269051418378041 0.37467555084028376
Ni 4.264208132511921 7.885279460117057 3.320175744005387 -0.4049346068351414 -0.05521855415367265 -2.0200337356314826
Ni 3.4126605326236334 7.72739333932818 0.4000011032133926 -1.099758524002106 0.5709170565079587 1.5223229281038686
Ni 6.291628048614589 0.39427094513200633 2.4055880386704662 -0.5675455689325645 -1.2074345246245464 1.707092685686518
Ni 6.695035267858189 3.7118855947969944 7.503480254248497 0.46683262989151864 1.9289966291173035 1.0648781671851533
Ni 2.6880149248979075 5.93836436066722 8.30462217089718 -1.0831024035026637 -0.33709013638734203 -1.326102505482116
Ni 1.6383287958943278 2.861332684906611 9.246284966128332 -1.7142179838773897 0.9662246817762973 -0.19960245172010785
Ni 7.227426820942207 5.549533533168613 5.64588273890956 0.48828540044865587 0.2322004402607872 0.5593578909154496
Ni 3.5047576710277433 2.0367904536530195 6.230011186520098 -0.633021024927555 -0.7242975011460494 0.11646865921340586
Ni 8.927119623155857 4.93856147025014 1.708816991306578 -0.5410809469831326 -0.6749485183992764 -1.4646003765814197
Ni 8.401133129964887 2.3337007699434067 9.122158809791697 -0.42180335756602194 -1.630547087920295 0.4591910541858608
Ni 5.050468743098498 5.985226344587188 4.6812258716240445 -0.06446218423912768 -0.4404333139623834 -1.6823008234538188
P 0.9634827612412593 0.8276053186770449 8.862286286862535 1.0985516481781983 -0.619326815269914 1.0452585931820126
P 8.715101914910926 2.905312856683117 -0.05320290025240345 1.6321511991826212 -0.0065280309265048865 1.2736635709561097
P 2.7274957512633313 0.22529635490854583 12.614938368087666 0.7986962277725986 0.6112376105038764 1.4538043144071802
P 0.772558058652826 1.0241774434498425 4.891967215974469 0.051177294204763475 -1.1362872150557592 -0.682364094137057
P 8.01604865825278 6.390446316630707 7.701922768064082 -0.08945896339378141 -0.19888125728336717 -0.7513658181177512
P 5.81093248691699 3.2980387786594996 14.118959844227554 0.4222458444200793 0.86324582951921 -0.8724015278765491
P 5.948878326906753 6.437680147278864 10.87481374150125 -2.5642678835316155 -1.4926004613387713 2.987420813146997
P 1.6551176756720427 7.1138927186580245 10.258562384659319 -0.20467163871289915 -1.4189267858037047 0.9866176436103525
Ni 2.617075865327729 1.6134987306195345 3.275126512885339 0.540661600057527 1.1175335885973399 -0.38434546982988005
Ni 6.363347986313964 5.867081342873467 -0.3288203432698912 -1.7189506134663688 0.5525652934736484 1.1383911487726395
Ni 8.79094005512499 7.445096599455605 2.6419626372285707 1.0720631149693665 -0.3537866232064165 -1.9937328929534244
Ni 6.041681974094421 1.0418215707023912 0.1802619976576253 0.08506417676019543 -0.12298923394074301 -1.2131428878632333
Ni 3.5246607671540375 7.600017242587177 11.780271680042318 0.3685051603635137 -0.45852179603297805 -2.2719658499932422
Ni 8.491965989493156 3.4021651587205106 5.697585237613723 0.08869714552709242 0.1730280436656891 -0.29448669989451864
Ni 8.166739544851207 9.449833865138768 5.5564377972942545 -0.13868787562292245 -0.07602340671416585 -0.28156227852336674
Ni 3.5809583618017906 3.8218127838177476 8.113201052926614 0.5126499453359494 -0.8313384392876522 -0.3085910005063847
Ni 3.4540377773028195 5.185746582813508 10.263243005350391 0.03236941746964103 0.46776079813274285 1.7630609735220215
Ni 4.689452050868396 5.396574381528235 1.8015955388400933 -1.1390737766619607 1.3362655620580468 0.3767866836460156
Ni 2.30279101066273 6.486299106989522 3.6450972743302206 1.2285198845399359 0.029331144863949485 -0.7758553186186832
Ni 3.92391259921013 3.492709837034433 4.472920123343256 -0.22694690517133176 1.2425946174654472 -1.0545132790110614
Ni 3.775954786063889 0.35243168089304633 10.627064351527855 -0.23083749847498958 0.11823115043046738 1.7960574830527005
Ni 7.114813039310291 4.2965030208551 9.969383691464794 -1.7661015601205585 1.2826763159776815 -0.4284769129314556
Ni 6.109413855633973 2.7224572280963764 5.488830484408646 -0.9375463400049981 -0.24094707610516566 -1.395214015567797
Ni 3.9005327361752724 2.0753044785251533 13.149146392438885 -0.6840653930988799 -1.1238366479972322 -2.2742261067823284
Ni 1.6666449242458892 8.604431032433796 2.682780252581833 0.7047056950570508 0.4742934570449381 -0.7521667167524917
Ni 6.88731721100451 6.047557152399801 2.2472975345646846 -0.4221188319239118 0.49539424357929523 0.7183353700253435
Ni 7.594160656618207 8.182236257248467 0.6054919717617935 -1.0772613713408543 -0.7274044222061472 0.7279626087024624
Ni 8.933487498376087 6.212303845323757 9.736178156647675 1.6372124157556125 -0.35459986313633124 0.8073593027642353
Ni 3.2114914526736045 1.1264445898699103 8.665491054052824 -0.44416372753909317 0.7269403380855352 -1.3677926861320509
Ni 5.92191943911308 8.310978890715562 4.788508300790556 0.04319093356517723 1.0020715162715776 0.5974888934592162
Ni 7.671123633185042 2.5830518896984724 11.800530819410856 -0.40925148904294034 -1.6922409653856665 -2.172069236205904
Ni 5.847810386185093 3.53193966685833 2.8496836565292827 0.969979263722723 0.17857828405995696 0.9931580158320314
P 4.865158926105712 1.5902397177713379 3.790109131772388 0.288546937371316 -0.6159550705842037 -0.0578171681187843
P 7.672880608975732 7.315145464121897 4.352780163932803 -0.5285406484242767 -0.4264452272134075 0.9578572836482083
P 5.559787206698413 2.8041798427840243 9.842032694377941 -1.2927257297938834 1.1998245734877724 -1.627443509294307
P 9.087339082164117 0.23684219581880164 1.981737615927878 -0.39533847850627396 0.8735145584350699 -0.9705901578338445
P 9.114976590236735 4.057833198367252 10.522094809010678 1.591329794290885 -0.8160154357773366 -0.4510401429439522
P 2.455090134360573 4.258537469907045 2.5823007593075316 -0.2863424735208295 0.14526475750949175 1.0036548015982973
P 4.974230867651631 4.669706989601583 6.4046155362083335 0.0007031967146116922 -0.5060303831369026 -0.0883428475114672
P 7.323158761114361 0.45269643268181864 10.644371027874573 0.296356920334038 0.1130056403654699 1.904234077460643
Ni 2.7629885214689325 5.377349905680885 5.5733772749968855 0.14129805955225988 -0.6115962793948757 1.4979573547753104
Ni 9.03219421237375 4.32879790919828 8.113445542150398 -0.17083412133816386 0.7448861239306784 -0.08299392449472803
Ni 6.929177856430342 8.19762141562727 7.07724908282868 -0.24776512746826365 -0.24310526009874905 0.7164687491302499
Ni 7.967885210784153 4.6932913683369435 12.335868328198947 1.750415516843869 1.524249198592304 0.4648870761293736
Ni 1.101549451417684 1.9926894316898522 12.292777799719632 0.5277122389857105 1.0265774718327418 0.3504547306197061
Ni 1.7195029366578976 5.980225006093051 1.3186075420632115 0.7509991788069518 1.4407420819065833 0.13548788062838601
Ni 4.941694278935128 4.1314216658757745 12.100554422433 1.8535072405297368 -1.2154041730935843 -0.9338336670401014
Ni 1.470830437181776 2.9467644707079406 5.05193195997392 0.6734007142961821 1.7768194607586947 0.5575740595421494
Ni 5.559471136979453 1.5419740124524584 11.420124179539359 0.08099720577967341 0.010682419414510634 0.44585319942637414
Ni 7.418695481754215 2.2382291224809854 1.60094983315999 2.1006589027837173 1.0335191932578973 -0.7783294911907885
Ni 4.698162560476215 7.0936177758035415 6.685304038981493 -0.5409045693062684 0.3196184619651399 0.42191314367100885
Ni 5.208931226316066 2.033583275622393 7.6928060159057186 0.5939538837227643 -1.6072662630154837 1.3873616094029138
Ni 7.776439922776255 1.8194181525221726 3.872655386962974 0.152633282059421 0.15038896610993455 -0.025682749478084802
Ni 0.4716066980438495 8.514248904679858 7.297310765421151 0.5310150781066983 -0.3749851116609026 -0.6544025759271246
Ni 0.914933522792136 8.380300417018121 13.42568508572546 0.6562632832849472 0.6034615661028833 1.1749848887362733
Ni 3.23918473775545 2.8189979349023395 10.852636802632082 1.0182193296760336 0.17144038746359508 0.07156022873648966
Ni 0.5934413489180216 6.264910861194238 6.737047440825756 0.5660597284156573 -1.4016410021400634 -0.6950779421592996
Ni 0.5106757041578045 7.724567304193947 4.698831884586954 0.2258631851888497 1.230659813701074 0.9109305371896828
Ni 0.2820476025646889 5.390773572568492 3.9719375337725076 0.3109520445393935 -0.34361148244562756 1.1679374949711885
Ni 5.850153020572681 8.647053963652413 12.090213364922075 -0.20728542218666238 -0.9821683495897472 -0.18872257158281047
Ni 1.5228332021189506 3.713874974792803 0.6023368522731132 0.25011974374336926 -0.7713134648842717 -1.0827020827404517
Ni 2.102681693888038 1.2683784860194964 1.0158666690748273 -3.0574671763421213 0.3169100618950413 -1.1538252239395226
Ni 4.021689696387321 0.4518923141321108 1.4081817004165618 1.8796720718505628 -0.15457189384303058 1.4509303352934946
Ni 1.352815581822921 9.29521999555795 11.044316354078738 -1.2074741196132301 -0.8309658864395819 -1.6644146872020174
P 1.578507953496988 4.161857320578011 7.056758468871847 0.5847681034584381 -0.6143296191656388 -0.3698351920288469
P 7.9987949700648295 4.096746958472188 3.4874324023446164 -1.592665225272857 -1.5448311365087135 0.44357571624610703
P 4.053835846039225 -0.17305839691579178 7.048077707002285 0.306728236266033 1.38428297047759 0.21826454690598537
P 2.3413515163758865 4.4718566417006365 12.168093873290715 1.3075345126719415 -3.214744127821141 -0.48949690425825376
P 2.3323714178901325 7.533140608522459 5.923075882437746 0.058218003101628765 -0.5820000537949976 0.5246114885731997
P 7.389793694805756 1.679231935995073 7.010593697567233 -0.551736626924766 -0.16055716489218802 -0.22586575629201103
P 9.139369735605907 6.531571446146484 13.77595540751091 -1.6631054814722908 -0.4263886629438592 0.08473044756986052
P 5.350056355831843 7.859371039330517 1.2213017606139998 1.1100167113950044 -0.45897508152031274 0.7162406922798439
