# total energy = -340865.4689237164 ev
CRYSTAL
PRIMVEC
9.23835592159855 0.00000000000000 0.00000000000000
0.00000000000000 9.23835592159855 0.00000000000000
0.00000000000000 0.00000000000000 13.52126771858671
PRIMCOORD
 96 1
Ni 7.464711846724177 6.339304542069311 10.235180292659678 0.8733883172698507 -0.24962146395071205 -2.3044813061224443
Ni 6.619263686047352 1.5811816040264575 2.1079120214431164 0.21705561419954875 0.975957078572713 0.9762679249449122
Ni 0.579182108145597 1.6496101078360321 13.03573252147698 -0.16909656982176685 -0.05830156395437056 -1.5758111298299957
Ni 7.728115856528227 6.4556801141618205 7.678133578391202 -0.1810570846177527 0.09542957915491952 -0.01925576290581845
Ni 8.79704909019782 5.293827494598249 0.24184538195336489 -0.1373670999289699 -1.6716772823017019 -0.719665915911309
Ni 6.391704498003955 0.6478545045568421 4.366923824141567 -0.5203087474327879 0.4835975080546833 0.3779069132933879
Ni 1.5008725742415736 4.567969853945043 9.482316165549536 -0.5509308431940189 -0.2619866703842843 -0.932527546634168
Ni 6.078090022666621 4.098855368330571 13.58251941003858 0.5681976006942666 -2.136113644046902 -2.4924505444789977
Ni 6.051335743331866 6.050374954294982 3.283775531904163 -0.42619891553055633 0.47208127988496756 0.14104891965593128
Ni 2.7148757141244437 1.6756437953931245 5.453154031981899 1.2695387501544588 -0.18383696135573502 -0.7642866399444772
Ni 1.7716210771641077 5.70764118045518 2.254170904089538 0.7323031450593452 1.4689491404684185 -1.7331652144038536
Ni 0.4941282586554887 1.4983597413758785 6.090330844530762 -0.7502782414805272 -0.5796775763094081 0.2595310097549401
Ni 4.124685812052937 8.3955039412734 11.584197388114985 -1.3851594595452725 -0.7332128013578083 2.413741620512869
Ni 0.348326674637199 4.246678304668766 3.1417478163624777 -1.3509146794297897 -0.1508831321375337 2.2056231609019497
Ni 4.583231618261693 2.6052441420023666 11.511412999392999 0.7984532585238572 0.23190990560356187 1.5124457781994727
Ni 7.8581826723963255 8.686872455064433 2.6609588201142587 1.3127348259259586 1.2211037945815229 -0.44125812385652396
Ni 4.002212924918669 4.376726643824616 12.757857550640486 -1.45457538824525 0.8442682599754429 1.0773948115949252
Ni 2.95588594868421 5.701756347604269 11.109519564442712 0.784150725858256 0.3073044204844772 -0.888206870339922
Ni 1.2278144822880697 0.28540700258429347 9.118566979199132 0.22469873256710335 -1.2946676840116027 0.9460911442512158
Ni 5.781926802047295 4.9601103563353535 8.105905496515703 0.24385550800121228 0.017942443411033616 0.29566940734871017
Ni 5.826002999114323 4.857629271853159 5.487119772106953 1.2791014541422294 -0.5467731122719035 -0.41867561057031766
Ni 1.680503170714285 6.628012409296667 4.4192507970628325 0.08622374428593538 0.05530674299210475 1.0902215310459482
Ni 0.1551794393196397 2.913398748870488 10.402182056311045 -1.012395523905405 -1.0794504085723733 0.0714527566243479
Ni 3.647293759351469 1.4459320703728626 2.1423636991002875 -0.024000733789971567 0.8776663758199142 1.3781485754450782
P 4.051952234289636 0.6070847151465498 4.130963275039114 0.7114669250402844 -0.8767765170157932 0.24725759170422576
P 1.7553800470983276 1.2911803669417585 10.910838553806947 -1.8228620048400541 1.049961655084637 1.6346112306873395
P 8.28998343762645 6.666240726937279 12.096478092718284 -0.13604323891122377 1.5508873700051227 1.4592180292235837
P 1.9894522762090605 2.933538365220546 6.980679263640865 -0.4939971061214525 2.199562299419851 0.76515978657805
P 6.190955019432055 2.5540728874321985 6.908354021218237 -0.16741481124396973 0.1863918665671048 0.5250814862310829
P 8.27543302673134 0.8334161256610841 0.8159343843678671 -0.18540919093886132 -0.35007883533752615 0.1854528996926032
P 4.580376966219414 4.321647564614047 10.098210577095816 0.8348567368535558 2.2004431593629072 0.13145819064370262
P 8.443220050653238 0.10448118858301424 4.985169397321377 0.48866823770937123 -0.21444080228452098 -1.821811194978037
Ni 2.272275310585505 4.094504102596224 5.042446281453816 0.12687725614123954 0.5611260385594659 -0.02777922699579732
Ni 8.759162591733789 7.794964601440618 0.5283628349437487 1.378462250030755 2.0904436528136126 -1.7950825207339405
Ni 5.894154352240182 5.576567383769579 11.54929949785703 -1.994227830311972 -2.134606720484072 0.5850329270840505
Ni 2.0418060403630847 3.4561521711484042 11.709228376059954 0.07813685351274284 -0.5204882104334455 1.83953380906878
Ni 4.790004505026362 7.127816713954666 9.950206568977595 1.1859591283595898 -0.9963803794240712 -1.9288629317529165
Ni 6.546151335682971 7.189861513682641 0.9367665394545355 -0.9842236894568793 -0.7085785477488958 -0.274276800605547
Ni 3.0079440854422703 1.4230763773223851 8.082960191410823 0.40984258565972 -0.22559681890134053 -4.024822629288752
Ni 3.1082264411669818 2.797743768555642 9.823823085696086 -2.096173356208538 1.705594760984753 -1.24701151558622
Ni 6.878233284911941 3.00134789916982 10.563734113684937 -0.46626055943813244 4.546606418605169 -0.448714323024253
Ni 1.9184832244654186 8.608364904723706 13.192214569010085 -1.2321304847093295 -1.8933040608117004 -0.2025813318427737
Ni 5.251635922180491 2.539910487494291 9.01295316815533 0.3800573839774874 0.5559748333758295 -1.5345096999780476
Ni 7.392172274439477 1.0637320391718474 10.91674740638378 2.7736664954065393 -3.0702399026267573 0.9364916734882388
Ni 3.5008658147879803 0.5939616302725792 9.968379339308877 1.5838867077492786 -1.7230949746520452 1.2841356741320271
Ni 8.032981608616248 3.280965223971279 5.681663846870443 -1.1473373022223339 0.2680472747560674 -0.06713973107129081
Ni 4.742574784686364 0.06125861562183201 6.316649321346722 0.510943504167804 1.945536535753856 0.4467263460599468
Ni 3.4273931685347674 5.479518452688225 8.522130393320966 -0.17865156050005362 0.47965395002590294 -0.16059213189518148
Ni 4.213429460978923 3.4082235795777174 6.474916219282962 -0.25543292842616655 -0.09270780934838227 0.8736420851518695
Ni -0.03608594285548538 3.0564362167365138 7.946543853378782 1.7363821786792546 1.2353330508070275 -0.3376588644066185
Ni 5.4470271542005415 3.7888346135254256 2.419752732404666 2.2901906005313846 -0.7060017881606551 -3.141039856158455
Ni 3.9962357085065183 6.219039622048649 6.088397256594033 -0.9494572325099712 -1.1163639937692706 1.3679528658589988
Ni 5.516397970334752 8.544398526921965 2.5089388985889856 0.29801553898338357 0.8437344989591598 0.4326510989138033
Ni 3.0138935867860486 1.1051475896751988 12.663019358179577 0.929462020334967 3.0129019881372368 -0.41361465110764245
Ni 3.5144000065094634 8.21158674755921 8.117385077835236 0.6037245899562828 -0.9432657589872788 1.564880341850105
Ni 3.3656439962027576 7.71774118260111 2.5666074890210777 -1.9205148168985373 1.5680469125035446 -1.0092304959138618
P 1.9503370763805548 4.100139499831791 0.3892978602109918 -0.20047019903704183 0.4844958514992365 -0.0931901483014395
P 2.02700619385263 6.751196649852474 7.202603978284308 -0.9526328020244755 -1.0972578690674393 0.08562879101441383
P 5.438509389854325 0.7973717554081562 11.072796175014677 -0.45563187607969274 -2.095914960340829 -0.5017399832916649
P 1.4031307664509294 2.2310537655607545 3.2898192644804047 -0.03752525063896763 -1.338068676705057 0.6019387017004536
P 8.231661695416399 3.256418911750131 12.240992773728518 0.7815366852741766 0.6676980074844501 1.0483688566762204
P 4.511597404877131 7.082160757990454 13.356430044454493 0.005204169908758779 -0.7018617978503525 -0.16995197584352664
P 3.752093671220757 6.090293891106266 3.6919953931280842 0.47389930693031285 -2.8196866708903956 0.9300875697341079
P 4.764081677742755 2.1950703684582447 0.4773005929758423 -0.927572516621738 2.3229220293261346 -0.48622877502994327
Ni 4.713908165633967 7.756606946814272 4.678210233735684 1.1823040481055056 0.706071722166642 -1.286224952560888
Ni 7.5888845913852405 1.6484368366082995 8.406632465060225 -1.2172790215187939 -0.792210620048255 0.05905541140125959
Ni 6.365643095378491 7.7543343112077965 11.993310598376084 0.8127704464774776 1.6152487670003282 0.13536343923537977
Ni 8.528776466716485 1.8911192136264878 3.644279283748247 -0.03723960107774877 -0.42918010964606734 -0.1108572265638994
Ni 6.042171294056978 0.6789194008589992 0.1825665460488802 2.9488781769871086 -2.1807315398665925 -2.9926396383437748
Ni 0.3367417760578542 4.960516844004804 6.405876136297986 1.066505675486247 1.123964174714032 0.8594575661213715
Ni 4.3978640026360525 3.0361580250445983 3.9266570293595207 -2.4179158064952166 -2.426876358122614 5.082162836225648
Ni -0.01181678131805416 7.623454520000798 6.122471085485737 2.2745804047979536 -0.10414664731294322 1.3275785758070102
Ni 1.5239315111267766 0.4789782784479389 1.7340754740410493 -1.060932552273844 0.02703309285839215 -0.44222305887295454
Ni 4.49594762960328 5.460099428115831 1.4431522490151873 -1.9568679016062749 2.6655469794887776 -0.8377659400805508
Ni 8.54681897622642 6.395473747302497 2.170433520347083 -0.8160771422532075 -1.3946046641185723 3.9138345335739437
Ni -0.05274362278245236 8.861763774845594 11.865534894826709 0.04693883064338368 -0.9877656411718666 -1.32504629630346
Ni 7.574731429803458 7.348437896549031 4.574555878025757 -1.3160428072532688 -0.8087973207623426 -0.009026886088958646
Ni 0.7004817240521336 6.734844759513209 9.162579431608906 -0.16708750981153803 0.7616754275738753 -0.38313448024091434
Ni 4.094587247801338 9.0758626780165 0.7006258424076661 -1.094202112960251 -2.0223775532733104 -0.9432860707022528
Ni 0.5427645083052643 5.239034804427521 11.606467369387207 -0.29706885879939804 -0.18201893431038976 -0.7758368066759219
Ni 5.524342956601289 0.3158205947797169 8.592022252740563 0.3871073488457333 -1.6449267536807346 0.4336949667972853
Ni 7.903330518773725 8.510613858576937 9.423120474850167 0.08621603097645153 0.3990802049368934 -0.4442976820137961
Ni 2.606232646107622 3.7368226685479846 2.6288860191589865 1.9317965604599443 -0.5783141203029782 -1.6520967890666125
Ni 1.525973187830154 0.09813074258345954 4.1617648781917405 -1.1952788630986189 -0.367475947768051 -0.6586675218510656
Ni 2.0970698866961315 6.230218032958543 13.37732073915742 0.7928744788844989 -0.1905259433401364 -0.18435092487767607
Ni 2.581446136627253 8.47906487241389 6.1343968794060535 -1.2606812997638288 0.42157041561960945 -1.6803624687805254
Ni 9.445295301054314 3.031104644244836 1.2659827506138777 0.030489683948424905 -0.5543990042482775 0.21354271595028385
Ni 7.155993700132498 8.894347456894517 6.616754548524107 -0.6598085774340443 -0.18568532741838345 1.1350284029479936
P 1.715581208916655 7.437634224925087 11.009435833374662 -0.32165143323476864 0.670958937623909 0.7166014180533723
P 1.0366636557288806 7.66725356638411 2.439439669304653 0.014220514474756155 1.6385948979254361 0.2386827055510212
P 6.921274786093095 5.0375554957218345 1.5409651921479854 1.8718718590798538 1.992472795294078 1.6302377842099924
P 8.128617071210648 4.673647409646101 8.978771250496976 0.44746142445375836 -0.09304796629662039 -0.29187703018581346
P 9.024488179611605 0.11629981757229318 7.709286239076536 -1.0356768630308484 -0.46270986597239666 -0.6642262468857657
P 5.67053994226168 7.334257019898876 7.410588013536818 -0.9733533224012786 -0.41388513116020975 0.29476000816056336
P 8.415163163105015 5.330023373891609 4.654601614661111 -0.5488523633984354 0.620696184813615 0.07918740626444426
P 6.5408577576239875 2.962297367834182 4.023632053591883 1.0773120220731316 -0.7791956958458258 0.8475016793110758
