# total energy = -340865.23875282455 ev
CRYSTAL
PRIMVEC
9.30706065907818 0.00000000000000 0.00000000000000
0.00000000000000 9.30706065907818 0.00000000000000
0.00000000000000 0.00000000000000 13.62182404666726
PRIMCOORD
 96 1
Ni 8.57869951813441 4.842268279913179 4.6536783764523255 -0.9000277742342498 -0.956331076811669 -0.2539820549122529
Ni 5.455957254176823 0.07376869451471199 13.230618860097735 0.4948494268194187 -0.13687833321800943 -0.28774783850878827
Ni 5.827392743179944 2.7615631559432505 13.293347519105279 -1.552091931836185 0.09918467532197757 -0.3283692115745764
Ni 7.586054949750639 2.5891405477778786 3.387597946342671 0.30355883739911593 -0.5071182168844428 0.2774058331528319
Ni 5.95967399816507 8.187300383740231 2.1816848721116013 0.2127860402899174 3.187027378632163 0.09279059887017568
Ni 9.200857917715474 0.6427000134470783 4.50571844686311 -0.8993487458893543 -0.6484414732476832 0.02014176505519757
Ni 2.928289842906139 4.980059314885019 1.5273743003310296 -0.5996509341075414 -0.3934685151770707 -3.008353449534606
Ni 0.9876001414364736 6.695211012270076 9.998691743207445 -2.3409266934336714 -0.21733972109887084 -0.9688760033562153
Ni 5.427952308264612 1.3164279061504298 2.5638858383286323 -0.46176472845030797 0.7389939268159595 -1.1737800697948946
Ni 3.165433751793847 0.38130655767526833 4.0326051801591865 -0.06708702345648446 -0.13918795518779253 -0.31595566840157197
Ni 3.7074955862301846 8.10580775947725 12.089845904324477 -0.5890129947777211 1.265378448129182 -0.01281232127331987
Ni 3.387137246833646 3.3822045046158093 12.549854829438372 2.146873196556251 -0.09405506740489608 0.7679378635438194
Ni 3.696671474533308 4.029938707243318 3.3506144788879184 1.2299643302959462 0.44391330209118385 1.154733851796721
Ni 0.4394952324302463 4.662883990278105 12.998026103935539 0.5125838679847043 -0.11569527138249107 3.172787066663065
Ni 0.6725719557534359 3.0380107825402516 5.855463769223753 -0.9503645748155891 0.26346762580518496 0.23433085634022868
Ni 1.462883814716245 4.062141137571084 3.998304938329722 -0.3246223429376345 -3.353638463027915 -2.5645010825883445
Ni 0.12640105397903212 7.466291691525873 3.946800594632952 -1.5030201140101986 -0.0986444865477914 -0.4959056359980751
Ni 3.281334579791438 2.9474530810693964 5.360868875514188 -0.11262588842854798 -1.2417186426183968 0.797882987842684
Ni 1.9673451235675614 1.0434052779235496 11.52691019395198 0.8427507948896518 1.4839975501611087 0.4723782423000961
Ni 1.8244538192836928 7.8248369013370995 5.522273785118286 -0.2671656434820625 -1.071002534915336 -1.134849711278284
Ni 7.142489739637637 7.42813274229355 11.962032038517771 -0.5226543648468288 0.42557516590362837 1.7575145897824958
Ni 5.783956690480615 4.151963581239658 4.196557432301061 1.3779701408856848 0.5369314435911333 -0.9553417163152064
Ni 5.130405574860374 6.276858629832773 2.6275405498846207 -1.6119664967046303 -3.6565447544446963 0.015097517763070771
Ni 2.0468460368218317 5.977804152580818 3.3586511258786773 0.7995953425481004 3.553445060339029 -0.4548055235236554
P 7.774774221356449 6.332272869766738 9.438576072253824 0.03874935285405585 -0.032849442429853104 0.6161581877339453
P 1.5166227837083026 1.9717008280165196 4.046090180535458 -0.4344632124218775 -1.4333190499696349 0.18639315211868543
P 4.33627130603178 7.9631956670170325 8.850998057031955 2.438576163058045 2.421903073277739 0.963752823197037
P 1.7264597762429283 2.922556693460502 13.772072943464591 1.5062087961508255 0.12244364584991815 -1.4108003000418283
P 7.883285243088074 9.676178819238398 12.433197337398687 -0.44589048042221274 -2.2981319668656486 0.048800566442470786
P 0.7427360256248114 6.742183748068987 0.7399988190469513 0.18308079991600082 -0.4470163664965398 -1.140101960816159
P 3.995400204657671 0.4588241362755364 1.243264170586962 -0.9734379116952848 -0.4062605247354164 -0.11943442670994915
P 1.7262084856016422 8.53486326182118 10.737988809870952 -0.24682101838743942 -2.4726697623076443 1.3225063034904256
Ni 2.703421947198293 2.2964614071659573 2.275035622525047 1.7636222453421302 -2.02129640439399 -1.0825226197397937
Ni 7.553564000538433 5.168545909971121 7.635617840566954 0.46543472110272743 0.6968216643232837 0.11275135826281872
Ni 4.123921407084294 6.353427818938706 7.685678659135447 0.46805596077565836 -0.9288377564874067 -0.9890553065175677
Ni 2.9717072814838925 8.573757468855785 7.277336951282117 0.9637101428845596 -0.5914018067248717 -0.24542722336370631
Ni 8.936732839602277 6.613262342028464 6.171571573958241 -0.1607548827252909 -0.050582598043558046 0.3104545360776847
Ni 9.311621248157884 1.8355106075002783 13.098460458315014 -1.0169828861657713 0.46140143157361824 -0.31653262395096454
Ni 0.4993805843669444 4.64153359282958 8.581013253446399 -2.0754757186498707 -1.1380864730480271 0.19044289670802686
Ni 1.6111173718926395 6.431039398852937 7.689084112677912 0.1592019364158742 1.1334641437846673 -1.7132641046045525
Ni 9.156277096539172 2.171672336115471 7.765529517875359 -0.8400904744486692 -0.6272784660168229 1.1452163992245887
Ni 7.830272224837509 3.4990360386922377 0.5604712006757366 0.5280814493996712 0.18020373547852192 1.0865273700238125
Ni 7.786603495618469 3.5828275069699473 9.363845958359674 -0.23158928903934956 0.04496370919488385 1.1959298664190565
Ni 0.7072528563691448 3.1730748487011002 1.8318631703773154 -2.4650029897910066 1.0058520663599322 1.0090312354188622
Ni 8.846835939447395 1.66478188439839 10.52103377724538 -0.5422489991493048 -0.2603226524183001 0.3546898517469762
Ni 7.781484612184865 5.7495764079283695 0.24818580580703192 -0.5678268476184091 1.526844727233622 0.24001093744414145
Ni 3.5360595265083803 5.269378606552338 5.7175424354008735 0.4782102756008409 0.4386337988597994 -0.8768701051708641
Ni 8.25182623618601 8.065387194473352 1.065202414289916 0.15909163609025503 0.37665452894352547 -0.40170195883045656
Ni 7.450451074064064 8.599686940212187 5.84215560300246 1.2233447680968994 -0.671266955782631 -1.0870847851891794
Ni 6.2308724424774296 5.010009436501998 12.147071298287859 -0.9096609264486397 0.4977779133201234 -0.2654255208625042
Ni 0.011481190188535183 5.322494002471575 2.177979731211751 1.9804096934819568 1.5924145427146317 -0.05865586196999576
Ni 5.765472867754909 2.701588456222984 10.604086264896493 1.0639888226016645 -0.39958491248745376 2.0243457327432752
Ni 7.134197148475199 1.3006338239925634 0.947035316990356 1.2370166091570374 -1.451768514924074 -0.039075882955539154
Ni 5.289500471976797 1.739350055434823 4.696573688919852 2.356389822066278 1.58588496912623 0.3202869487870742
Ni 5.882425393621586 9.301113576527813 10.367324876207187 -2.1777020090116492 -1.6634155565135416 2.0365417605888347
Ni 4.683927254720612 8.052124632849923 5.2441983535893995 0.22223921528301727 -0.6372772291007477 -0.17577758138636823
P 6.283485257114094 6.62734392500127 6.010262527080264 0.23291674960152145 -1.191920231039031 -0.5563646126150805
P 7.477199566769845 4.727391228602308 2.6138098431035366 -2.931604477508325 -0.6877420706195188 0.4464401822780956
P 7.675728480446599 -0.015303600054319392 2.76249200060993 0.7394518402889846 1.0300903700820065 1.7309810622683413
P 3.999662838498745 4.884168667582427 11.025586295292424 0.4809191898915718 0.3200138976313457 0.7641807104942323
P 3.4928840715111242 7.52654560306979 3.3426867245083836 0.11517976519865325 1.186109023673893 0.6776941994652135
P 4.211277479643949 0.7855913177309473 6.061194486538548 -2.095201993434204 -1.0251142570236538 1.8257552672274493
P 1.4486067834668832 5.466706909387392 5.360405383886928 -1.6747145264661287 2.552533111593191 3.4503008861486704
P 7.598535718267845 2.68155035434562 5.730184216069719 -0.10567491103201156 0.32707646090508186 -0.0013331169891267363
Ni 1.7284142590084863 0.8277467188657975 6.148809295388121 -1.189396950396545 -0.5753051582733253 -1.1798087924874778
Ni 1.5051750989386057 3.4833722553854085 11.371921572055385 -1.5371425096152043 0.24701462245548428 -1.451668756121416
Ni 2.1933484806915886 5.8817925134879765 11.835553735934193 -1.3818003132650525 -0.9140865663201612 1.773040967552869
Ni 0.19485076325318976 0.9676551101669933 2.116545684359868 -0.1077778163076273 -0.3519562548658971 -0.17010649914351994
Ni 8.548907616550833 8.310051208478065 10.325887980165199 -0.6212677410463687 1.1296177734553836 -1.086891695341767
Ni 3.645007980097058 0.7011008891880312 8.910647940330707 2.2457315988870614 -0.9269112288886553 1.8913045138831686
Ni 3.164968398754428 6.895554802800563 10.15140571944736 1.1997271286779596 0.6693581687956924 -0.9373385948695663
Ni 8.768572865277978 5.439641976614808 11.211919236512093 -1.7506163200007658 -0.054202197074016335 -1.1362013402101723
Ni 5.8944873444033155 4.162061742195041 6.504447910115139 -1.131410346579432 -0.18173945539675798 -0.18071847033141136
Ni 4.9570801817985295 4.630244128093285 9.136852329967763 1.515631375016306 0.11189183847600084 -0.2883847007618388
Ni 6.976703065814375 6.71930699265117 3.8805305989954313 0.9218212159602576 -0.0981973717080438 1.1610633935591745
Ni 6.592433139984089 7.613789990899986 7.85473862623798 -0.455506406245422 -0.04236200990597866 1.9055921341504343
Ni 0.13414173643672075 7.6917087038202325 12.47365419993966 1.2669450212853535 0.18350297505508398 0.1932682819719639
Ni 1.2056645757080198 0.039102685196264364 8.896467702513544 -0.5791849529437058 0.9629845775724446 -0.7100214508430095
Ni 3.5162354870291486 2.690298991486689 10.107338648026579 -1.0079855677631673 0.8125287627803168 -0.17347001629911415
Ni 6.167174918441813 0.7075599893751611 7.042973061451896 0.0492286551188249 0.1129994697178828 -0.01106808488870352
Ni 5.852801019132198 2.568869769380805 8.348965891046403 -0.6012064515201194 0.3675142572051541 -0.8598848834667772
Ni 4.087568027644915 5.9992103923940725 13.144706312666354 1.533760737627165 -1.257648683585092 -0.3468096776679511
Ni 3.5400801767689565 7.501370003637246 1.162683638281241 -0.0766129606690487 1.3078859824740894 -0.17957535786590365
Ni 1.8904222661516703 0.6920181285646595 0.35677872967359386 1.3257050129333814 -0.5527480989084158 0.4409747882881502
Ni 5.4636076581448645 6.744957252183922 10.611960038323456 0.024092522172829475 -0.1787351213527954 -1.1359043777950437
Ni 2.526234123909275 2.1076304508306865 7.712173069081704 -0.6624629843377559 2.1253057547981205 0.09779396562203803
Ni 2.581722820329546 4.935413344283201 9.154682797026124 0.9848608088202458 -1.8560965985234679 0.1634951644745894
Ni 1.4109597225779202 8.196002485577358 2.1260807681375544 0.5262248558069067 0.28753212295355646 0.37162288005688904
P 7.099882015348473 0.9929144731466338 9.208298912815776 2.1182043678666487 1.8981223081359506 -2.3972811609640003
P 0.18816084795850824 8.425384305767563 7.194720964781979 0.48898885427358363 0.5287219111971475 -1.158320797817031
P 3.7218098457227 3.8531976228721416 7.450048078331928 1.0184856959635429 0.8510402885919538 -0.027066260089172744
P 4.992419091611977 3.5913062393481536 1.6660169313650066 -0.21643494989641437 -0.16593616981591425 -0.07171089538174101
P 7.556970384786978 3.4099209316435797 11.933507758613569 1.4296313167054022 -0.5164955443342846 -0.6356461212552279
P 5.792658792317742 7.090379506283544 0.4383616324262226 0.49933625894617867 -1.0322182150582868 -2.0209423634886807
P 4.290936612931622 1.1801446150263049 11.583604154744345 0.3264781651994506 0.17124344096144056 0.280687075007265
P 1.3105644578537559 2.4357229577423616 9.474496673366545 -0.28338441933376995 0.504579509622989 -0.5075072247927453
