# total energy = -381171.9619593693 ev
CRYSTAL
PRIMVEC
9.20247426502707 0.00000000000000 0.00000000000000

0.00000000000000 9.20247426502707 0.00000000000000

0.00000000000000 0.00000000000000 13.46875128722154

PRIMCOORD
 96 1
Ni 1.8747832598700216 5.187655568690143 12.17224882745611 -1.3349365588339783 -0.12795634813803125 -0.10485241513071619
Ni 1.507457299506731 3.392648557702509 3.8354421685254465 -3.095574267626488 0.6576974446283125 0.9744182733306833
Ni 1.0619655232469125 4.394227445216785 1.2070655352728716 -0.5757288760743052 0.10877283323104493 1.095745289077655
Ni 3.497363511680209 5.362585400851326 10.35627121825032 -0.27632159894971764 0.9996883607513816 -1.135638525728167
Ni 4.238493974247049 9.124989372107223 12.32348965051901 1.109324056203354 -0.4694523269025528 1.1029001549548814
Ni 0.9704285123306471 8.26049974282353 8.562704394475757 0.7873507208527923 -1.852961909549228 1.3597343346039485
Ni 3.387982903280618 4.36574578755258 4.949806579895131 -0.0012971215448687337 0.5595615222858235 0.1011274008706452
Ni 6.031623680496882 7.952134034691113 4.486481328873613 -0.646625245974551 -1.2773626170742518 -1.2182961499293985
Ni 1.5543807154775802 8.73210814087689 0.3346930665852503 -0.18359347788636124 -0.6839432656987188 -0.7645843736905541
Ni 6.025596059892664 0.6067752594225369 10.329414717530705 -1.5480594136380241 0.29183409276301997 2.1947126846370333
Ni 4.906731638636777 7.1756568687032045 10.813521916049178 -0.3626700417389754 0.9991913665103049 0.6388772265980159
Ni 8.984219124194675 6.291694804001915 0.14343436419487005 -0.29741441506427485 -0.8807321592294316 0.8044783816720145
Ni 8.12403625283888 9.095550657125708 9.859381783061226 1.252098186080508 -0.648452786101593 0.7282053208408877
Ni 2.5111895659849566 7.055270101154538 6.438278254869707 0.15108367818411397 -0.4864599172041429 3.0660829430355907
Ni 8.58307407112833 9.129931100755261 7.338583913758921 0.4190214239455106 0.38642934894210224 -0.8840671371399355
Ni 0.5872071182732107 2.9947243706078837 12.712925475407022 1.457582807613006 -0.9652216944330797 -0.3617107631494996
Ni 8.549991176361669 4.439291961398242 11.446243551492465 0.25863857984765776 0.5799665683047366 0.58777115195082
Ni 8.224968989918361 6.917969186017242 8.922064693167275 -0.37115313950932205 -0.6380107648326625 -0.6605487980341785
Ni 1.7698198390887887 8.888191305866412 10.965556912635959 -0.57464669875372 -0.8166042184012711 0.5688678872884138
Ni 3.255890588543303 3.386501304933627 11.376690331204315 -0.6631638670595225 -0.7790715115631357 0.9399418368203684
Ni 6.693410410468966 0.8625663121748666 8.182090981607992 0.20896692365414332 1.498060713122394 -1.549244692195377
Ni 5.866834974909511 4.2547179362703105 5.0171769733018765 0.2849265670099093 0.3283980079299828 -0.6110722885706056
Ni 4.788875551494462 2.2766553083985546 5.234643401980426 -0.8461827033893362 -1.3580145236993644 2.270509062942058
Ni 4.434377840172819 5.6429203725555785 12.646645575193562 0.288920775770967 0.7156477958908514 -1.001092697298076
P 7.0888039171572395 8.806040818639158 12.28810705744854 -0.1987439603745545 0.7052857359302369 -0.8127120824357165
Ni 8.4531995526744 3.7788303877116656 5.657562429263016 0.4034153419771375 -0.03070385684176002 -1.3593131879061298
P 8.295036628514566 7.978011392155328 5.015305190048596 -0.18190066356497062 0.0864047499484899 0.09512773164378456
Ni 2.9457580053635435 3.2794121126110594 9.084753394141083 0.8002682002454089 -1.5070315491624369 -0.8953609648861999
P 7.623311226401177 4.461028205470245 9.567055987467974 -1.033566501556065 0.15303128882878805 0.04708615485452536
P 6.199393987726642 2.97774580569982 6.77801427731925 0.525653813794785 -1.3153714922178572 0.7734865612761905
P 3.0578165337567644 7.271574257341008 12.179104670738772 -0.2612901585378919 1.362134459405009 -2.685905488540471
Ni 6.860564151926997 2.2907627013546854 4.098932011197606 0.5236632657273176 1.7824170094511305 -2.5526159011149843
Ni 4.672077748885711 8.72572162377868 6.797584258963417 -0.03665493221887236 -0.7947053614456507 -0.4816241863783963
Ni 3.1198136024752605 4.04575735449936 0.20701977996113405 0.15080059972605642 -2.2940493121558423 0.9599378203263211
Ni 3.4580781492994372 0.991161686714315 10.508629221681696 1.4514430132638552 2.220582096204627 -1.9605276098460493
Ni -0.17209915109575225 4.644387504003129 8.002808379147885 1.4726772400522832 1.264227108133558 0.9457610146053066
Ni 5.429689842753549 7.549102474412762 0.4318592309726608 0.3433086064932281 0.7078408982519229 -1.839343290324529
Ni 4.804344910632919 6.216354147686297 6.008948784055977 0.35465437052335047 0.4711726520277692 0.3532508053076045
Ni 1.1414564954289474 6.714392051656166 10.686497403856508 -0.3339451630004572 -0.6670917413590188 -1.4230837453948717
Ni 4.49423073240157 2.666407698399217 2.952174890626629 2.9043451275717396 0.075747784455276 -0.8923985398237664
Ni 7.985290549251413 3.910812272758522 0.3004258133884173 -0.7098952096777903 -0.11084231416556395 0.8767032405756967
Ni 1.0776557417662884 8.846080783904732 5.09318112800767 1.0974501875839036 -1.176030299281652 1.473732935010307
Ni 5.519662433054979 3.7767506285413552 0.0037260818055691062 0.32730220376264274 -0.8430184467287417 0.5282226029632259
Ni 1.8505531452884867 8.560242732625943 2.963704670557964 -0.4833396264076063 -0.13526985108030898 -1.6692319060850025
Ni 6.712569961763593 7.592078028949704 6.615985393745933 1.3934684936316 -0.18221228126811845 1.8205305284934001
Ni 4.473074244204476 4.204269972678979 7.452152568169168 0.2895077586226885 0.07791111065518194 -0.34322530275080243
Ni 7.20771828883312 6.4201245340056765 11.075852246971518 0.5316997628785488 1.4831308312854392 0.6945274689724684
Ni 0.7349353569320929 1.7604425178739829 5.714508259890434 0.3840382230021064 0.3192356247044244 -0.943498186713059
Ni 3.4089001271483843 8.421073715225049 8.979818501029886 0.05163855011189816 -0.8064319058539594 -0.38740919635686827
Ni 2.6179474692361473 2.9752611376644937 6.7741888087922675 -1.0356362396009002 -0.3467528562880867 -0.7419735782695738
Ni 8.473242541492699 4.907504646469989 3.247234741306162 0.8218603245938878 -0.3974994907133348 -0.974667927447644
Ni 1.0306034911565705 1.4964879502544752 1.480888836229728 -1.2811423958316581 1.5603708840155257 1.380479280460784
Ni 1.171843065253569 1.8755562677032342 10.505612650637326 1.1591726042943649 -0.18556782800391267 0.5235218550534467
Ni 4.977682714756653 0.522058202139532 3.6392564614457563 -0.9464135605876411 0.7230600291945225 0.7196324915702123
Ni 9.057286769381681 7.96570768414336 12.17906417985227 -0.4869893073450516 1.4860852859280729 -0.5892701050938496
Ni 5.837055768382414 8.00671390920045 8.875381461773173 0.4683482952050966 -0.9762938930868411 -0.6433656013866726
P 5.003256390572105 2.323449889730535 11.60660218599759 1.5723928481770661 -0.8500223888504005 0.5320892850074838
Ni 0.2790530670475078 6.905177746872413 6.585411093447531 -2.0410635597185878 -0.16954651287499187 1.8105361362848496
P 0.8376708587083166 6.590057422673592 2.1384470293046545 -0.6123251871411003 -0.01880710540417406 0.40528221998254715
Ni 6.20028662772452 4.422718305355194 2.462518600162594 0.6359194295212727 -0.19800271133315578 0.201296294482763
P 1.1884443287192312 4.823016730794687 6.287239886239318 0.9057698189243497 -0.34521173705321195 -1.4907695787776196
P 4.0231652803263 6.325771565982707 8.186117984320063 -0.487542094524728 1.5980293177982479 -0.6733724321614081
P 5.1419100694175235 0.34978604452872747 1.3548489887769837 0.869725780816599 0.5930115744141529 -0.6945356965025845
Ni 8.449518562992434 2.262566320390833 9.615893518073444 -2.183176916083292 0.6289553394986136 0.3330061961259555
Ni 7.346804483966169 2.1653789903127514 11.766071861494522 -0.5824399695458936 0.08674207868325062 0.5162823998822141
Ni 2.4639072535201154 1.3977269970873532 12.663535796349256 -0.7810255499657129 1.0675562282379485 0.14265688757299946
Ni 6.928202337333104 0.18366390042906588 2.618311887214662 0.43846564871305127 -0.771516067813381 -0.23655717456758615
Ni 8.319441590105994 1.2621653495747858 0.34767591719354096 0.5776806004840374 -1.5735408457385804 -1.6132772450962538
Ni 3.2572065423546053 7.629992222673944 4.60287882385445 1.8568751285607055 1.204564916386235 -1.8791493665778736
Ni -0.016992368619371093 2.537674286746695 7.5770080571917395 0.14909930076423353 -1.582583415556823 0.28389632597318204
Ni 7.284641770711984 0.6649965529747573 5.406208809572295 -0.2769628320781423 -0.8844386615467413 1.7369771319507765
Ni 0.8901350843979438 6.342832953158616 4.467894171474531 0.16543300492725058 -0.21141229987084237 -1.025662159107324
Ni 6.5724714944680045 2.0917499941992457 1.2767475901998904 -1.4865743097493496 0.7390072965523983 1.3789150212974575
Ni 1.279521215925251 4.177545987587913 10.121672543344484 -1.6710316782979027 0.6657789360848663 0.4174602501059778
Ni 2.044863388125216 5.444717483130171 8.21801283966687 0.21237492089442778 0.2397376291780968 0.526713365407551
Ni 3.1260988923572155 0.9421861189957703 1.4331427190649593 1.8358447902529673 0.08061848228401598 0.7833068898007219
Ni 4.456270526306305 1.546089286218954 7.991346697525667 -0.9527150773256367 0.11910172596087876 -0.5222051931245523
Ni 7.07872720790286 4.9655170438577585 7.130760757799697 -2.351890134423711 0.9213144515271682 0.1867911588880525
Ni 4.3804145314352105 5.571610399941711 1.499098692186409 1.6501872307487255 -0.20917569723083973 0.3781113159947101
Ni 2.7720613047458187 5.794439110339464 3.037904220072174 -1.1578777967423415 -0.12258531363410502 0.14206116297052954
Ni 5.973408828676605 4.460669308976254 11.2602532655844 0.1762432081688771 -0.5122005165033566 0.5933653582091458
Ni 8.915918360645813 0.789248359689487 3.655836559220747 0.45384135983817325 1.0813316847554861 -0.9040235256572043
Ni 5.418057915358539 2.9837642238298328 9.534313584246895 0.6859250720154381 -0.34118384684074143 -0.20112017391621492
Ni 8.801734060711258 8.398766917752342 1.7125381181528898 0.871449448375925 -0.17634708073659308 -0.5167230869640584
Ni 7.350430258802905 6.001365945311129 4.897924870822676 0.6041141120852177 0.5673385951280809 -0.024577432229047996
Ni 1.961728236158036 0.997704645874008 8.17663667514674 0.24138673474574557 1.1890459948150296 -0.39608229865083394
Ni 5.632070655467987 5.44280336849555 9.182401768176831 1.3874806514792812 0.4705730707705573 -0.02971603900719398
Ni 2.439124990486286 6.501041889689472 0.45654578827475933 -0.5973292279529002 -0.37799150258739417 3.011244397929156
P 6.7592909233019345 5.70970272786063 13.456076801309262 -0.426464253376801 0.08321889602134054 -0.17141159110818868
Ni 4.1852024461264 7.940253640492572 2.4083068246214543 -0.3878851075520223 -1.3342503314002312 -0.019706734400307995
P 8.635923880487145 2.9260923179876452 2.4105154184306334 -0.3124653958601264 -0.702308398469468 -0.07094444952936169
Ni 6.983251538026892 6.873015099526245 1.9832196944161886 0.18393646304807676 -0.9381610907708616 0.9057366516935692
P 2.8543038167151225 3.53730224972953 2.3486812335055642 -1.082429288695039 1.1451580351828277 -2.0459720527637986
P 4.940210239794248 5.854292002568216 3.7553171458706935 0.12532662382466805 0.8111107993868677 -0.2894481090293467
P 3.072890186504411 0.7050990950649253 6.097667077123278 -0.8545377602222508 0.4675743931535496 0.2615938058212398
Ni 2.8302853590403005 1.532285574911585 4.093678318674022 -1.2594805945875083 -1.2912524876824665 0.11919505700563343
