# total energy = -340859.9469458884 ev
CRYSTAL
PRIMVEC
9.39950678953606 0.00000000000000 0.00000000000000

0.00000000000000 9.39950678953606 0.00000000000000

0.00000000000000 0.00000000000000 13.75712830319585

PRIMCOORD
 96 1
Ni 3.4600713164831736 0.7040409324881857 5.174661704841559 0.11693917109192117 -0.8020895697248638 -0.12967821592514442
Ni 4.734155689735503 4.5896100712691705 8.060480481331222 1.2439881553788639 -2.5697155369097486 0.4374341221247435
Ni 0.8433331664987471 1.3226610253679487 9.785913201000628 1.0885893947591638 -1.8502432250664842 0.19126744949185123
Ni 0.4951613283910205 3.5242511501993987 9.672526948200568 1.9948518370492163 1.2862414076211204 -1.200417726987081
Ni 8.465985552264884 8.187252572033344 0.7598486253299175 -1.6287334317503241 -0.49985125090938426 1.3719571019223855
Ni 5.124846197704879 0.34268722578004396 1.1108045974075835 -0.32704560766714647 0.8476811423117336 -0.6508601099915048
Ni 1.0374047872865184 4.127972084551981 12.760217996327606 -0.7814518388698541 -1.4157033937704007 -0.19215705118565615
Ni 4.826289657234981 8.720693392634285 10.011791813486166 -1.305578160276519 -1.0269829348012764 0.036886845724020345
Ni 2.0516021918188834 2.935813814209819 5.2724334966326305 -0.8688935147232906 0.71442523633766 0.9734168286493622
Ni 3.016809365928143 2.2754420512386533 0.42862221842072784 -2.093908985654394 0.7343844530684062 1.3157216764684243
Ni 0.8572077787642013 7.685760675685693 10.879385107521756 -1.7178242131714092 -0.3255746795485748 -0.7115782538071681
Ni 6.945211118104187 2.4884630781148704 4.407247416336745 -0.8240748157467034 -0.5252156978161019 -1.2876395735202275
Ni 4.192988474390167 2.8369967972416474 5.986592998393738 1.4465849138406055 0.5378362147935899 0.7923900830489128
Ni 3.124659309112087 6.48668436820013 2.813952025958392 0.20673931987520525 0.8470836179370508 1.1966996547055455
Ni 0.5601983971445802 6.086425162116648 3.814522025259096 0.29527705700629797 -0.11012034839787488 -0.1655121949046182
Ni 5.460436795708744 2.493670404986398 9.916592666757797 0.006195330177434491 -0.23751233939200386 -1.1605134345929755
Ni 8.07125325629053 -0.04365037050304313 5.975244033656044 1.0028587880595632 0.03992280433686673 0.6986908563215386
Ni 9.175103158477459 5.963564206272363 1.2507585567101225 0.16565052025469537 -0.8909556367296527 -0.3264390844313991
Ni 2.0929318240465116 7.49946244717726 5.526032195177409 1.027594086022714 -1.534470619209996 -1.0312201128110754
Ni 2.0039654904020954 4.973109956392486 1.5423528823537742 -3.072350006991225 -1.9318814068642665 0.07999730376024931
Ni 2.391055987194947 1.431121936506133 7.585570390746528 1.164223536454711 0.1073309585781958 0.23843613675785386
Ni 8.42379116539433 3.7295833803591734 0.33734172615578834 -0.4563196461753367 1.5532540704650863 -0.5482970051155978
Ni 1.3722434247313182 6.400678879257034 12.925510206618549 1.8668309542218366 3.320931716823513 4.3361328284985134
Ni 3.3692814784830247 4.822717844579421 13.398604312453099 0.5440562275613727 0.4995478607363526 -0.17423929036497088
P 4.140163245115828 6.47133497328821 9.315075916793974 -0.44676362705578543 0.3870129893597142 -0.4666279700798802
P 6.7201587222829255 4.798730302745238 13.316845520767325 -1.128357161575405 0.3880982520040929 -0.7526099749374974
P 2.913207999902918 6.743713886795646 0.6766799075958951 0.4165112559291472 0.594445478647202 0.7580352597181267
P 0.7006909481975497 2.7472597040241897 1.064246019442355 2.3159301713893337 -0.4538040788423346 -0.6169043218713505
P 2.9719267200589314 0.7755927995353477 1.9912065996161545 0.5082541302610989 -0.9115164916001398 0.8185248324627515
P 8.02513927500585 6.88277959268779 2.7894916889226957 0.2971135959944044 0.6954420103669376 0.27099658719237846
P 1.9388363064800502 4.004180577515853 7.863932090452029 -0.4977457745306073 -0.6821447790373993 -0.8086219715267429
P 6.049052722331101 0.5251260167190748 4.852648694682316 -0.7410556944409947 -0.3820145077038582 -0.25064939099459416
Ni 4.130603946508709 4.391195878252797 1.9487800449229904 -0.6771306136522596 -0.11016534270319739 3.7568314045816007
Ni 3.312724644934324 1.609449383088474 9.980013020309366 -0.09500380447141057 -0.6540120253569253 -0.16171621819729567
Ni 6.925754138638372 0.09859706850464504 9.568729132479286 0.2055581550829105 -0.5651978946359943 0.8020222068220381
Ni 1.1124786496022028 1.4141182283642684 12.496425532453996 0.6309456304557649 0.1848965129685009 1.4637999921673113
Ni 0.018129769079064918 5.808256152304409 9.531805049177084 1.4835092976707804 1.8535856591761561 -1.0372159253831943
Ni 6.198542481473288 9.068625543313809 7.179611323625331 -1.9307555207899392 0.7547331919280873 0.1038291160725244
Ni 2.4029181650142024 9.11547268614358 11.506036139172338 1.012741594390914 0.6151006930037084 -0.5448244731859648
Ni 3.7734508794736463 8.308506212182628 13.21987174711956 0.8768469652424126 0.15808196387881807 0.4945843460834902
Ni 6.1639146977283295 5.98407393052087 9.66808380124719 0.42843268995708145 -1.0449042951663876 -0.13774299521114988
Ni 7.157029008085901 1.8698439251858068 13.768547288647165 -0.5965183020158307 -1.9348474314711257 -0.5266200343627963
Ni 4.47068750885299 1.7883877976250557 3.0539176795673177 1.115464107662821 0.28680141543511894 0.6428423818933511
Ni 1.2486775058629092 7.1507313384037285 8.118562854864125 0.0814692603200855 1.12961468813159 -0.612890572726267
Ni 7.821442559062042 9.144827346468091 12.366860848225643 -1.7009814305824578 -0.2741204775333408 -1.136538668944933
Ni 0.6198110104151825 5.041406774169594 6.161047848096892 3.0008532845028193 2.886963955980815 1.8907689530946723
Ni 4.443945911471229 8.371520507032303 3.3981896622255916 -1.5768542263825296 1.2150871560737977 1.9120828840811006
Ni 1.6202964141529914 8.69616067939478 1.231135205970614 -0.38186641216176814 -0.8104567107426366 -0.13516700695385755
Ni 8.740507553365656 1.0068469900675014 1.6278677170320803 0.3714297902094765 0.07205439476408881 -0.21126420432875226
Ni 6.7931928915821445 4.652586768090892 2.127897990043049 0.2872197339194602 -1.759394837524344 -2.7286045700708943
Ni 7.650803909196144 5.2046198135147215 4.060278715123523 -0.1050683877962642 -0.8194923385823435 1.305457832648571
Ni 5.063119635312604 3.134359600324029 0.5726104461226522 3.0376367718797557 -1.0617738172282167 -1.7830474439462776
Ni 5.680366460221374 0.8607231943778316 11.860020632401639 -0.31326886559802825 -0.297504660785236 -0.22318255303289306
Ni 6.041326327586705 6.741053826317953 11.973131479646945 1.588082233887865 0.14287157468696685 0.8826944251621248
Ni 4.393038181622507 5.396181765936612 4.844889401663462 -0.7403931211563313 -0.07554029643016023 0.3274238169421716
Ni 7.043153980922446 2.780891140028386 11.62824006947814 0.9205359214899307 -0.6849418821665624 0.5366455369195984
P 2.3326474507695476 4.564024613246973 3.7895663342051153 0.23519680388494976 0.3825112448346186 0.2595893737967013
P 6.12069576459605 4.206551962974308 5.630586671211249 0.42818586405359804 0.2966027177962569 0.1837194619412642
P 1.0857746502483954 8.930142606854943 3.8519546218893677 0.1216301488096873 -0.19971583736952056 -0.06461053689153388
P 4.55449351316082 7.559891877605146 5.701614045768464 -0.985742954314883 0.46352207746104696 -2.0708014531026535
P 9.190320960291544 7.346494870449397 6.4828954269331405 -0.5970209526838621 -0.25767621593438844 -0.1247877206020625
P 3.7235582963796627 1.1031167406418394 12.618726277681777 -0.22255597519248768 0.0507008687889772 -1.0239294926869336
P 4.639455656828213 1.4265725751237877 7.740778809940407 -0.5346076805539632 -0.6893793491126257 0.6203007491474091
P 7.843503201963621 7.239942059229841 10.420502116302842 0.08177162205185272 0.28873359946082533 1.8616021017227296
Ni 8.762370806620481 6.177722573494167 12.33472393383259 -3.586392461799327 -0.26556718864669104 -0.4728731796586436
Ni 3.1578583677948204 4.323087050615455 9.781016057859716 -0.5663435782046633 0.5321998424434189 0.5954242976207036
Ni 6.386269435043945 8.27712125834864 2.523937757439476 1.6328225142180333 0.80596499351987 -2.461688580705793
Ni 8.699036928533204 3.7186799522527263 5.369145963986117 -1.5262261198130167 -2.7987427216488765 -0.5251665897457214
Ni 1.1375659337540196 -0.02721627248467051 6.112485295241756 -1.0950436350249397 1.4519472065937833 -0.0306596338673859
Ni 7.652232634258368 5.458650889380963 7.132012220236495 -0.1899415315915761 -0.8595187583766101 -0.5446614652455395
Ni 0.3231531703569246 2.3619175155311654 7.198733680642362 -0.6198371792474292 0.5044974914321441 0.13396295934342736
Ni 5.255330153716689 4.205057441363165 11.66429751823602 -0.46394862347550414 1.2935410266063272 0.38378856888514545
Ni 5.438817929635616 6.579607894286628 7.276323790978818 0.9362430478125424 0.8188477630198091 0.4462956862804314
Ni 8.076065803868548 4.540779632464867 10.502398140790648 -3.015885496245593 -1.2209562132600649 1.316398647930791
Ni 7.529954447847358 7.497253563035006 8.401175951580441 1.2352752009858985 0.14982512318666455 -1.6118937344851658
Ni 7.971693678270282 9.323596569878884 3.7133100139103012 1.2979772080008098 0.5179009093222435 -0.4786990423118013
Ni 6.5181445180900255 2.278938667838307 6.950568837087529 0.30736227030560614 0.09325211188762648 -0.33867393593469414
Ni 7.925241314734022 2.05921579247942 9.116766998255871 0.8632869671697907 1.0750160269501037 0.4487798861548658
Ni 3.6194117589491155 8.52781550923403 7.415959106994454 -0.49061584835404537 0.4249840692868487 0.7682232559947221
Ni 9.026976327848578 0.16952574823848157 8.163672968802455 -0.02621008273646454 -1.0625081242910799 -0.30491406587542974
Ni 3.755441424084032 6.549679864035828 11.642877921711046 -0.9651211642994733 -0.37558366447684993 -1.3813406000198145
Ni 5.647684374422997 6.288758949547149 3.0372025362899944 -1.1135180396800435 -0.4659684821190104 1.7050522582177214
Ni 7.043567559229932 7.2263785706457 4.940679777381395 -0.19151838916039274 1.0543692972340293 1.050894194201235
Ni 3.0383248374243994 3.1621915405164347 11.94256334297024 0.5535158303123757 -1.5308497346279573 -1.4731672923148242
Ni 5.139001855229283 6.00394448829417 0.8700597246693265 0.4115451701731235 0.902922836393858 -2.3064294309877504
Ni 8.91820523297978 3.1556212851316015 2.770437948306679 -1.9046297702371648 1.448751839584937 1.0148267590547169
Ni 1.4125485106972195 2.0359238141623717 3.2815154618810163 1.4134017422204175 -1.5801830336454463 -0.8416038257694022
Ni 3.079128097260681 5.8108410167261955 7.176612880896058 -1.0744012761842399 0.6257723137849416 -0.01377648495880208
P 0.3164391025151701 8.752397929705877 13.010102949661302 2.846429486201879 -0.2331340078186501 -0.6654035550233186
P 1.764907829168241 5.623283254281328 11.196404159618108 0.24073933096973377 -2.385249683720763 -3.8337053322215198
P 6.724388500427668 3.772097350467329 8.607779935035735 0.3878041178024418 1.3735403872491054 0.5104243984395403
P 2.075993912453565 8.854044198277531 9.274217199866461 0.20804981115651267 0.8523721200294998 -0.2904546959169901
P 6.8108169671852385 2.436746990665153 1.9997770700881017 -0.5621688780016835 -0.2219311971242952 1.1884078470103985
P 9.145090532663765 2.3679707980316413 11.311413707275051 -1.7543842716836302 1.019381982525567 -0.13817288365971686
P 9.166587205146044 1.6080864545751683 4.767382006988503 0.24596792635852477 0.7538423046827016 0.4670306048349376
P 5.866833879855598 7.891102305352456 13.910245796446736 1.2979370987914938 1.354682631112654 0.11990185326467091
