# total energy = -340858.1660231285 ev
CRYSTAL
PRIMVEC
9.37038169202990 0.00000000000000 0.00000000000000
0.00000000000000 9.37038169202990 0.00000000000000
0.00000000000000 0.00000000000000 13.71450077898228
PRIMCOORD
 96 1
Ni 4.62005727944395 1.6284692485681638 5.048472063414519 0.6624933233550591 1.9870107437382425 2.607240273328084
Ni 0.5964613335794156 7.947404823952327 12.2545785023734 0.7262134872218396 0.41119884257729833 1.8676976730975061
Ni 5.472349708612458 7.085517124021378 4.182140928526979 0.9640796104088363 -5.107115649516243 2.29583931417673
Ni 3.58491122365604 5.22261029810409 2.1598148633435983 0.3916168066803126 -0.34621678127895855 -0.2803183788139366
Ni 8.68506000457816 3.156712895500522 1.5156995170791554 -0.4349530075741026 1.3565070859159025 1.408120182106504
Ni 6.721946317788276 1.0924646800592472 11.855335590412235 1.0250890602126734 0.5176067751205924 -0.41016217378266784
Ni 2.2728610210899234 2.349679409479072 5.3736018161555945 0.14154257146289817 -0.6653868428527702 0.3301571567129346
Ni 6.502716869782356 8.916349133708358 4.127529407501022 2.994559738184624 2.585122101272806 -1.6632666896405033
Ni 1.778638984153002 5.429911250328187 0.8029470626039686 1.246817397297543 -0.4190383932263751 -1.4056015294497084
Ni 6.498069160506798 3.092994300593689 6.022887738989096 0.2799062309771825 2.0647878999187217 1.5976981597110742
Ni 4.15084479100796 0.13455024648922037 1.0224847961646581 -0.4229814370345232 0.8464177022182776 0.4170678997635656
Ni 3.075883983784884 7.256620292109432 6.4026693053970245 -1.27270789191106 0.01980649320296589 -1.5406806046754498
Ni 8.43619203955896 1.4776154751262378 13.645571358838279 0.27163422077637733 -2.165883933330799 -0.30303278969231684
Ni 7.656360771333765 4.766366417807962 10.287741025934105 2.7982593542545553 -0.0700029115516988 1.022647026430084
Ni 8.295589463591751 5.739658584628224 4.059163103318632 -0.2359892178792581 -1.0902886368384577 1.2486801615378946
Ni 1.3335364875839648 3.031243485823685 10.844453200749582 -2.2405207441100834 1.2316306622547755 -1.3910958796343655
Ni 2.28524866557034 0.09513092515774053 2.845704307836593 -1.6134402530366794 1.2124553748779054 -0.0455208672499345
Ni 5.730709870196456 5.305725582931092 9.370405029899965 -0.7001859528098264 0.6104662795554906 -2.0412710477437037
Ni 0.07516826418869407 2.192425665401651 6.514017549996714 -0.20637962254294134 0.47990848923887025 0.6803622332156799
Ni 6.264802880858168 1.9658310974550302 1.4196156241122937 -0.4557529750385893 1.8197226878801243 1.0839670654958042
Ni 4.825184303135931 2.6723391296293473 8.970928795436864 -0.7838902731080177 1.2326375062527353 1.8661714662609667
Ni 0.04356665222938633 3.4648391537830765 12.889107011218845 1.3088920551411005 0.4242495051136694 0.6125470733439192
Ni 0.8020165837106968 6.522038596649692 5.383393864931718 -0.18433035605238576 1.666123699473324 1.042017974757528
Ni 3.4628151513566245 6.459425706772125 12.33722151996756 -0.5208363378014836 -1.6595380758360063 -0.9336814577329533
P 3.470489493890256 6.054016146677403 9.765492177619782 0.28044513419978795 -0.6678473885781208 0.25403090587231736
P 6.788991398164509 4.324599777089929 1.0632262783404547 -0.2020051476243295 0.6682852474464878 0.8236374710989686
P 1.651820239525197 4.939905885113041 12.400912003729582 0.7409785613461561 -0.38294756104108885 -1.193079541454455
P 9.067390314782363 8.168545829805453 4.063825805204755 -0.5011301176218079 0.17404105831123573 0.1606849487193039
P 2.145133349446536 8.841048747139048 13.716146261964719 -1.2029484638287347 -0.6597592122533477 0.5406382030187593
P 5.132017448757141 8.077634387483968 2.4541685347446736 0.12611620960549894 1.057689619856514 -3.0558453244679824
P 0.801801064933806 0.7167770333740816 8.517020014236437 -0.8005898452508857 -0.19741084338542775 -0.49586012747212027
P 4.788068221602701 1.8101140959606563 11.006600158100584 -0.6485013799513412 -0.2784964951138494 -0.917855032223658
Ni 5.6861537056696925 9.281259904510826 9.870298958821756 1.05881756281337 0.9917647350289307 -0.0641726780231669
Ni 4.501625026351677 4.369989905579444 10.949903727167749 -1.2666714559089927 -0.5148616082752875 0.14893037928653707
Ni 4.86901894827919 4.164244436701603 13.350586123717097 -0.8195638152502274 1.2227040491891072 1.3654930914645966
Ni 7.534733218114547 8.498936114778983 12.045788596512436 0.20395224404837134 -2.1667344542565523 1.1043787963829366
Ni 7.606688378451248 7.600747556514347 5.770143247100342 0.4686719970931025 -0.12854101699690765 0.35396557198644196
Ni 8.425284915371968 5.497021923375648 6.7064730066456795 0.3699925435423176 -1.1534102478892911 0.5511360172262896
Ni 8.839858708675347 5.504827451251734 0.5909093824790775 -0.712737821332908 -0.5732004532254967 1.402303318314411
Ni 8.027924513075035 7.131937994487327 2.3059562718769 -0.7653184236431014 0.7990723801650949 0.2589471122270121
Ni 7.059467463162409 6.764497220651794 0.019553175292954028 -0.8376358422605896 0.29359118466344275 -1.5651847604644011
Ni 3.900046527378347 3.279286857261739 3.314945844455555 0.2429314535250461 -2.346100524325127 1.1765131524553416
Ni 1.350346952181444 0.8760913243662104 11.662167047723209 -0.7595067020573307 -0.5217722193521916 1.0850559276846086
Ni 2.560203772974926 4.168864034832349 9.203787463485723 -1.639736724839363 -0.11300615458610215 2.5186020060633854
Ni 1.2159944207440667 7.581238422014931 1.9191525414949733 1.190848338131091 0.06675175160425278 0.788841446465706
Ni 2.3541959334121745 2.2426977627068214 8.0010530697494 -0.30452917173218524 -0.05798120450047434 -1.7411911700321239
Ni 1.4362920922528362 3.3429492298789474 3.3643586777676435 -0.6301491026963986 0.04152023073097365 -1.4202925558029798
Ni 5.7272147178581845 6.078004323583505 1.7894542786002763 0.042002312573714756 -0.25710697369447977 0.9188400218447467
Ni 3.093678338450777 2.8880546845337873 12.017084306545069 1.1569730255398847 -0.11642057958428981 1.086028061789891
Ni 8.933824895399718 8.320599012092682 0.6645296596267997 -0.5005367070121832 1.5115178670685645 -2.015262539495084
Ni 3.979779104446323 4.454941785200818 7.737378027719644 1.4541434429141535 1.5466669041658716 -2.535000759136383
Ni 7.045402520374886 0.5079327792998153 6.365270238339356 0.7024061003895967 -0.45183641359300253 1.84719518226878
Ni 9.037161463728035 5.700377944944483 12.077071615497209 -0.7413678263647748 0.6343939940156816 -0.8655168849415739
Ni 3.3587383228815963 7.421389082233217 3.673785545016826 -1.634793264791159 1.1398890734744045 -0.30216324260316996
Ni 7.739326130055104 1.4345773124193142 8.500905768992132 0.6608861267689392 -0.015644134295160154 -2.552762453995178
Ni 4.016726519110682 7.933555399941696 10.53417643988892 -0.46788626796701355 -0.7351421571700371 -2.414794744367731
P 8.90056004070571 7.374883878332834 10.53412209167562 -0.4724787724337024 -1.3969824203221297 -0.5765734834627877
P 8.555523849285212 2.4285405410578815 11.237634412851154 0.7542750213447461 -0.8224593916304674 0.16054225249385254
P 2.6568498888380243 9.27948890238768 5.1471478039330325 0.8589340895177336 0.16332135790088645 -0.47568005297981947
P 0.4452842819721534 4.315163802814756 5.134092051244255 -0.3935991272176641 -1.4046432793014971 -0.94660356511126
P 4.498270429737464 2.6278860393002272 6.898146973468875 -1.1486773611899959 0.34258021296763574 -1.4733128167537528
P 6.52343478350868 5.642450245868889 5.7240896955932685 -0.8361086069827858 -0.3657875043220346 -0.14343978848561104
P 3.5084957616758605 2.8394411447725156 1.347141344634734 0.9321699061844333 0.24305666624900077 -1.9044904164458232
P 6.1276204941764 8.418210277260988 7.844447756078972 0.005860572545835068 -0.26004985837288763 -0.3503017499816096
Ni 1.530473797754097 8.352805013665446 10.166683191916407 0.43193530379370126 0.19511819069650913 -1.506241963381606
Ni 4.9837405302563 6.524606081209173 7.3248188664611105 1.8195370542318792 0.8371594168448033 -0.004151560274528334
Ni 8.336781661122698 9.335148969115119 10.056747063824432 0.8536646135886782 0.8685549004369493 0.011713174671870148
Ni 6.611675667073039 3.934267160995957 3.1826557340092068 -0.5933206210141394 -0.3169686830471186 0.7989137431000435
Ni 7.0280298328811694 3.3263449136767553 12.98028082422524 0.3297707199077934 0.07406756853937566 -1.5735804407272642
Ni 4.730037448329464 0.7711093170282414 7.856900056192455 0.720769690498449 -1.42399237325207 -0.7697255515718614
Ni 4.891067456193275 8.775362372095389 5.740039959159505 -1.2147865941142433 -0.6040611473600952 1.561487257008156
Ni 4.442647844536441 0.5067727260572468 3.3706265260225226 -0.3220532966588776 -0.6816493274582196 -2.744603773712628
Ni 3.483467472411721 7.15426761384953 0.7884304674231355 0.46562806806045615 0.8844324908991541 0.9617262796853113
Ni 0.6600656098306799 9.191585352561063 6.19463465229334 0.05339049980599837 -0.30684624990113607 -0.19955848585604985
Ni 5.045191492814978 1.821227368542936 13.080959015292516 -1.77829347420106 -0.1878242281382572 2.029732193866169
Ni 2.860711911013473 1.0797115906962766 9.887564823965187 1.2189618085378555 0.11451616347272535 1.5455243059209964
Ni 2.1389863791143475 1.678347789845968 0.05740202066761253 0.24749439030538017 -0.1983824632700777 0.6703130765097939
Ni 1.567917842643465 4.418200518931746 6.88186780950834 0.29313789917610805 0.6728109032309832 0.9574999003087897
Ni 2.7834343739257306 9.042043432543691 8.052647327898887 -1.3373760215134065 -1.388485181484396 -0.7743879900445373
Ni 3.8587793667945687 8.928521259411886 12.419933878385592 -2.2526802622907525 3.327559763662992 0.47236178723986394
Ni 6.78146698173654 2.56261196104714 10.072300023210662 -0.2961584311699867 1.430110570334666 0.8561331297338288
Ni 8.996943785883898 1.9374763227214897 4.1488966886725 0.544620584705275 0.823708176435904 0.5086739914073369
Ni 9.0819612581765 7.841913067855105 8.181399182251583 0.15777343149946377 -0.04734943581824103 0.045803431487359825
Ni 8.140528388809654 0.7008586291052983 2.423461794228543 0.13170578787813447 -0.8331307553013846 -0.5449756540518486
Ni 2.3642128713467923 5.408022038901369 4.1523121927671385 -0.02746015309348174 -0.9601458225720689 0.4398489022138231
Ni 9.309952012982109 3.342358895837899 8.827777475673381 0.3384739041087461 0.11578834531692961 -0.029314689803717257
Ni 6.556118674543243 9.28846572796426 0.7120721647707403 0.04303461049297105 -2.229872777477934 -1.1419595828501883
Ni 1.003033758031187 5.7648930222876515 10.00487919053211 0.23468952523122805 0.32193374036187783 -0.3720178015024625
P 4.521434013062419 4.828014158380323 4.49206161488669 0.7528742843424776 1.8730825915585032 0.09334235760858763
P 6.227743021614561 5.289561674664285 11.76912620557961 0.20151869490621424 0.11613981511907741 1.0349564399250564
P 5.431457363292838 7.775767544112849 12.554734314063637 2.7575099402513352 -1.573406634153561 0.34363256549155013
P 0.563929242726836 5.6410259478650895 2.4865216513086175 -0.5754033744140865 -1.349939974221346 1.4855618093244352
P 0.6897537898664619 1.5877080885909989 1.6379914303540937 0.03591265473620912 -0.7755460149083805 1.4793163426353555
P 6.941428766097501 1.6422249687627564 4.664480384551937 0.09981485270680873 0.06471286679735307 -3.185764966979971
P 1.4743733230912728 6.659445872489956 7.649537259449772 -0.7073007094777366 -0.5191597214300092 -0.00399369454042538
P 7.367237646944013 4.164816029979444 8.187090752037822 -0.33045489045901155 -0.5738195748667343 -0.04822695332718791
