# total energy = -340865.3134514747 ev
CRYSTAL
PRIMVEC
9.34156100051664 0.00000000000000 0.00000000000000

0.00000000000000 9.34156100051664 0.00000000000000

0.00000000000000 0.00000000000000 13.67231878371284

PRIMCOORD
 96 1
Ni 0.35975472497091215 5.764238255558804 8.626713948813476 2.6379672700982955 -1.2034675695569983 -1.1100989866961655
Ni 6.870914307145201 8.634199341663328 9.125097439404994 1.3295385277468585 -1.5064443092003992 1.386204098759703
Ni 9.349781599349969 6.7714079991000045 4.10068372655049 0.48315167876651627 -1.0204083669075523 -0.14835470928872516
Ni 2.085709013318346 8.261060028054867 12.2487024587901 0.09510767703912652 -1.976504959110912 -1.8078745302922865
Ni 2.6581318482869416 2.825691428403979 1.1507018945441696 0.5916470899664585 0.3052688781116872 -0.9156145729289135
Ni 6.573124024769613 1.109992305750501 2.0698526476334123 -0.025401470792240123 -0.011973884532424539 -0.30007782082905093
Ni 6.621111623758363 2.8113988400347387 10.144545730758306 1.7022402426902232 0.7688716882119984 -0.17955324637871656
Ni 6.048651422545666 0.49280097372259263 5.0827667079573144 1.3745852835738521 -1.371070328442058 -0.6414984662709469
Ni 2.184991123898927 7.677698225125239 8.282458741896319 -2.0800525393872755 1.0701391584737763 1.7251384874446354
Ni 8.480680127767837 1.2732734509177919 9.572482545889198 -1.5609586381981957 -0.02767946819313943 -0.6869877089519976
Ni 5.868882422168107 8.44348203176371 0.5721444564500314 1.2252962353963157 2.1499834600504584 1.3161950165604173
Ni 1.1543553790613004 9.185622347446268 6.090128887655642 0.7389183363830178 0.20317937043808879 -0.1510011457726367
Ni 8.917753085035828 7.321308330435764 1.5536398536683422 0.658072311469228 2.6961063403328733 -0.029087147173943454
Ni 3.8733568389913606 6.183739736537553 4.812491993582771 0.30307572711511027 -0.31454259010412927 1.0379129514502188
Ni 7.706722455231925 0.7539835467508734 13.409208321630688 1.27195275891259 -0.17641521497036713 -0.44780543805673845
Ni 4.377502204423499 6.698366333440467 8.492068424814205 1.8858044100005458 0.263199716855779 -2.7360422572958623
Ni 3.8746086081687974 0.4933437184181828 1.8778788977758454 -0.7453358098735874 0.4686750824168961 0.23988341072734168
Ni 0.35952772503798885 4.375101423239908 11.744931689955092 -0.3085912576167008 -0.10113717106265807 -0.38856105057312434
Ni 7.278159660058299 5.9205132299568595 2.436913407482483 0.6197497617399456 -0.6332118007821224 -0.9485745727947017
Ni 3.88964852142009 3.286136971358139 5.287222651657351 -0.6780335850825032 0.12913879848190662 -0.15877976127679108
Ni 5.394424537675476 1.098175231053057 9.67491556500373 -1.5151204968181584 -1.8661784082395019 -2.9508895509901825
Ni 3.6431060428312034 8.048670296575748 6.347168478369049 1.262057611286065 0.5884144419617737 0.6266673147953853
Ni 6.491759028236224 0.6528041651259839 7.42726872299358 0.6743409667222645 1.1773803855516434 -0.8826080360959059
Ni 4.658487018513948 1.4778349542574187 13.273319435858902 0.005247364441868382 0.8664098290694885 0.07705904706753179
P 6.2289622334627115 6.672471526277373 9.909518594445736 -0.1755893766349621 -0.7166132451279142 -0.6901545367157534
P 8.474524039051936 3.131011008966239 13.289931533830812 1.091534593430417 -0.19643845216982944 -0.014360125376413976
P 2.341032559271341 6.229205114049378 6.826370007550503 0.5412025601626614 -2.011701818727019 -1.4252624982137452
P 7.419544186181473 8.601027458461253 2.3744305082502355 -0.38687903488501113 -1.141335576112944 0.8763805671289553
P 4.168811731110537 8.94202246058046 12.534672863999937 0.5878174318077232 -2.046358232458624 0.8936056727579901
P 8.784374276711635 3.495303864283411 9.692607547430203 -0.44908816142390395 0.18414395107319254 0.09499789093413963
P 6.1810773916452435 7.6625648962636905 6.304552276970044 -0.3722972804160943 1.785461709814725 1.209353338913814
P 1.95149880606287 2.6159640418171692 6.506342139153363 2.848913428965997 -0.955990919863431 0.5889178639607535
Ni 3.9786362317504067 4.384480350509658 7.502028301725734 -1.0107610736257755 -0.15771043947201227 -0.3973557660466189
Ni 6.246440294141698 2.9508683461476544 5.897362973423101 -1.5811914203053028 0.07349884052009922 0.5349105565063627
Ni 2.970831262059463 5.30099024429695 9.478840869855903 -0.7129851614570236 -1.4645816075283422 0.3121918304837656
Ni 0.4637328382790857 2.108904109345029 1.0097349361988428 -0.6771704657512595 -0.9461983592530414 0.07329572337035764
Ni 6.812492184490802 7.320047219697302 11.926541912010803 -0.8278597367104322 -0.595315282846665 -0.17226108359267753
Ni 4.214193034573132 7.498340253432809 10.545541579345246 -0.17828852073368004 1.069216646659507 2.50509934359126
Ni 6.9536711962714115 4.900003737271035 11.079842437924277 0.950044472472009 1.0957280626864743 0.8203924817991097
Ni 8.547266774758652 1.8273027522268879 3.3511944048090556 -0.8688492917489166 1.448895564251653 0.28372380495105975
Ni 0.7960850281373636 9.253946524787851 10.30393798407062 1.0925815466376925 -1.9541636153012345 0.4125869811740765
Ni 8.466807909644752 7.866696687796137 6.145515937132808 -0.35219768145274183 0.1609294606299422 0.825823423006694
Ni 4.045717981475581 2.9794254982030584 9.960502966211513 -0.8371295920481324 1.1589885133080169 0.680368403863267
Ni 1.248200701124954 3.6233486412619595 8.184167770940558 0.14646160603107033 -0.10846944305801319 1.455749353948693
Ni 2.8490546725291233 3.043872927719 12.362455581555512 0.06579067324256412 -0.7927014436417444 -1.2546878011845553
Ni 3.7141672975533035 4.001298858798628 2.8863910236364307 1.0207372110018806 -0.497885128321949 0.9192871366844942
Ni 9.035419387714883 9.105789366921085 3.753543845588612 0.5930082319800433 -1.4311287271865352 0.744199382276299
Ni 3.5060840257070076 5.348025004061085 12.128782037435558 -0.11309768585864392 0.2045204578470155 -1.3803185865132035
Ni 4.739842673486311 4.295352516763956 0.5245071659997425 -1.0709629399266525 0.9378787836437524 -0.12971703958287983
Ni 0.4534571211508735 5.426027038625241 1.1104005319673218 0.5008773781810535 -3.0256816564004088 1.1138903354177976
Ni 1.5833852522862086 2.6478281064756524 3.268408556843666 0.2581958358832844 0.16511367391461887 -0.673102466329473
Ni 4.930718789923365 8.26103200337179 3.6262678790824743 0.12045952554035383 -0.18212769197411213 -0.3678271604598826
Ni 9.061089997413362 6.792874906336943 10.395871088592324 -1.4418384002945555 1.3001909278226769 2.4779022143511775
Ni 0.3824603231998507 2.8188347226111543 5.2508811767992745 -1.8084589420408468 0.18070767169813393 -0.9981225589261584
Ni 6.840787772837487 6.842870940946208 4.499436666335173 -0.37302747371389955 1.0462122153445337 -0.5469430621908645
Ni 4.760328716815556 6.830222467317481 13.362914347655888 -3.4555953017783905 -0.5639467958377126 -1.3089743304422619
P 2.0088373076382937 2.1932957716507273 10.305469065922724 -1.5287409158150704 1.2652871739669564 0.33306327461613605
P 0.5100819274639378 8.695068953306446 -0.031388579202277826 -0.7145437641933953 0.42851702214077164 0.6590130781159425
P 3.851301413409807 9.048114569148737 8.809170516298114 0.3756921650302562 -0.7611874321938633 0.10630817374063627
P 9.39107129908333 8.910438642752746 8.214944477895656 -0.38453521724318296 -0.06779253416394132 -1.023620703197263
P 5.346511671174929 3.4444670891818374 11.762802096197154 -1.1390431805343413 0.2513081076245156 1.2803247850263693
P 7.779764120891462 1.5126416106389806 5.607291622923005 2.0866924133012965 0.558908719193173 -0.2703137021927409
P 4.881301932097689 2.3409578267831357 1.7522442435419134 -0.7524983890602975 2.322058138663943 -0.4404682809653769
P 6.580363734564489 6.239957250789898 0.2884188283546583 2.1148596197641316 -0.9211478440423169 1.0637728499361165
Ni 4.941340144809525 5.994545101085116 2.445786022144643 -0.5209906039911608 0.48623854522195614 -0.9137854901399746
Ni 6.069548494560038 4.776078588704797 8.684110368067259 -0.4279135842288178 -0.09759059136198031 1.401706051050044
Ni 1.538788639949768 8.96959874872817 1.9789994275662735 -0.011246519448096761 -0.6376487535075535 -0.3733989981207053
Ni 5.907509777009159 5.553352515404814 6.54405028438949 -0.21707798279705193 -0.2908766139457571 -1.5912840286546142
Ni 2.2110727622825346 0.8555263150996607 13.445372306829276 -0.11621129178696116 0.5206864424871807 0.4737226721431325
Ni 1.9991127426105948 0.9471875801955181 8.459528965293567 0.08661635173866374 0.5741707875585661 -0.29089846832262806
Ni 7.691019291147812 6.284049418830954 8.082295245487565 -1.3293012149250718 1.4515941941297388 -0.6203462576733639
Ni 4.145485853229495 1.1961588646510726 7.248666483588125 -0.13578381460225003 0.7840242275827207 -0.19739001744982135
Ni 8.161208082251722 3.723929228825105 1.920209247407464 0.010010075937834375 -0.2222595269979914 -0.31809739733492315
Ni 7.890396228118204 4.793818213092502 4.904588575422423 -1.7044285085907935 -0.7263685247424652 -0.13221769451754647
Ni 2.380397897433419 5.844921318137321 2.653564759101503 -0.29993743859644467 1.4298809708223632 -0.5134007074590449
Ni 6.060730060951828 2.955202830463555 3.5046528985578784 0.0934418593009294 0.7692599247893527 0.1771042706175918
Ni 6.424387690119255 2.9085323915794206 0.04072173282300214 1.3106167511416913 -0.33850861400142346 -0.09226223717053143
Ni 2.5441928284571205 7.909537086659756 4.342301334166655 -2.0585740577985256 0.7852539862247637 -1.287244652074654
Ni 8.595207665942276 6.205776478997055 12.982768863278192 -0.2472110547370065 0.09436205712235361 -0.3167090016278288
Ni 3.2574583790094023 0.6116928892082123 10.938538249225925 0.370465112303362 0.3429229410190352 -1.1264566021185827
Ni 0.17848827236094228 1.8391478516074087 11.644727567301278 0.43432951505749073 0.5141044183942888 0.9264648853798562
Ni 6.023027520652315 0.19370380695951678 11.48714010357912 0.7509385007723455 -0.12884954937626195 1.5928598577821664
Ni 9.264997591481194 1.7140736910350158 7.2808378856043525 -0.7802015114025208 -0.7077154284176522 -0.0005327325750184374
Ni 1.9272761383233663 4.908710072146939 4.699627253270899 1.8871856066187882 -0.935294567856344 -0.7607140921018705
Ni 3.9637271003534735 0.9257879321979651 4.935228895586547 -1.7046668498538449 0.062377533795957084 -0.4680855284620132
Ni 7.906659885863856 3.8125152520313192 7.171035308996688 0.8179406778245074 0.40700743020377006 1.6132078253108992
Ni 0.4115742322923834 5.033793574280358 6.183333378632937 -0.6340857187466434 1.7364541695677707 2.865606059130329
Ni 2.3342599275277465 6.724195749676382 0.38882753119493196 -0.013215470249009499 0.4768563326761078 0.20864476442803423
P 5.457844395478596 5.001453090009567 4.291603748324364 1.7792062158233162 -2.0800360843270433 0.1834736644790453
P 2.2451601184651215 0.6527397083549069 3.751875442789432 -0.8747579439238676 -0.04018942773469208 -0.042973418237732444
P 3.7911978097707917 7.737437507884254 1.7243120419191251 -0.3365329783322914 -1.0648434572924759 0.24302864122454276
P 1.8756359889735874 4.704400790955005 13.356816176618343 0.05230215183782606 -0.5879657844601293 0.42546178025421566
P 8.248981389648705 8.795023656280874 11.369722286423347 0.1736073132079268 1.8005777395205573 0.10671029427506137
P 0.1501478445213332 4.474757196261515 3.617381252078776 0.14299858718313438 -0.005579036749674263 -1.8299896170237708
P 1.8385219670186905 6.690995841791232 10.480802693125304 -0.10270862931483601 0.8025770508842437 1.0753075900485933
P 5.414396795148309 2.80152481003063 8.239157804074134 0.4776880845487837 -0.751445522315751 -1.5148322761537782
