# total energy = -340874.9574904124 ev
CRYSTAL
PRIMVEC
9.20566888231108 0.00000000000000 0.00000000000000

0.00000000000000 9.20566888231108 0.00000000000000

0.00000000000000 0.00000000000000 13.47342693253099

PRIMCOORD
 96 1
Ni 1.2479204689968444 7.971068981545223 0.2580339772346905 -0.8229036782567375 -0.9417997159647135 0.2963342946262187
Ni 3.741156202706628 3.4588183391470735 5.150432714699413 0.7977858001431873 0.8029254353625978 -1.645086933407683
Ni 9.309692905698649 0.7564040333443309 4.015013804123663 1.2574669065915893 -0.4315465529957148 -0.14564425233609757
Ni 8.766586060689745 5.244432719870361 3.864771765127574 0.054297842111616174 -0.16734179191418921 0.12954400434012528
Ni 9.183961880576495 2.282637647480507 8.485254376735245 -0.7471175843643585 0.2733185504573357 0.49938099614118514
Ni 2.7808208285125384 7.741157402073431 11.941848626288712 2.849685788355647 -0.1600110625807309 0.38348697848432667
Ni 0.5527967320380119 6.399375933505239 5.833360781568787 0.03316363123616224 0.8771572973939796 0.09495263951850098
Ni 5.785560346077004 6.305340026225786 9.160071328782895 -0.33060967086932097 -0.8759067128163303 -0.33400018460810865
Ni 0.6864409501016634 4.110607310572151 11.98038263551838 -0.5799364863977495 0.29664694077063103 -0.5370373730413782
Ni 2.4985013762906796 0.3667271504534832 6.455064706632633 0.8556433345816038 -0.07430693824369139 0.417580577733926
Ni 0.30913464500838095 4.45121705793777 7.438611254259362 0.2439853487108572 0.23630623489904465 -0.5797140859742984
Ni 2.144543409095868 1.5268246180761995 8.705626121580146 1.269201421419698 0.20983801340518696 -0.8172109987473345
Ni 0.9937887747867019 2.5638524194406394 0.3611245803927612 0.9071245331800312 -0.8188433921444349 0.5567664760391896
Ni 4.184234250016211 8.599586022123267 4.584750807975249 1.358241809218822 1.52936389411105 0.2899772420599393
Ni 2.0967936047827473 0.6420723879563102 12.511652831522884 -0.4318573993679143 1.7154695968963038 -0.1258585850687381
Ni 8.018478176110978 2.8230840541924183 10.709340288076719 0.2921763065937871 -1.533202808241166 0.440036592744597
Ni 5.711758498924838 1.7997082597291463 9.53564236529838 0.48247007931845937 1.3385304468328239 -1.15036066242969
Ni 4.158485994249141 3.5047270096906504 10.582258791334604 0.42505760283726146 -0.330183896185812 -0.4228096873433492
Ni 1.212036771828434 0.45585735680398737 1.89868853174671 -0.18548221026864184 0.462740462100016 -0.04271270837717805
Ni 3.390162460880782 8.634254571003778 0.9016280622515286 0.2988706878948272 -0.010419395561111088 -0.03824413108286316
Ni 5.81012107056272 2.549261434317004 3.693483726011828 -0.4772283713035459 1.7319094876198817 0.6926469641203039
Ni 7.276179068575123 3.6852777928009712 8.307189124213808 -0.03775510726158659 0.16377927137391146 0.49334661702164717
Ni 6.432442696006248 2.260580864921371 1.109561107349391 0.1837935097123093 -1.1883075739871083 0.2726143253014595
Ni 0.6703209033824218 0.9602801401810034 10.335317645061417 -0.41262169106675384 0.7017790083285592 -0.2878311422512139
P 2.943531025395979 1.5741877842977157 1.017769542135011 -0.37417418572383304 0.18237528920854396 -1.0669486765609366
P 3.144895825770994 7.068379505675552 2.5432574970945216 0.048395617694568266 1.0768245409137518 -0.20416821671391935
P 5.090882163490401 8.5790665862617 12.11690914849825 -1.0825185059747355 0.12423853296681182 -0.07764423014704047
P 0.5615770989849667 8.376541871611872 7.508740960108174 0.16216616125052072 0.039316281101119385 -0.7627563193428798
P 7.675714302234993 0.5265633375226659 9.546812523878204 0.07024870901391772 0.5716536775636671 -0.7686999385208245
P 3.644413828785945 6.625780153146051 9.94818520904008 -0.5111191105137197 0.08883958464222765 -0.27759635189708326
P 0.3704223059289578 4.269349864182225 2.0945115194753976 -1.1951299962255804 -0.714223404739499 -0.167629241247621
P 2.1729336918222346 2.842222639726827 10.861576274945223 -1.2758304967004415 -2.144979579077964 -0.812693056272323
Ni 5.121371338714049 8.165952991051443 2.4450090757503515 -0.346425554855655 -2.839648715834619 1.2401363857329417
Ni 0.3223466209386279 8.173971128617808 11.498276234562004 -0.3774230316784339 0.1393792452629922 0.28419585949147186
Ni 6.536135349906959 0.6190683420727441 7.4509532944835 0.9757953561838678 -0.21536897052574522 0.9751633790268238
Ni 4.328164882450304 5.315914738472903 7.158714734078224 0.3954508357144222 -0.000599324146895742 0.6488775323438374
Ni 2.9320791733494165 7.127884949107211 6.134774632114586 -0.8390458352342388 -0.3585171959128664 -0.13752985075907928
Ni 4.6341244922731075 4.378096430280334 0.6822809083493789 1.547590958642038 -0.31857613674355456 -0.3080420699814502
Ni 2.270430930588431 5.580402810136729 3.9523351666401965 0.03529147621244245 -0.21944519747764787 0.7227892920316391
Ni 8.198329328388873 3.6471847351091085 0.3404366807912813 0.33629026619386604 -0.26506145265486614 0.3242726729076996
Ni 3.6821478653927464 1.1156810359993548 10.57073881733857 -0.262787826129341 -0.8171636904491669 0.5629700337467402
Ni 6.726619049703969 4.210028534127521 2.2730886071847674 -0.34052358754892326 2.7287902037191394 0.1244604191696308
Ni 1.5066734089685416 6.597822536855527 8.287154827100517 0.35497344442566614 -0.4767414043647982 -0.4851977626622676
Ni 6.291384232252643 4.361176410938226 10.553452412376323 1.2771841825148587 0.6733477495710597 -0.08815155743626754
Ni 7.510362078392258 5.269076295375706 6.131150360289239 0.9032154279336122 -0.3130328383278222 -0.2670699984444626
Ni 1.526677327374636 6.247556042868651 10.733969134511907 0.0778306351262337 -0.9016856215526472 -0.34025593570983337
Ni 2.1652653696720843 8.470743480930587 9.77650684956519 0.24257664128878872 -0.47764566134662256 -1.0085985187568178
Ni 4.061716003321913 7.717287102751294 7.98898781595731 0.041316856470915944 0.25289242139249996 0.5310844978920531
Ni 5.048655760485913 1.4007345718689865 5.928172726732104 -1.909484270115989 -0.9586170446323685 -0.6585847323292723
Ni 5.062777256498314 6.5060972524568506 5.349906670693106 0.268786209804621 0.3137195799822017 -0.4422212591007416
Ni 0.33219024263749425 5.812081878027284 0.6584032444921644 -0.16140100094972204 0.06454883041566302 -1.25217043407934
Ni 2.056546420580518 4.27966021329167 9.34542470933107 0.056141065967942015 0.04067639467343962 -0.9855614344316961
Ni 6.629572888711311 0.7283423929958279 11.495137101484932 0.8712177919810932 0.3100259331806984 1.0701167898762731
Ni 2.4467563116976487 4.672834329777768 1.562917283927453 -0.35532799955160743 0.5687514163152076 -0.04428545218093664
Ni 6.698652227744598 7.3815931825503585 6.980488382351952 -0.6503582306544219 -0.3070383113072841 1.5762027088414599
Ni 8.279366831255347 8.532421462210305 5.608205771190611 0.0968305732675042 -1.2107119098242374 0.059150285107911024
P 3.9427235277962924 3.5958171029388337 2.792326994005303 -0.5599093925435453 -1.991621503037376 -0.11271844814235425
P 2.6542060591810057 6.06050605755184 13.298865476799877 0.019952274752210796 -0.9355385655463502 -0.1132907757060565
P 5.13242734700016 3.8847186083868124 8.677075660215829 0.3007223963915853 0.41278341345559877 -0.29334435875995934
P 2.5243232774085325 1.2085754403416915 4.413624788631223 0.016171467553539893 -0.2630667908223405 0.24257766973005318
P 9.011585731402949 1.3263987959236523 12.18263210066966 -0.4205687138279725 0.3558509619346129 1.5760183607447955
P 9.302144257243517 7.505915740338809 3.898469115944651 0.2816630657672891 -0.4818987801960217 1.6198358721503778
P 8.740708925558804 6.0334966251526305 11.736082595637603 -0.4063088614748487 0.7080802679562386 0.24788956886126984
P 6.242907180100552 3.3448153361369166 12.481324755504072 -0.32239731026185764 -0.7149371429770719 0.5705208495108046
Ni 8.487046720459897 7.623601010888054 9.230618051430508 0.3232707140057465 1.064756039784992 0.6515784762147682
Ni 6.641586286557585 7.139180304783363 11.352803652595918 0.20979996107839996 0.15591452391385408 -0.43944241080402385
Ni 5.070519223999246 6.920619315000808 0.1818119597424585 -0.31424691324058135 -0.3533022273708302 0.0946973289745853
Ni 4.233199202617231 1.1797248741729387 2.770473656727702 -1.0319227953050552 0.1667085292055645 -0.16213427957132076
Ni 8.610255392317773 7.872384211497671 1.979327429152078 0.07856365663751631 -2.173648407767566 0.9327599743599484
Ni 6.986596343632413 5.358490956893605 12.977847233875975 -0.7121590660113026 0.9294792467261477 0.4377025452947817
Ni 7.3388512620903965 1.5772900946993973 5.164714389349766 0.6390885712778736 0.45124943074128093 1.5073858471780621
Ni 9.459561194539518 1.1018817383966233 6.511437460955413 -0.4523539766593694 0.2867070559490998 0.36294180734312337
Ni 1.6147663725784631 2.982029132517142 3.2962600357996203 1.1268628364180657 -0.48458943965430734 0.3353392151345063
Ni 8.87010380688235 4.910266940698146 9.745854734002938 0.10764386183292429 0.1404827627398161 0.8558191980378358
Ni 5.899894753165679 -0.07958576888918868 0.6635823537858913 0.48939020347706036 1.3420775407541339 -1.8242840819985613
Ni 3.4836828507047635 3.125628360872717 7.523170846026974 0.03305847311686565 -0.8065656032183465 0.3420176555959465
Ni 7.9652141761580735 7.864181960554354 13.279692830290731 -0.4461051675361801 -0.07209193287024358 -0.2132382973359876
Ni 6.798699436781613 0.41937989399489917 3.1891603638583677 -0.038318950184856586 -0.020532572735713024 0.28021707734938195
Ni 5.9319028637492 3.413692150455553 6.414914181953304 -0.24895323423909382 0.22008128839975 0.013425272266970429
Ni 4.646901960633741 5.574041692962955 11.74357324837899 -1.138784270446 0.5977740287998028 -0.19624047722641044
Ni 2.954715913045958 3.69759497771922 12.57522073661704 0.06875952606290094 0.9752754791246558 2.036980133677834
Ni 5.54665482814099 8.594725428971671 9.631303993696342 0.10931122223301819 0.5834889796356983 0.4118256775280198
Ni 4.633461684116071 1.9118333062943687 12.988868260620464 -0.2873601161520664 -0.44936764033753573 -0.5280721934282905
Ni 6.876432104531755 7.015318030437298 3.8114304375563486 1.0821431249131879 -0.16953365735918546 -0.1470814990032564
Ni 2.1780060153573277 8.16079781649672 4.164811209314408 -3.803859709614998 0.12286196433425939 -1.3642448208797924
Ni 4.646800698276417 5.513063342515662 2.961809801460011 1.1530950306417174 1.3615050533511261 0.2458262585743379
Ni 8.301414408145634 2.771035202527413 3.2118624638037288 0.33440924712106923 -0.2753828891855322 0.00900066083671353
Ni 1.6488181416461771 2.9062940949069542 5.878469479489497 0.19771603333067242 -0.28583056688141745 0.2752543340274679
P 6.12815851791373 8.580382996906923 5.334628022106546 0.2980096254461126 1.3910082050165657 -0.25653001814508725
P 8.810432661411431 3.2413344126197026 5.600081768432498 -1.818249445768707 0.1678210455434529 -0.5545632977402837
P 7.769381982760539 5.947497266777236 8.222764855778259 0.06736341704632269 -1.6025151214837434 -0.7087366705933149
P 4.185670334356455 0.7361828611534305 8.035052982871298 0.3075013669866317 0.24551746908466746 0.5320697446234578
P 2.292027429705181 5.093607041469326 6.4537584222231414 -0.43608634984759737 -0.9829296532358038 -0.16140999981078652
P 6.696194314162256 6.446867979090624 1.640591955963855 -0.2812655732185543 0.15410678128115393 -0.44488260798298873
P 7.906712150630817 0.4618456443894288 1.388759837831873 0.17677748340579233 2.5378225448558935 -1.1010638730770907
P 6.0341226106342765 4.731962340786669 4.693400714550457 -0.06562869374340309 -0.7522191672569819 -1.3641777150872827
