# total energy = -340890.4504005257 ev
CRYSTAL
PRIMVEC
9.03671095174870 0.00000000000000 0.00000000000000

0.00000000000000 9.03671095174870 0.00000000000000

0.00000000000000 0.00000000000000 13.22613992262470

PRIMCOORD
 96 1
Ni 6.725789066576782 1.9726778714256379 11.351995921364363 0.32347768781023 0.2616020333513559 0.9103803211131676
Ni 4.768184429152399 0.4968618679840551 6.217740654006304 -1.1621998211564628 -2.319601449593334 -2.049809167121702
Ni 2.8952718475192407 1.4605042002690851 4.939262020382231 -1.0346211680728248 0.4593100962622283 -0.16643804915299723
Ni 3.148435307078689 4.068011021687627 4.775178843491111 -0.19214342433890133 -0.18552283369859018 -0.12802139704801177
Ni 4.649677000679703 4.612174649897204 2.716913378210985 -0.992692903270155 -0.24386167864879937 0.22455526501070358
Ni 6.875238193622799 6.07207339052715 2.7932817194707007 0.7829119683551484 0.10307886817006116 -1.270224977588206
Ni 5.211308591313995 4.677067271817474 11.517441834279097 -0.7152819279110003 -0.6556199932739935 0.6335226471543218
Ni 5.745712571609089 7.767965839755881 12.183602868761902 -0.7965683827963185 0.47978996138313507 0.3865273079725472
Ni 1.7955944820439873 6.61466463101717 0.4912094052335844 0.09237433726836349 -0.935186324413254 -1.400198356156266
Ni 2.8718758026575806 1.5668301422707438 0.37377463436037744 -0.17569762007805226 0.07116067930522584 0.5487569754711517
Ni 0.43611619275633545 9.140091006132716 4.695054845126527 0.9904136203176749 -0.11990416725751607 0.2235509921159053
Ni 8.463684148681914 2.4795379564954176 1.2167515715782864 1.0509024217313516 -0.47437084725009265 -0.43790232001041357
Ni 7.095435731337775 0.6643907427916488 4.929025234125263 -1.076796515889294 0.6885524823359561 -1.7964634602418674
Ni 1.0872880346504807 7.487900091454385 2.585445498776298 -1.0519858846035173 0.7283156211665069 -0.2394265256955812
Ni 7.672149592684355 3.928583607176019 3.769066680369332 -1.0146588660182847 -1.0240842730972428 0.2811735277253803
Ni 7.422591780826645 4.111866180325571 12.985106724369881 -0.6732940135149889 -0.0900685719533223 -0.8435398664498505
Ni 7.818941926686984 8.823426578151913 6.955138081553792 0.9860890248003922 0.20246974596557385 1.0375956773201163
Ni 7.080696855644702 0.39460786797338304 0.02081335284873534 -0.22184223695491473 0.6091470465234348 1.1392825502386572
Ni 1.6658544217586049 6.43289118860995 8.854914094071562 1.9397872919749044 -0.22570969033012098 1.6890443128252395
Ni 9.191600259014702 4.917263051046107 1.4473096984913676 -2.015124214145007 -0.46192645083915285 -0.3171031517424539
Ni 6.274685488573996 1.940787318193966 6.922654720078426 0.9275799728209057 1.7109642528267823 0.8192923067563955
Ni 3.3372031638246216 4.351546867025384 0.34399596049686687 0.28408684471743334 -0.4188440178273819 0.4078353254217041
Ni 5.903972491911235 5.580530530656487 4.820001833880575 -0.7753266998087228 0.31849771809713534 0.649466829188404
Ni 5.461697780586641 2.8639054235274206 9.492889626845782 -0.24345904389374198 -0.4014379065357925 -0.8525477263754156
P -0.04001817113378759 5.565565737187615 12.658182918354532 0.9046184789287259 0.5013969981299493 -2.4861935078256923
P 3.9090191277918955 6.22955615368055 12.553180854519052 0.7905046931007419 -0.8911176162288137 0.7906594735110511
P 2.535068545786612 8.506482012129121 1.3050149355693283 0.6379014929483079 1.3301046846629738 0.45985439880147255
P 6.17742336773736 7.908604173545769 5.936645624318271 0.6709532811969542 -1.736248738425184 -0.8333256449210101
P 5.018166966428609 1.1177417508280763 12.466377823030768 -0.03989323665051194 -1.5802108015595882 0.23878374990525975
P 3.8307883203885 6.060361813029771 8.028849361549906 0.706311348981274 0.2710703778531074 1.8260175197499005
P 4.74647824925371 1.1010147987079786 3.831070265772696 1.1395468596436373 -0.4348429643587995 -0.3269641036969337
P -0.06638096822722958 5.606032129188586 3.4478034701443816 0.5991526543148842 0.8039428208835186 0.6838267947255126
Ni 1.4343881053868148 1.2433339607498042 2.3701241703341496 -0.6097098610054402 -0.27564796992146073 0.8680527639895502
Ni 1.56057673823665 6.514646313315797 4.57433974814873 1.6410171342136834 0.5100310196558635 1.3208062900801831
Ni 5.898053446185322 5.562683026368431 9.046772505990413 0.00040880540264445726 -0.05490847911242157 0.486796217497639
Ni 8.908154780787266 2.294845656424884 10.16902357562342 -0.36561858284433807 -0.6451250072799406 0.7949506446872373
Ni 2.324874647183979 5.280222549643474 6.72312504416457 -0.9490039470226367 -0.831318127572678 0.4465101162840826
Ni 0.9486287405765856 9.113523075698849 9.317365973788243 -0.8134638730000764 -0.17762671877996508 0.02304891139966353
Ni 1.7022814039283045 1.0886525780163017 11.624679580423877 -0.16035250508054966 -0.38167306520403943 -1.2995612646584782
Ni 3.8295231808440295 6.7148004259619585 1.7898010466014187 0.7739241630342414 1.2218828388393923 0.2492113729964869
Ni 5.605498963237703 7.831024009336671 8.056769183954147 -0.8054235191941032 0.3115071457119151 0.3211665231785501
Ni 5.347826184873323 3.121225770161555 4.634320013952045 0.13624738450222987 -0.9830623221589262 0.22369497389293735
Ni 0.6280514167189589 7.2868151975719355 6.729261874626352 -0.10240601047275266 0.3479975273284652 -0.1321189641561531
Ni 4.909889094844054 4.547019963357006 6.9338168655450625 0.043112514918758005 -0.1979335486581172 -0.03900363495670702
Ni 8.396478128737469 7.387059433049107 8.962178046678334 -0.9606947530970035 -0.5666955622274434 -0.13026391322528535
Ni 4.596703800610544 0.4979670577432598 10.362733609632716 0.00907368016649405 -1.3256404782440332 0.721335590304248
Ni 8.029000274624138 7.1258713740933075 4.705173250468975 -0.14081572059920267 0.7205071808656817 0.39649598914948486
Ni 7.113870621842907 6.086071255915606 6.9868668776579925 0.6742777175844967 0.03737175578023886 -0.2735296380268773
Ni 2.0635239274296047 5.205714867185232 2.547897060767536 2.0949515679862953 -0.3181333927791811 0.6630517669616903
Ni 2.3244408850544467 5.1945545290608015 11.40790334150559 -0.341572854749044 0.06631440695651807 0.06744569234748385
Ni 0.9776275462780409 3.381374607348683 3.6830697235050978 0.827995233847032 0.12560404585577079 0.3936418075301414
Ni 3.5284290059712387 2.4187208912505453 2.657488870136133 -0.005452795584455125 0.9755071355194876 -0.2199969562160598
Ni 1.43347539757259 3.434935193634917 8.333433514223227 -0.7766875847119914 0.6375022006273601 -0.7148319848577754
Ni 3.7922557845483613 2.4754533631089863 7.001256936305234 -0.80747654506839 1.147883918754423 0.1438362525930813
Ni 3.882415050513901 6.957842769165648 6.019269176954288 1.1924586200410043 1.0577526118839655 -0.30964592413346026
Ni 0.9442188255930051 7.268389343777835 11.526105329145407 -1.1926704789414944 -0.33393616413939264 0.24150834792527434
P 0.10460173753676681 5.493723884483791 7.9537380267947295 -1.5033204188594367 -0.9070970223762055 -0.5585029991143221
P 8.699560380037283 1.4055971440390937 8.26698567433436 -0.13652326387143585 0.8902352136238603 -2.2427239224089894
P 1.8761115773384611 3.24450458205911 10.514027129400349 1.337187045431052 -0.8759658481890398 -0.21903382097184212
P 3.7611875720205945 6.053584279755826 4.060821414390626 -0.25253092428802315 0.5522757872576876 -1.0773685863426798
P 7.002321460864795 4.0009766992527895 10.504914509995753 0.913056325283434 0.2956889477327359 -0.6395248874843438
P 6.49187380151534 7.79238303296415 10.067671439373736 -0.7761921331328115 0.37035326931584606 -0.31127009000044453
P 2.3097110460724046 8.474699899429833 5.951551679165437 -0.496421399292229 0.9851387450719808 -0.8845597605056379
P 6.429249394064082 4.089437063544327 1.8522682152807206 2.2413828350000626 -0.9499292870503834 0.042978560444055014
Ni 5.407224486486181 2.7541364946225975 0.5692495380342067 -0.8888992684212562 0.5097173450701867 -0.6600996263119018
Ni 1.5951602313558364 1.2816405788141447 7.07552243490782 -0.7963202713412544 -1.161242085228884 -0.47096156445822757
Ni 6.883931509635513 0.8901196513292682 9.181692409039297 -0.773951416727751 -1.010795783518453 -0.06660339895184658
Ni 2.7504224063884752 1.5979073915095423 9.103962235427069 0.8970530078766422 0.8938668968391767 1.5577583860933428
Ni 6.677749910731056 1.8444740520156833 2.4563054761034353 -1.2668707164039925 -0.30225143144160205 1.6284470108581568
Ni 4.085171735937258 6.660010846975382 10.302157824572395 0.48406416327845664 0.3552979176446204 -0.375653855593153
Ni 8.09023302857648 7.087384021808328 0.5553230626629034 -0.4571876506025868 0.147430654812559 -0.32902947086639467
Ni 7.5055307146776755 3.8447319655107632 8.157565562475371 0.8870141355834015 -0.3863046504387798 0.6855373496587162
Ni 3.3053216473039813 8.242366058798977 12.289980320016442 -0.34773861724012367 1.2364154852379288 0.5052598235194653
Ni 0.21730579018475976 4.581061253814278 10.091717223758591 -1.3269735952331598 2.183796809055478 0.5951211645579879
Ni 8.561687279823166 2.3618257585935307 6.17785080416917 -0.15642797321516286 0.33096859687063646 -0.4338160657561819
Ni 3.7078890503542863 2.564437856640376 11.617960785771638 0.05911403255333691 1.4966512343693772 -1.1029855155798358
Ni 0.7923921398744885 3.4808326489660764 12.54537765454298 0.45943402343460227 -0.05863169360027967 -0.7575215533065018
Ni 2.998525307770044 8.391354313582365 8.162062229884857 1.066509532140989 -0.6390818864096542 -0.8317865825686643
Ni 5.6360882300807775 7.877310043242203 3.7876886307928244 -0.9289786529406453 0.9309447755280806 -0.20369924749730078
Ni 3.1214155410932256 8.476877746788528 3.6206558714208836 0.15050826529661823 -0.5693965060983742 0.059390169032859014
Ni 3.692192283291828 4.232461089046644 9.46642471491768 -1.2074152413508366 0.7228018904371293 -0.6722390898879133
Ni 7.105620104670757 6.141656065472991 11.209470722311009 2.075238148717768 -1.1909038739593747 0.83296569047843
Ni 0.5697447497987564 -0.09974992738372493 0.5090885380102529 0.026418342092528694 0.5241047241401102 -1.1891652940017134
Ni 4.742827417996811 0.468131452600248 1.4017194913352937 0.12199524545858989 -1.1640258186216081 0.7073102225594334
Ni 5.792025715647717 5.74210692390735 0.6297521257351677 -0.5499725930458077 0.9145051419148185 -1.3174905954433889
Ni 8.197796999989512 8.709021816487711 11.032254493277188 -0.09457982956011453 0.8319930421525156 0.7800246195050244
Ni 9.149037350054323 4.9899362811648675 5.643104332525966 -1.0393491696761132 -1.1733069868132182 0.6030625308922517
Ni 8.07687676967129 8.707078923615848 2.363193916643764 -0.35465745584714403 0.8344792989094789 1.4104925389934224
P 8.590758379212877 1.8283344861126607 3.611027255816365 -0.736511269603422 -1.6951774223061706 -0.09153615763778429
P 1.6079742875991094 3.3037131127402986 1.3230766099088416 1.4831172044386844 -1.1193207624047496 1.2116645035454938
P 4.699794600062773 0.9377937240493046 8.276309752777102 0.47180128675070354 1.1272706133794457 0.4042584067037232
P 8.786547760430617 1.5230834241651827 12.34919427272425 -1.2676908983124426 -0.6289486546303943 0.6407263639916128
P 6.24742173139067 7.870966272097791 1.5456327292031513 -0.1745740479965703 -0.6544442277983374 -0.3424048637320361
P 1.5443829520674357 3.2219850981675466 6.078906047738389 1.491194325019864 0.08108179507367971 -0.9180378376584254
P 6.856125549790272 3.9821893770174124 6.062254100319857 0.40866296352932197 -0.2602815147677195 -0.5894444258881848
P 2.4202209852818455 7.995962059091411 10.26611670996376 0.9521916007219988 1.1230817721090787 0.575892398235363
