# total energy = -340862.05740544584 ev
CRYSTAL
PRIMVEC
9.32792795126572 0.00000000000000 0.00000000000000
0.00000000000000 9.32792795126572 0.00000000000000
0.00000000000000 0.00000000000000 13.65236543808581
PRIMCOORD
 96 1
Ni 5.899802419383082 9.098805941860991 11.682547739594193 -1.9387863615142158 1.4020438940054372 -0.5464825776146782
Ni 5.997456495869152 5.1982769508294595 12.206934925802022 1.517219545439032 0.32857464271716313 0.3320944829449636
Ni 1.3611778690638814 6.461147788458945 7.5504818566790455 -0.1376254957966791 -1.4649929840341478 -0.9505391527202403
Ni 7.986944927923644 0.7628192823457673 6.729810765911594 0.20975625232465814 -0.5255175453272368 -0.7029028375203572
Ni 0.9943291232386675 3.6945030489790125 1.1046253403171122 1.3368489453653427 1.7663578991057385 -0.2367183827357988
Ni 1.2099721588872459 7.134708129368548 4.5107415084401135 0.859448567260307 0.7160548015212829 0.9240501052907762
Ni 0.46695047057472305 0.3081732813758561 0.43806654203913076 -1.080709734900771 0.8710331867741128 0.6031244944784386
Ni 4.176047995441605 2.8221179263041427 9.591537872173975 -0.8306645531490792 0.04801612286796247 0.36431066266619194
Ni 4.848507640866887 7.865691194019506 1.3611937265411977 0.43646892999799664 -0.8267065969425955 1.1799486604994518
Ni 8.06684795774308 2.46995133888843 3.999801462996668 -1.040922170590188 1.4499363468113415 1.1387433899057355
Ni 4.723588031324289 3.4215492247230777 13.535664665105235 0.5831696486230666 0.7105176737531377 -1.202845362591967
Ni 0.9402644535172746 6.04093396749983 2.2596438779604586 0.35654824511195365 -0.11151697163508537 0.3702010600086979
Ni 6.214657295465879 2.664093500881417 1.881241560721008 -1.9484876479623798 -2.430869538442407 1.670352135732375
Ni 0.6673936478190555 8.506715722646808 2.4604564411469867 -1.0670062692717495 -0.4779331106800543 1.2013646642813827
Ni 2.8224817154896384 -0.30894656659323066 2.318840773575694 2.3312102374768564 0.46339172253076966 1.4283665910603658
Ni 3.921889945769626 6.713263021935447 7.4790523165033145 -0.04047404885464643 0.21383582171067045 -0.2656636050152393
Ni 4.345284590119872 0.6287312525358896 9.829511967055304 -0.9510199490114009 -1.7968036171901054 0.41317807779085614
Ni 2.201540215487278 6.894541971446412 12.009576494292137 -0.9391440235094213 -0.3599325882031543 0.22826999485812946
Ni 9.202560483149993 5.44166124385406 0.21938353470970312 -1.1963594977573073 1.3676453619209092 0.04510126321401265
Ni 8.190470985316859 9.194939566110246 12.008920740965463 1.2233560809508093 0.8832384705910531 -1.6106596049677488
Ni 6.818230193842768 5.517674527767039 9.86702889280055 -0.18715085622031638 1.2832129052074417 -0.35694368077815947
Ni 6.39066596575107 6.3280102744952735 3.7924220386155465 -1.1974298480033507 -0.3262452232530381 -0.134950005847045
Ni 6.244525320387877 2.6893068898146337 5.877479755285383 0.15246076103729872 -1.445948308697871 -0.6801670864857382
Ni 8.782831714438206 6.16883851394906 11.586093234627478 -0.039584190050525374 -0.09873164694495899 -0.19214239589763682
P 2.076023618563354 2.2152242856186244 7.966769552813155 0.95606471052416 0.06872635883212035 -0.05182161265698172
P 2.9589119879784396 8.46252000057297 10.896334947035474 0.6534738934652681 0.31430039218633615 -1.964759902759842
P 0.6742067663084457 5.4015231703876765 9.641286509686932 0.21449839499533382 2.5520140058649274 0.16228160378246242
P 0.09632764514818497 7.810022120710798 13.025981091540924 0.7510801685565324 -2.012777054069069 0.7404617696107377
P 5.933215056881707 3.9565991652370696 3.6555160418072505 0.6740314059016456 -0.28214951848540437 1.5297346471869073
P 4.566608333818886 1.7758415729622248 12.082356718418122 0.9396690427749559 -0.581822904787185 -0.5430432129158261
P 7.73647140974579 3.2193104213708486 12.312822764186484 0.6427446799732222 1.4652642354176635 -1.5021518524726323
P 2.7334000046823057 5.357420727592173 0.9240394558441568 -0.10066203119845245 0.1382477027617103 0.5889466603161599
Ni 0.35882392951028724 1.8200932626030613 11.939784938243921 -0.716091054075857 1.403445916559286 0.8917760757484189
Ni 7.136004711337367 4.090259043159402 0.5796066533949746 0.24735580784498692 2.324550051847861 -2.3998113835850217
Ni 6.860252508731463 7.816560998121891 13.292078888839436 -1.771217541190885 -1.006717756794337 -1.5105305634546307
Ni 3.7907486083622652 4.924026544604706 11.806128791492723 -0.7583705315703584 0.5524699055463647 -0.7859831510813045
Ni 3.059243179752646 6.074178702297457 9.553802672917433 -3.2569197327479267 -1.0874642800157852 1.2180169281260829
Ni 7.893311188333696 7.565219982655546 1.4155456964398543 1.7184487341292856 -0.9366356552652708 2.514285380965902
Ni 3.9829039217267743 2.2458292168394474 6.27309769613384 -1.243592462602342 0.7537934537226373 0.9300148075146435
Ni 8.043574777799176 4.873282617191943 2.844906986793503 -0.6862294906297343 -1.6622685873932919 -1.5098523064406835
Ni 2.140274385478633 7.563596923212565 0.6879589303129746 -0.1493990913928395 -0.9210599123142008 -0.5745417977447396
Ni 7.911444680041492 7.257500971365168 5.897043218330013 0.3791736958209534 -0.33747400208932204 0.6442503179844711
Ni 3.826689114303695 2.389637880244332 1.6157435491821728 -0.7612113434532632 -1.6100412546574596 0.15520335677944236
Ni 2.7577272404713655 3.9705164335642467 3.0570380576128713 -0.9731558616784918 -0.3927748315441558 0.5078512383957253
Ni 2.7426719649485345 2.7919327518358146 11.969069967676344 -0.4223250343974468 -0.6201030313143063 0.007841093310973593
Ni 7.590312108526931 8.326593436187164 3.790128301161355 -0.8362497605463405 0.0025744455953955665 -1.106772236315778
Ni 5.916769920111724 4.349043745036663 7.438163344846356 0.9059109724879043 1.2133688878311102 1.8252981250853724
Ni 1.3515980871791555 4.7079917359871315 12.16638735630376 -0.19215936517850132 -0.6465378284670672 -0.2353328152421818
Ni 4.959416702803975 7.031046867357878 9.68247584062012 2.1069475640059068 1.9109716532947927 0.7665985759071056
Ni 2.2550172257551773 0.2778873652869295 12.636165121804737 0.8202320449618454 -0.3278223379321709 -0.6253388257919488
Ni 5.962168944876048 8.855468288475558 6.122798660542594 0.1181596737625836 1.530113884903197 0.375701678111953
Ni 0.3851557369907082 7.92438251594618 10.242291429531335 0.4157921183749355 -0.8060261857751087 0.37721091566762777
Ni 0.5076304966482162 4.724604775458111 5.485534219624867 0.5920530671556254 2.6614327002100873 -0.46030382763406535
Ni 3.516237020158181 4.397455690491118 7.813699189862656 -0.78398308993214 -1.4771877263281268 0.010049928036834306
Ni 6.418211336642593 2.0449429630230362 10.829001299971313 0.09827553324414688 0.3140144855148011 0.8760537799171556
Ni 4.856790840782795 4.781710349653138 2.0584488697327683 -0.5528275459960995 0.7605189453719289 -0.996034308938562
P 7.068619760670123 7.394136458266301 11.014974062767958 -1.0802870455410556 -0.05183703927594943 -0.4031980837600089
P 4.930201632830302 0.928451565709274 7.593882839301491 0.07616096073329463 -0.6671519051729928 0.7208558224543521
P 0.756259883493441 8.459404472676672 6.324458199576379 -0.18802091753009556 0.5759173379360275 0.32626450652674777
P 7.887434593798761 3.409516197818213 7.1954926383009985 0.1289919884913972 0.2608196466593766 1.0530076409998124
P 1.9136617066981774 2.0213246497493014 0.3523242293960936 0.9436974472080586 -0.9397263783754526 -1.1394005638737603
P 3.60238976162588 8.393511990462745 4.379214927613241 -0.7877405000920433 0.4934409765076663 -4.048127365452964
P 8.377626529362757 0.894437276865406 9.923181152771019 -1.1640057640169503 -1.204972436237299 0.6348830178369582
P 0.827250078268227 3.1695739101640736 4.146919675196782 1.1895278195474546 -1.0156024608784768 -2.0759647424711476
Ni 4.81358387905928 4.695510968546272 5.444945607244139 -1.6331117633236776 -0.15546612352252578 -1.1436585678191658
Ni 6.39479823778119 9.079049390710214 9.179031717983458 1.0194565445172443 -3.0086838362908312 0.14942505953476845
Ni 1.5164692116314709 3.506722533768288 9.787598788922258 2.7327844124801968 -0.8929353861638428 3.1255687571060493
Ni 3.4079491059422304 6.254412923891099 3.4020603851011133 -0.1424468284447224 1.2710402744006497 0.07743905611476987
Ni 1.9661592845435878 8.401160891285992 8.232307674441673 0.7679959704752645 1.82950419274692 1.3009460608211465
Ni 1.1717463106266752 0.7683292893168554 10.062653262526235 2.3693342980420873 -0.040276331021543536 -0.39727426207640615
Ni 2.2558847230436676 1.6340663978249836 4.824513412101473 -0.4364594169162999 -0.49341552258636956 -0.29249923715084464
Ni 4.339865064048765 7.617782855995789 12.861196716817458 -0.5945429234570148 -0.4010273013609352 -1.5090575784535303
Ni 4.458469666448267 2.03512998294248 3.880958065644635 0.06841191291549507 1.2985819314643443 0.4390701150662696
Ni 9.32248032337398 2.25329155910603 8.658875679840781 -2.239929133272671 -1.8771696171436831 -1.1867682545244465
Ni 8.45807057899652 2.856127551184094 1.8840669900616929 1.4022943194533461 -2.4934720437649767 -1.0296442836835236
Ni 8.425357536085388 4.111871851948993 10.234973670146168 0.35064139270921546 -2.5362803971797545 1.0573751739398884
Ni 1.5845630848140395 1.6923472909269959 2.485236081435959 -1.0318448908792681 0.30486470069473304 0.3631179279096714
Ni 0.15420090780388507 2.5411607399672973 6.069609883244742 0.363387122410658 -1.8425160316255558 0.403304527430886
Ni 4.756702175132252 7.141340286057973 5.4305423538768505 0.7004322644926776 -1.8220127694658816 -0.47824215728004094
Ni 5.496724001853608 0.22238992585035267 2.9447605886626484 -0.2845277889095939 -0.7505505213053074 -0.6178263194649877
Ni 9.065878356609694 0.5193435756284014 4.438575061965557 2.1984646954802978 -0.07565856717557938 1.1031580366019582
Ni 8.713105453884824 8.117713148217677 8.15788853339539 -0.4242029681464501 0.59316584060383 -0.5531034253653055
Ni 8.42822120993019 5.6244606456018404 7.9396560649803085 -1.7137641841694227 0.3332622780008196 -0.2308138443259057
Ni 7.517722174128747 4.696490400968761 5.383578102822113 -0.6815395413532327 0.5366015710555404 -0.1534614343876712
Ni 6.750313551289031 1.759247189346911 8.498829892456596 0.2795059102149703 2.974354209771026 -1.0494325220540441
Ni 3.102207615352497 -0.2707878794130592 6.200644882274803 -0.3361159453995308 0.7119477213314448 1.6865896806371599
Ni 0.7804117542392364 4.07444820548208 7.782913296841868 1.5590591071826376 1.978341240988703 -2.2676893341050754
Ni 7.369734599054575 1.5850574649892006 -0.16251768825999166 -0.2508761622934196 -1.1665799525020297 0.9712054228203404
P 6.251707824819463 7.228052703195666 7.522671572637057 0.3438086860580982 -0.7789010474235425 1.0939845976328064
P 6.057108594362649 6.005142708403732 0.6782326999612671 0.22771206547213038 0.8559179283992291 -0.34385522302531746
P 4.970358362152352 4.696443761329594 9.431504211095971 -0.5939947642630287 1.3182457284418587 0.9529066245111524
P 5.417791076528828 0.4803864178257055 0.5424889629609915 -0.0409648724481359 0.33591514224263436 -0.049350782518985975
P 6.613696720243565 0.9851224584672709 4.589788234484459 0.3498502642664878 -0.7182770059835824 0.3489043554134507
P 8.689850929796584 6.304522552211203 4.030369082506158 -0.07616507449835269 1.511616854540274 0.7762409840928761
P 2.532868212123557 5.013388093247036 6.071179773499074 0.6973176301230958 1.393692179606632 -0.4452068240916269
P 8.248322793738541 0.6025869364049166 2.1959014831120913 0.4910647629660059 -0.5403214431092888 -0.04406279464716928
