# total energy = -340866.95255625714 ev
CRYSTAL
PRIMVEC
9.29895866184451 0.00000000000000 0.00000000000000
0.00000000000000 9.29895866184451 0.00000000000000
0.00000000000000 0.00000000000000 13.60996595475855
PRIMCOORD
 96 1
Ni 2.3635162962127008 6.382758658137926 11.966494073485585 -0.13553930269161174 0.699965352158588 -0.20979404754112901
Ni 6.173169431241211 5.25595735509833 13.22387786184141 1.6028804752429622 1.0346635912749857 0.08102394525255079
Ni 2.56371357496772 5.985042200692054 0.7254573218609758 0.6176630544142458 1.404747151869213 0.6762957764557901
Ni 1.1929075994151557 1.7486970533567572 13.052664507010006 -0.1692086699195989 0.17945657289985223 1.9929592480121938
Ni 7.551944614276382 6.476724634347665 4.747033722383791 -0.6253707074711488 0.1356701718425212 1.1062215060186302
Ni 7.21819569273816 6.940435800666423 8.188776351826407 1.9903302950297788 2.220428344235582 -0.2293264611471018
Ni 3.201956894426566 3.613751975126425 9.284487516829422 0.9191665519462299 0.5061874775400573 0.39517032835952587
Ni 7.13782479393749 8.543929616169141 10.619502730795281 -0.8778664076458623 -1.2094587541434267 0.5702747949382695
Ni 0.7731377318575554 1.8509298037228998 2.1253048748802037 -2.3290245426794467 2.6125693988504812 -1.558918210729399
Ni 5.3025544364231205 0.06453291258786206 0.6511195873715256 1.642943918922751 2.1138594606343917 1.8952125906883233
Ni 2.233451762888048 1.877431835607883 11.120281405710502 0.03565194487565473 -1.450373177238444 -1.3264058956551479
Ni 0.874826493148164 2.7067873513124048 9.191258948033186 -0.4133950788976687 -0.48610741896073056 -0.37615470648897154
Ni 1.5703523272086541 0.2694689406230874 3.3616339612732293 0.44793245055290604 -1.7367259351719186 1.1331687240314356
Ni 8.841803155597797 5.123019443579832 8.285379512682667 0.22491650500486424 0.16565951911575988 -0.006741946709523873
Ni 4.887792987943854 6.3131094585524785 1.509208885014503 0.12894956528923598 0.544612614285475 0.7631646105248922
Ni 1.1972688109779828 4.238939556772459 5.152106585943421 0.5803218947616263 0.48184298725742175 -0.12880841172568136
Ni 4.530685082512622 4.12219113210019 4.021010093946747 -0.09578053473643505 0.5351535257551042 0.4631207282575701
Ni 2.4437849064692534 1.7903563876882398 5.110079012853116 -1.8451239015620482 1.0611714077575272 1.4006287588254653
Ni 6.734194198849917 0.8757601085871999 12.478392443042233 -0.8440193771894303 0.86997209249945 -0.3846280340673053
Ni 4.4364215396290865 0.8157911248586885 6.082647789280664 1.224341070571898 -0.3401947434545948 -0.051355471653840586
Ni 1.5276515095188847 8.6396716934631 7.6469771810325105 0.35467956733433104 -1.5514314154340507 0.9718152884901974
Ni 2.5930238923366558 1.323697451507187 7.77088208420958 1.2932764600910307 1.6887828316337365 -0.19639628607798432
Ni 3.06059412645621 6.080217041514091 5.144540023366294 -0.18596094967727328 -1.0338048428191162 -1.129936590247383
Ni 1.7271234695065254 5.262866481305538 3.1231472907674704 0.9853362057947677 -0.36648890126443334 -0.6236244142040034
P 7.679582119417884 2.9396332735580124 12.360761547202987 0.3989277385194291 0.3106093164879941 -0.09230697436553781
P 7.055705690928266 8.780290544748967 6.3990113779023385 0.7194049489404384 -0.7957643988377844 0.32811724346477045
P 8.183316003362245 6.821316141562341 10.207501213215476 0.8752536526133635 -1.9058888394552467 -0.4122316547171868
P 3.7294775143575185 8.387651318674745 8.188885149641514 -0.9763756541673699 1.6594964239647936 -0.9068769359455995
P 5.252944492526143 5.865373903033159 5.343517278758748 0.6180839440017485 -1.2967065688185022 0.39694336109954864
P 0.8111314167262097 0.23839182112848598 9.662109854731343 0.5029820832288822 0.37654679972106764 -0.4757803260031096
P 6.282441493234347 7.941292009021733 12.950318309349479 -0.3896056897875548 -0.22261613900646177 -1.018143996353408
P 1.9282692420342702 5.080848666527762 10.31344145835795 -0.32218313736852255 -1.531953252104781 -0.37440172835360686
Ni 0.9523342426094005 6.679999868384765 9.409508295033229 -0.9603684801058363 1.397913159666515 0.05162698014767238
Ni 5.649861239536187 3.0796755894133976 13.268682103956577 1.3006578401567666 -0.037733509995031785 0.47655911315066324
Ni 4.171810374955724 3.8672322864080955 1.4239969483895092 0.31116287499861894 0.43783032912189757 0.265117245593466
Ni 2.676723818300422 3.9329294286071854 11.96763784538799 1.0356789199133776 0.1359815324353529 1.332534891371021
Ni 1.552563419490769 6.295646014384059 7.004477728242521 0.18796872413592142 -0.9290035926413097 -0.06928274555622262
Ni 1.9029016830931356 3.8690455833265416 0.9328501347467318 -0.07338545487068651 -1.089493137520356 0.060653352015998765
Ni 8.458667465167943 0.10067889439141241 4.6251429736299805 -0.6356936866637116 0.77752447879099 0.6228083460606112
Ni 0.3813781872627434 7.720674217277443 11.622080176379333 0.06113569096905599 0.6242867303783506 -0.4265503853327042
Ni 0.33777723038474006 1.3093491584550714 7.1673210904775475 -0.22597322840415277 1.375519108242031 -1.1593754643337906
Ni 6.265201224071275 5.043773718764455 7.929098284667075 -0.3882854283142345 -1.5021199707934325 0.0807848326585512
Ni 4.826382665639143 9.099588884690956 11.436181906196081 -0.18131650892672643 0.4978198223016523 -1.0810684037917704
Ni 4.008669446046901 8.002246682357194 13.295657452832067 -1.8353220849802778 -2.9518367453948 0.2915906092936462
Ni 2.093372251198438 3.9782246557341163 7.275166692228174 -0.5665472095750372 -1.3949507346040815 -0.14387199092702319
Ni 6.726708537212228 2.5248532271616337 4.372500498514218 -2.723742613992903 -0.567012836357546 -1.1594569683040032
Ni 7.902673434138107 6.902858709141084 0.17240827100586695 0.7997688920114872 0.8891229543962881 1.7494590664678706
Ni 2.8440120827252815 8.26889431895435 10.14301758510796 -1.0657772819606548 0.8319963845866253 1.1925462946588044
Ni 8.826785337529639 0.13341215840486137 12.917640839087369 0.8576750202996519 -1.0799443174896564 1.3967841882683945
Ni 9.115759773620075 7.5957799049100005 3.221002091445385 0.10036686855553681 -0.11163498527018839 -0.9033848636319409
Ni 8.391687066688107 1.1633369112066478 10.621162594897552 0.9270079023675197 1.6633451082869224 0.544347019328914
Ni 4.933869327589501 2.87985956795918 11.001465822551205 0.6465823085517575 1.2697817194032002 -0.3897414440344707
Ni 3.994367647787566 5.272184037778786 7.114419315251699 1.7392528153588305 -1.4451198992593048 -0.9462736925756671
Ni 8.863897481127172 2.7409889208818674 4.754219957555971 1.591243405224666 -0.7403776945373636 0.9072664580745342
Ni 4.905563297744627 6.800226103557027 11.325491753023135 0.8952095269100002 -1.1456414025771495 0.0785842254628066
Ni 8.093218393911858 0.0019127957749968626 8.375328338796155 1.3779030350931754 -0.3975833086763927 0.33620901933396935
P 1.1797681709753376 -0.04712898175420077 5.508361776875056 0.37130072083077986 -0.113101799623702 0.04417052386962715
P 8.922267043984029 5.383734344618174 6.100979756178228 0.009147985047855212 0.043611823152679724 -0.38602902817989
P 2.899359484051394 6.995857593660984 3.007285056845602 0.8452522211552669 0.5233058823878988 -1.0669476481196722
P 4.201641434003803 5.4460745627785 12.799655652927134 -1.8907473558281183 -0.8038618311339382 1.2228881401754552
P 5.459409269347997 2.0462544281945045 1.6395654056378186 -0.5630638790121271 -0.04023673603285973 0.19720027003651844
P 9.317184514904502 9.185278787785736 1.7102012247260718 -1.8062495930943538 -0.03570696648330625 -0.4868337556037938
P 8.22742096379399 3.1308291604306935 8.04785900397089 -0.6520014226847998 -1.545841580051099 -0.3728169003649902
P 6.874441091793536 6.702038400162803 2.6861985271732673 1.6118042600951532 -0.9655975897152598 -1.8250317587978633
Ni 3.124031621726159 6.262588216717 8.821530496049569 0.3162950540188617 -0.21964188686948624 1.1861864138790474
Ni 6.556537595634968 4.3502666886065 1.9203800055952456 -0.33928405871486733 0.2273269142185698 -0.026585978018644537
Ni 4.127463641601518 1.5359275826338443 12.798771321968445 -1.9575273895671448 -0.05922458998927221 -0.16973780295019156
Ni 0.3553150662216097 3.3612945492859305 11.412487229899195 -0.2830391201792093 0.5974454418157904 0.2501218006258982
Ni 6.785598841748228 4.2855645349729174 5.867296927662569 0.6807980352015177 0.1735227239139205 -0.5572038206869243
Ni 3.0015364406661997 1.6834183642926932 1.3756005185841071 0.9773696426495231 -0.4313331514333281 -0.18885035540992637
Ni 7.061852302533871 9.212050489468847 2.4437105148008045 0.4963062138706033 -1.2898671772991657 -0.8711085200967383
Ni 5.247644086149147 7.348139339601583 9.152919341906243 -0.22378059162820815 -1.4130518150801665 1.0207364396709324
Ni 5.594578930919968 2.417273575625714 8.484956550901991 0.566500929718134 1.6112265332148121 -0.6270036150888815
Ni 3.1980978266257702 8.296726101912862 4.729762766657482 -0.7021842141867778 1.8301770504442287 0.9768819043798272
Ni 4.165050032085414 1.7380869416442077 3.747749038024468 1.3680562242060825 0.011966171222940681 -1.6651875608122997
Ni 8.768313486128665 5.171420522864512 3.085474419969003 -1.0815761966661244 0.09067355252717288 -0.37418601279837493
Ni 8.525062029258745 5.517862522831859 12.060512123863237 -0.7160098072159604 -1.1612297439337098 -1.8290251962279724
Ni 5.362644306612862 7.488730294011781 3.930599109593018 -0.5409359367648361 0.9879083373973181 0.011536025664057552
Ni 7.852449758976424 1.7538486763968557 0.8444179687737485 -0.5564777411541771 0.09622584980396977 1.4046018845406003
Ni 9.046631315713771 3.7616054161689636 0.38408418420257856 -1.9131483492311376 -0.8025806504286694 -0.24342356267011622
Ni 2.0037953834271947 8.749762063809177 1.036197830243755 -0.3768815573526671 -0.5287005710409088 -0.6421289007660941
Ni 7.472512910289882 3.7309467498093882 10.195892393353997 -0.4790294290680266 0.07339831038649296 -0.29281316884683767
Ni 3.8535535183720215 8.92248092003082 2.4779939152055612 0.6881179659016988 -0.6350917914136547 -0.06543149013093247
Ni 7.310580845993356 1.6046933811564588 6.499983189488269 -0.3668390855150005 1.008425226403747 0.8622076180626829
Ni 9.120158181017125 7.6450643852575135 6.359447098933552 -1.4895033104706863 0.4161523299278317 -0.33786712376268263
Ni 5.08956179069486 7.722134153770756 6.600043703135698 0.10638762082832001 -1.0068406555254465 -0.7241054397399014
Ni 5.8172610914637195 0.07571305045990254 8.245597638083668 -0.6482576393716513 0.7627275229874736 -0.40242649570130695
Ni 3.8317846563921103 1.2955866997919925 9.694527884049739 0.9462202136299124 -1.6128172747407 -0.6046756410156425
P 6.1615178361703755 1.1377647751772781 10.315129219335887 -0.7469255229582104 0.9811517353997746 -1.4774088411999977
P 4.175622947963739 2.8781206627091827 6.627372412436321 -1.070498084475092 0.6713260911553406 0.5776227506629084
P 2.4341046906123176 9.227235688791014 12.548714887227144 -0.6572942956526228 0.36863577240410705 -1.2232228978070545
P 2.3492330958704786 3.0478452542757495 2.989483130585738 0.8985015673977107 0.7474410291420481 1.3229724444935667
P 5.966686056502245 0.5209416067524878 4.11222357842387 -0.838130265398505 -0.368289701918598 1.1800512475155869
P 0.4953945779112195 5.663168049230015 0.12038803705113943 1.3277408124164876 1.7298844867700531 0.5601328214082612
P 5.482405593857317 4.8667680426484345 9.817726066376544 -1.4677350655556594 -0.09735893496714845 1.4619166591016692
P 8.092093219926566 3.195057067177914 2.8639992642458374 1.0285302246837382 -1.00470792545316 -1.5993246395709038
