# total energy = -340870.7628459295 ev
CRYSTAL
PRIMVEC
9.22718357425930 0.00000000000000 0.00000000000000
0.00000000000000 9.22718357425930 0.00000000000000
0.00000000000000 0.00000000000000 13.50491585893785
PRIMCOORD
 96 1
Ni 0.9511473132364269 6.643055473663295 7.972910392745972 -0.3520665551915163 0.2173824014113482 0.3251859287505883
Ni 8.931609233045123 7.650331744771853 2.3090030436882922 1.0942154826966897 -0.1894892745455059 -0.20771248242175194
Ni 4.1848783980619375 7.332805902540094 4.675037463805332 0.9560338572862245 -0.32061836398456395 -0.21741376886991587
Ni 6.260238080239163 1.7554347722080428 5.911628624595625 0.28779411836569146 0.45379070910589586 0.8503322067813354
Ni 5.258959478474166 4.026493791473882 6.827126713972283 -0.29245167174236086 -0.0021795241498220527 0.3469940257646153
Ni 7.609206187442231 9.132208204628247 0.42376763426524905 1.4709769695317247 -1.5680476838344932 2.3020467285390227
Ni 8.157734571237167 0.537525890063763 3.4466704917626014 1.9154330315002561 0.40786823554216856 -1.4198984056883546
Ni 6.707378170577091 2.3179792478997028 3.7164714949501 -0.4945933449445546 1.242768166928834 -1.5000283783717263
Ni 4.235858587482211 2.3145559627820695 2.565245623285899 -1.540503198557321 2.132958900468004 -1.46372568728595
Ni 2.160065227675527 6.76730872809468 3.683857091778172 -1.2305510560373518 0.18667288814263333 -1.003668428445052
Ni 4.4665381776191975 1.3782644151504648 10.744592103963821 0.5341880765180413 0.49757248217753663 2.6116057493856313
Ni 5.38468908228243 4.983574183768633 12.802863042103699 -0.3099547136231307 0.8167826529606642 0.6282428868126213
Ni -0.12752890461133143 1.688620735720766 12.811695302250865 0.605474482767854 0.28379219629514996 -0.06598067776618313
Ni 3.227244374750858 8.59302695782566 10.534050842045792 0.9961129846952974 -1.2683822679525123 -1.0029744877018212
Ni 3.4886412591104854 4.957082939637301 4.72073785876655 0.9148100747497471 -1.3787697539688446 -0.6329973707784712
Ni 2.043581261839955 7.338997342739371 12.034203584469559 -0.7725645636825533 1.3476658334751888 1.5561938698197004
Ni 1.6079013335400318 2.096942064630442 3.1750194382622055 -0.46936876604981104 -0.22243359068201046 -0.34258124140890034
Ni 8.780615600525056 2.7754999197937957 5.21987958774988 -0.210851799381682 0.4962658475509711 -0.9923956837447103
Ni 0.41739903214074714 3.546329611011943 1.2494289413405977 -0.9462299838219252 0.6356648903083053 0.2679966240237901
Ni 7.192294350595853 2.6301348692730726 9.7430403775641 -0.7741841015638473 1.8515822555928823 -0.41203805064914195
Ni 9.369374504839884 3.5736051657497403 10.178520075979785 1.0103116447931828 0.43243718313078433 1.0780339878408207
Ni 8.663116644492883 6.1027854191952615 4.5315344589361946 1.3019053394106224 0.1861437551120407 -0.8680021132572728
Ni 3.850429901097729 4.2199232413955485 11.051315682348642 -0.04282455136469399 -0.24283169472238825 -0.5334820515899522
Ni 1.9078032550853248 0.4656387480301937 0.37479066640572467 0.6403556109157552 0.7432866406540425 -0.5095553655710257
P 1.6150800823850948 3.584087246325565 4.728746131417746 0.526967390399886 0.0596346809434973 1.4936628411650146
P 6.820918664842516 0.6947506396726089 10.150740717017129 -0.22407755404333665 -2.5503124497927883 -0.00764826057387715
P 0.7085766515870592 5.582095448338057 2.4529923211334386 -0.4333604662760021 -0.05354399466472714 -0.004805391808443337
P 8.875286504317277 7.345723959587765 13.441767075722504 0.1437362366801073 0.37476014013429004 0.012030705912288957
P 8.220922324567491 0.7675697272503316 5.706232440256014 0.32959357089998076 -0.23011373293508755 -0.15289167792713024
P 2.7294839551532695 2.6051107473350124 10.047671230707204 -0.4657543092256753 -0.20132277684532426 0.8568885198426146
P 8.310379869622615 7.187726894711141 6.393267308997721 0.9730663872884789 0.20695374987885645 0.2875465211312596
P 4.663021825314276 0.3399875752825773 13.356091753227266 -0.4273302009215221 -0.49464913788315457 -0.43712276153191165
Ni 4.511354608391011 7.315901702174856 9.275837621912778 2.8498709077832594 -1.7693681466869722 -1.769551466342372
Ni 6.0710900435104405 7.8664416119957865 7.377803186110575 -0.9506934189099177 0.8175287870980695 -0.23583700857210996
Ni 1.3222185019307828 1.4175168542081746 5.9254435638897505 1.4946825406787807 0.8720279465872143 -0.8874188272209879
Ni 6.4234485038528835 6.4974966522868565 5.035848024330394 -0.9568836068810295 0.4968338042392991 -0.8090035232358775
Ni 4.559216009752633 6.4806847237576735 2.29414727808347 -0.9660691300350396 -1.0904035651497674 1.857030680301963
Ni 8.979129228613342 1.2474875419100049 9.953973794785362 1.3766442229854097 -1.8278939108370071 0.6004646882580884
Ni 6.105488983991667 4.684604207767493 9.325955069665941 -0.40928182806024355 2.1414689948215444 -0.5626003091121472
Ni 3.934784813619022 8.810197951164225 1.924585656626971 0.4549502766316358 1.066043648248164 0.1728660641665281
Ni 8.346264386664323 8.078915968879162 9.547448998523672 -0.7505708330202815 1.2628703369953478 -1.0954820081139391
Ni 0.2815056855910486 9.157195417831884 7.3131012519505925 -0.6385447829592616 -2.280933343599175 0.6367105579640002
Ni 5.956313106641882 1.2638012025244925 1.3216879388734675 -0.2538416726796467 0.48109479623748763 1.093026604594911
Ni 5.222567466334156 7.318116226240171 0.3028140206911823 -1.707428728869698 1.2968042707386314 0.004016063137928567
Ni 9.044116282746735 4.726098852441334 6.601081015441968 0.6039091951632632 0.2911594352934986 0.0020972488486609045
Ni 2.7059454097756914 8.157817615889616 8.159116803341268 -0.10464672687781332 0.40441601532751004 -0.9427687647462022
Ni 6.903871045455777 5.809388662091832 7.21252956424267 -0.3834900638081202 -0.9882878322239237 0.32618737343190923
Ni 6.971460165365913 4.2921813162100575 5.208765445097079 0.05208335095880062 -0.984241430068692 -0.47647812340108264
Ni 2.833262089164097 0.3046742209060469 4.2627050781823534 0.9151456037122949 0.4807021887847592 -1.2089579032476083
Ni 2.3402444419397246 7.144479085152259 1.106301482844203 -0.48502858407425503 1.2054822859941818 2.120775985248567
Ni 1.9564305126862014 1.2749015044018843 8.37343936510082 1.687016226651617 0.288127076225078 1.062536406425854
Ni 2.0970989267517357 3.293486325854595 12.471519492422734 -0.34725267874264065 -0.6533602507055393 0.07428894052156237
Ni 4.304481151956162 2.903665500073905 0.1255708962502487 0.1714380734707499 -0.7201063458828373 -0.3191461503144116
Ni 4.108228183851219 2.5249634305378175 4.996413809755658 -0.7316220598319206 0.48141181325727417 0.4324222707324489
Ni 4.608775212897663 0.03883721579546299 5.942932767695575 -0.4758785421438707 1.023802480190766 1.271826774857687
Ni 6.877130667367097 6.922242368014286 12.40765538653413 1.6026087096388142 -1.2463327443516405 -0.5783087209863395
P 9.338555711597584 4.07656971690082 12.470723186477581 -2.156806396509563 -0.9900919753121981 -1.441881594827665
P 6.684974568782987 6.69915674998461 10.243127892866992 -0.8415130658278087 -0.08821454946371904 -0.24556014939714485
P 2.6303563216796038 8.272428463453277 5.928184960138937 -1.4017875550202568 -0.5535500259844208 1.3215310840613497
P 1.6989367269916922 9.135474627624586 2.461095633775771 -0.9994286793320916 -1.1844946279989212 0.27576109846055735
P 4.434012355409882 6.161950120473596 6.610710504252647 1.454340389416308 0.09289858520294969 0.3884661768664729
P 7.373396283220598 3.7276714504104307 7.723690622590496 -0.450016072554812 -0.658300368319634 -0.40409411321171695
P 8.053430487760828 1.8462025773351443 1.490618293604225 0.40974051286421687 0.10986478074364306 0.5331966591390495
P 1.1750633777905963 8.559624553173824 9.762514348563466 0.11131205471313088 0.06342962920955528 -0.33613548578355656
Ni 6.50226710621089 8.75411512921012 4.531844492305338 -0.45324023591906454 0.2515500484319926 1.5131060374912908
Ni 0.6609219391382002 8.45857766551022 4.878974830416918 -0.6280456832001505 -0.47531984142692335 -0.17164967526092373
Ni 4.3328731959102225 6.586474383794495 11.446443061420846 -0.325493175578362 -0.7174550243029192 0.9940985253684299
Ni 2.4770005301565354 6.284671662426473 10.11049543300347 -1.0385007056328888 -0.6645093253438233 -1.410665831346493
Ni 8.242892248732137 8.67624692676348 11.775071050966716 1.2285520233294518 0.7031740889038729 -0.5625805116178053
Ni 3.4638478167625624 5.089280799153005 8.27667665878524 0.34332274756061515 1.49675664959899 1.2371189390628565
Ni 2.6503885372871 3.541476112435461 6.934504372307607 -1.8391774541706263 -1.4683696138158648 -1.4337641079268535
Ni 2.9080022763684803 4.477444708640874 2.411410940933706 -0.7077673647015101 0.3006586330331854 -0.16560886838348252
Ni 7.358734288471492 4.670643478972403 11.264005032610028 1.3066431112059236 0.13422881141030432 0.6090444595072996
Ni 5.526741573888786 8.47553722897709 11.289812542436191 0.6922440722549305 1.260329572851365 0.009445204573299863
Ni 0.18343917823201303 6.054038208207515 11.133209705002356 -0.1770461636861467 0.22816535095946514 0.826047623202358
Ni 6.573362555891108 1.146163838738235 12.458703857113084 -0.9104289149629158 2.026759227280774 -1.9523545871169534
Ni 4.8041700529272955 2.8681685247436253 9.079138980839693 -0.9552517277045612 0.8326826120203723 -0.2530669992971513
Ni 7.578904116481836 4.631224950609794 2.7327872868840313 2.0302150470398583 0.2934531164236817 0.5413257160040871
Ni 8.375726783916619 5.897323721852052 9.094467178245115 -0.8109701600439453 -2.807644137903565 -0.33688239125191016
Ni 5.738560800736172 4.528960074710265 1.5271357954412703 -2.8358203432274647 -2.739204714184244 0.7132880374094233
Ni 2.263769544217511 6.019196362913224 6.162509287800089 -1.1455614412688335 1.325200562493137 0.40525676606125044
Ni 2.004171960660952 0.859649637886132 11.265057854259412 -2.3748950799593165 2.8395085907123288 1.307225208961639
Ni 7.218065874405957 0.6674068037761312 7.845343656681858 0.035676370355686944 0.2486634709128169 1.17523814239766
Ni 4.601245831075592 0.477105369096723 8.619350267215372 0.6104986754553228 -0.8843556149146319 -0.7540459360530756
Ni 1.0105334669212926 5.695266855259262 13.393378802177008 0.1514030091967457 -0.47341876774946845 1.328655610921273
Ni 7.391887559165979 3.341061684524447 -0.032784183350268475 -0.44338725438438475 0.5028229319431986 0.18845106308897866
Ni 6.457459902622681 7.871092112532949 2.437285809200191 0.2147483062226108 -0.18125788777464913 -0.8353056514655162
Ni 9.253942437935336 2.31522954718527 7.846153803402419 -1.3394113067758804 1.9344823348222233 -0.5431064620535937
P 5.008487579503427 0.914671333725606 3.750166401322229 0.6558557634338834 -2.4923857526793336 1.100008178119067
P 6.937328813209245 6.038638038769969 0.9518614972474909 0.6724028691592872 1.5177805601488248 0.40563626088785626
P 1.020508052398816 4.384453152264852 8.395438816253005 1.0121813510120696 0.8660879269536955 -0.4344066481523293
P 5.329584341790507 4.597222779023602 3.710975784394676 0.8758318937143368 -0.32964473585289034 -0.3451767700502184
P 4.234262284718463 2.084171642520459 7.2495739382635875 -0.070295245981137 -1.161869691510554 -2.029840180198943
P 3.1923010304369077 5.844867183054901 13.277938430807216 2.098358279674999 -1.0886374743882798 -1.4657779418292887
P 2.340281350674146 2.708935017263867 1.1974512933725714 1.641697962330792 -1.1390362385558062 -0.9017385862777696
P 5.818154486517038 3.2830411540131923 11.680172235739443 -0.4016060566825406 -1.830871762518408 -0.4597939778771823
