# total energy = -340865.2116794024 ev
CRYSTAL
PRIMVEC
9.32290413856377 0.00000000000000 0.00000000000000
0.00000000000000 9.32290413856377 0.00000000000000
0.00000000000000 0.00000000000000 13.64501258037731
PRIMCOORD
 96 1
Ni 5.4557822737634725 2.6170045124953827 10.699668915917291 -0.993440580069457 0.6209252701052854 -1.0929003634296919
Ni 0.8378223778704267 6.563324665208739 4.452326380268759 -0.6933763860871607 -0.7049638338144439 0.3826981640344442
Ni 6.404825968286561 2.999215622295898 6.137021811556465 0.41737103282628113 1.2508175195958717 1.714500548114815
Ni 1.1845309356005136 4.301065986287018 3.228450923713538 1.6568430455023466 -2.4654254220404055 1.9428708159962345
Ni 7.944755340765516 5.748866417939847 -0.0025479497599453812 -0.14995933477168366 -0.2336554275397589 0.7900596351435232
Ni 2.8292777217313745 6.623951512222734 11.150527367347538 -0.09114046486126239 1.3188507090157093 0.7295011568341758
Ni 0.2880954580565539 6.232025936085361 8.648440703081175 -0.03807880914959248 0.250925013253484 0.32608427219514163
Ni 4.656156767321777 6.99314784754508 9.895363311489891 0.600481914649269 -0.16503268416503836 -0.5988209820070785
Ni 7.960790736254378 0.8717176612302269 3.1904498332762405 0.3528674538262568 -0.5912354563503366 -1.838549333668324
Ni 6.962913668725092 8.35650141155947 13.667117673917403 0.5207954572612192 -0.5597924073497069 0.2543767192475103
Ni 4.700272750724856 3.359228896829564 8.409735195420751 -0.5341171140707898 0.30176472161317064 0.11296733092836674
Ni 0.8118776673437087 8.646835298951416 7.027727432084463 0.017337205726866915 -0.07828186373103938 1.291141158915583
Ni 3.613250071762721 4.6713437785144265 6.348465282304952 -0.6834948653073907 -1.9662282597752523 0.09005623065814813
Ni 6.349121614771472 3.975612718193592 12.743623398776425 1.262193365532981 -0.00013729690881266677 0.5868280713112604
Ni 2.6329746476537674 5.237048291810167 9.127585778611861 0.7105829797734343 -0.5071490701223782 -1.3292551921784848
Ni 6.882242577350018 2.1665217741106013 8.792382617145034 0.28545749981271484 -1.1098670731910174 -1.1982271470936654
Ni 8.79695270485936 5.643685411018135 2.713843384601145 -2.2790214712884427 0.8181792761978748 -0.741856078855103
Ni 3.904982394807766 0.5012049318130979 11.242412980370025 -1.884778796949509 -0.13539326403205068 -0.2757202179202929
Ni 3.582698914194697 1.6115106321088875 7.18935303112697 -0.25836655713319373 0.7824573973162331 -1.2638036474428944
Ni 6.927225590858019 7.338337704155902 5.337001013970161 1.3356207293851965 -0.6843402440268215 1.4047515227445873
Ni 2.326763854146976 0.6394374992505739 8.966806699284696 -0.2815859326724505 -1.9895260539609283 0.6157447543456105
Ni 8.366150617565848 1.7170179406829886 13.546290968908826 0.044884776327832374 -0.903792897703637 1.0580506027403584
Ni 7.8272401313834745 8.847557429692815 8.57392552545104 1.171497444408305 1.8529223145605445 -0.16084538555656816
Ni -0.015761302100854965 3.36992226812359 9.005926538244474 -0.20317062868734043 2.762459828057443 1.6250899214604657
P 8.833228125700732 1.233849099633119 9.747505777597357 0.6702040617357554 -0.8991692828886967 0.37392787404098177
P 0.8907289277888827 5.847362902439747 0.15438822839250463 0.18525389630791966 -1.2329738065462312 0.14148317897987248
P 4.708821854017465 2.731806756710412 4.965884160350893 -1.8042672725570021 -1.2428854092329886 2.1564045330854538
P 5.62065783726378 5.880496504513827 0.4639207727206224 0.4225284086575045 0.20545788205962034 -1.6776597251373817
P 5.203084951248582 8.80833597107558 5.732460903148131 0.8730106222154578 -0.3759227929838236 0.3010972632325008
P 1.9531857537782553 3.4723250495478126 7.2069686589038335 0.7282102059368942 -0.16292926466879037 1.2315848966185048
P 7.822504095971649 1.3992467457772502 6.904499146914298 0.4101817141666936 -0.42561964598831864 -0.8922183054921602
P -0.02171397653087738 0.2976057527880588 1.562258660697195 0.6095561090363953 1.5105182221594566 -1.1232954307817815
Ni 6.145761102097896 2.609313116403342 1.0430819661609114 1.3159044819031918 -0.30549976317557065 0.9859383581551407
Ni 0.7015802505125275 1.808829902761079 7.799721714601803 -0.1985668113667419 -2.5228150157034683 -2.462728591934533
Ni 4.998092930313057 0.2907935065765985 13.269475292830167 0.5829477624202476 -0.13752599410433733 1.3021179696420606
Ni 7.870712834386129 2.9308414417637376 10.824316147130132 -1.0640052776618965 -0.654597208436434 0.6942371914255592
Ni 3.8116507993199753 1.087479501275481 1.6981623666270445 -0.8834914671421236 1.2957717157090585 -0.1558034522572865
Ni 8.254014723996061 4.469680034433276 7.171559335876945 -1.3705795048485685 -0.7401293259719834 1.8397099296353283
Ni 1.87470554492637 1.4182561477550353 0.09381079277158583 -0.4064646703264226 -0.4991418835471855 0.43809515274751004
Ni 8.783602305824445 2.2950473335347032 4.919709679666453 -1.318116659063162 0.42836506994393964 1.3105113359120786
Ni 7.038569037557718 6.758919198555443 7.817541513984019 0.6491852933922433 -0.9439967236160323 -0.32288299164902456
Ni 5.317225269254478 3.597774050535098 3.302352654237179 0.7993955678324685 0.7284248930508617 -1.9596902015464184
Ni 5.335041339474952 8.50967673009552 8.028861922395032 0.21761585757839294 0.9716057435825526 -0.3793981531269337
Ni 4.1205932038024855 6.234291401843382 2.2933859919788224 -0.5263050742255387 -1.0854698752935759 0.7775301352179449
Ni 0.604846727225966 8.290616446489825 10.333368274687295 1.0847720778956027 0.8815983638844689 -2.206571126637516
Ni 5.231836788276286 7.7626044354972645 11.9414872341922 0.22112747027607724 -1.0555597179977045 0.8881119966332705
Ni 6.10931786897815 0.23545834007392813 10.418308323966059 0.7925788020209511 -0.37252585148713263 0.02877861479458915
Ni 1.693076722301943 6.082505196056075 2.107226237838356 1.047510879551299 1.4860670310956277 -0.4427174820108698
Ni 9.11519936788715 3.220690538129277 1.6566139110830538 -0.15105693871123663 -0.1124058019979419 -0.6284974260255886
Ni 7.700793579630313 4.729052556465622 4.971779032773921 -0.2120923566570025 0.33408374546085046 -2.105853816721096
Ni 6.035331300024888 0.4498040309478112 1.9119803811144918 0.26143234054271103 -0.8199721064322394 -0.25758314199994997
Ni 3.6037500322260057 1.047605439353467 4.262429073772778 1.0375545396695358 -2.3078638494414316 -0.37950665368034
Ni 3.195593279608337 7.62677904196399 3.990906942786312 -0.3441958941941879 0.38654736257720523 0.865545424186664
Ni 0.4086378144823343 7.061130466094372 12.168732095530263 -0.13012173122046622 -1.1930697712624418 0.2244889305491424
Ni 6.427872187849623 1.029565619428497 4.909134709257723 -0.2603175102119775 0.025948087324329502 0.399747406207247
Ni 2.2317448129711135 4.155190501860141 0.5233309807164217 -1.6530966910860367 -0.03529507575686825 -0.49805662090280683
P 6.815080374383877 7.442418608363843 9.847210510501537 -0.22572485983877255 -0.16520957606253484 1.4820635663631896
P 7.427287534597318 3.8424350294968495 2.7794756989627967 0.01852171295327133 0.3573362882308878 -0.025623614105375225
P 2.4773567281769715 2.9584465615559012 12.330561866178122 -0.0305534473068248 0.07548218949871516 -1.6588852727433558
P 4.4292932127717926 0.9599794613303181 9.094906201979821 0.9532148997801906 1.2503446937245113 0.29957517016101953
P 8.980697826772142 6.3077465652484666 6.482978010905186 0.41252913135294755 1.1779347153932165 -0.5318599426054968
P 8.801688740271185 4.847369535622106 10.74184573521474 -4.231208679589597 0.6203421439083059 -0.7260134553958916
P 4.289850532349169 8.289059521462708 2.0223001729161227 0.014325929704368877 1.5843780455634002 -0.5189645747000675
P 4.6841348032881 4.815121609461656 10.372297926398248 -0.4065999103527062 -0.2145246202475789 -1.4062481618947718
Ni 1.3490988432571396 4.931294320616721 10.963590082983949 3.334348504450051 -0.4634125484663761 1.120408853262606
Ni 6.568107315142336 4.533896199623556 9.238178731511063 0.7059791624528358 1.1053031079694189 0.00544276828212611
Ni 4.561911527207296 2.4824750026673117 12.858664309342917 -2.1721085740842723 -0.2982528518051702 0.9612912490304218
Ni 8.88201488418516 9.152994422138224 5.077240659116688 -0.9103366123594258 0.07595090160501758 0.7001157616935233
Ni 0.6303840268324145 4.154668419216318 5.665000367242661 0.6098895811164142 1.8619561426280384 -0.10356043579217004
Ni 6.947102022940725 5.759214841772775 11.50779411425852 0.009596642549499601 1.7315029962100825 -1.6456415203595722
Ni 2.2188698820582533 8.27090782668549 1.4263810588995371 0.8162977429044458 1.6210270642450018 -2.1014567160946647
Ni 4.41117880961199 4.189750508300381 1.1775797781141788 0.8960646758214439 -0.31585282427512057 -0.8662506777838048
Ni 1.0550917315497208 8.510124229504513 3.21896766540466 -1.4045730881851939 0.7413531710767555 1.409782143189959
Ni 4.157521227948639 4.746682168599017 12.392495784382547 -1.0206539072594552 0.726624349507013 0.2124641381741244
Ni 0.2857600705158795 3.2414153545081965 12.309766195726112 0.4990038153074245 0.6969003400800191 1.3054940852031451
Ni 1.274543577138284 1.2370748245395995 11.211070308222347 -0.24389278899705094 -0.9231736162230939 0.5496146954857567
Ni 6.404098781746949 6.347424846179046 2.4390321329585904 1.5033828966662561 -0.18959546110606704 0.38564002027158745
Ni 4.241893512352245 6.324546438894355 7.785639467575102 0.022630335805006188 1.1328146831261265 -0.5838713026757815
Ni 2.3496888759534365 2.831375375211022 9.873217684487425 0.5555290040876626 0.829060956107385 0.1886348969650106
Ni 8.64053301560812 9.13370533302982 12.115297869225373 -0.7885578537870161 0.6097515128766531 -0.08308648420853433
Ni 2.215560251012587 2.687233950993987 4.913528594079758 0.6892556790505678 0.3993969648463638 1.3008979811920305
Ni 5.293041655360229 5.487554731801869 4.884996777594808 -0.6441492736302326 0.8236318146720139 -2.6400820024484535
Ni 9.19562806374902 7.555980906299791 0.9447728720385254 -0.8515838198002494 0.6672282669368832 0.8165178293350519
Ni 3.2884214382610124 6.65245163083288 0.02457890503885841 0.16035327641149802 0.11094695806422829 -0.5516186132896629
Ni 3.33545549072689 8.59747052039704 6.464898102491493 -1.3637306002475353 0.052098006246819956 0.4758983396382127
Ni 1.9638231876461576 6.66044135986425 6.500238436026162 0.23711896060832713 -1.3242893635327775 0.7834310740834121
Ni 0.9249383930254125 1.67437497616784 3.2698632648539605 1.0528418048459094 -0.5352465996895427 -1.3657000652690803
Ni 5.589836315469491 8.236469018001852 3.7270258642083753 0.20369179129813306 0.36390262859449585 -0.5586868329903539
P 2.3025895631570807 7.53291604092802 8.733845032996767 -0.4562489408384013 -0.15123331638810084 -0.31135287952223795
P 5.849441910110687 5.290384627619342 6.814373698233845 1.022739071923258 -1.61358166371055 1.3054375209335969
P 2.9394091908650544 5.476768131464303 4.459381021993424 -0.7181260822280149 0.8044511279785048 -0.5432920957018385
P 1.6721654478359442 0.3104377983408902 5.233558728710468 0.7220796675591241 0.2667804922285018 -0.6928408252986649
P 2.2084841666079087 8.453627429119335 12.286174586258342 0.16031213876091746 0.7872195945915669 0.05460817426318337
P 8.125414581337129 7.7708831745636076 3.5296786248431222 -0.5075694454892485 -0.593657692638584 -0.7185886236867302
P 2.9465225668871486 3.1960687477303904 2.4093135107493775 -0.3232195490528369 -1.3738784873148147 0.7823468398802979
P 6.605632005167145 1.7889161790609571 12.35439960032084 -0.1725631882141286 -1.3053112797683777 0.602369361479969
