# total energy = -340856.90046384255 ev
CRYSTAL
PRIMVEC
9.33690058713568 0.00000000000000 0.00000000000000
0.00000000000000 9.33690058713568 0.00000000000000
0.00000000000000 0.00000000000000 13.66549779764579
PRIMCOORD
 96 1
Ni 8.45854097850634 1.8842332179090477 10.365334949243284 0.4274127333329994 0.012554696736559023 -0.03677268874365925
Ni 4.691120275551185 3.953449109751913 1.9892042561670902 0.507400524011552 -0.4494992808193936 -2.0658775334384742
Ni 6.646229905626173 7.418783731924979 0.2209530833488202 0.26668279030837294 0.5062360713898056 1.3912064370703008
Ni 2.6340050068366376 7.511648544914366 9.883366009614328 -0.2949788090395888 0.45279003575552346 -1.9677907191663657
Ni 4.024568281332464 6.226582909868277 3.00870509697925 0.014528789743794334 1.7741424281471636 -1.6982933422273334
Ni 0.5933077440702643 2.006341203458536 3.847479956823795 0.827583086010278 -0.04456415976362002 1.091419150898475
Ni 7.899643447767172 0.6419940783606185 0.9883034549644378 -1.0692274452927841 -0.09454871921186297 -1.3519832299036199
Ni 3.288960570557388 0.6541946063249492 9.5293340825557 0.5272247578263307 -0.9262198592485856 1.2161104551319895
Ni 8.500641063140277 7.305181662787447 3.8510466528384693 0.009018401448526404 -0.6759404499989005 0.6773100766529174
Ni 2.1352838002193892 2.033651637602308 1.5588366311839366 -0.14112810963329886 0.9177843268867226 -0.3175119571450984
Ni 5.058415269858096 0.8723270120139972 1.5163098501943162 1.0313345269017529 -0.17706904650428212 -0.7742041561685054
Ni 3.005688344407676 8.125148270139954 6.592140306980605 0.2213043621735737 0.7693553127166364 -0.05086876182540916
Ni 6.7354626642969535 8.404583030158696 2.354456336631041 -0.21996738852970502 0.22748220884951145 2.205758915148866
Ni 7.712158484482746 3.776542854804202 11.758983135684785 1.2640355609480423 -1.0784515349942136 0.7789133887187166
Ni 8.759422599115933 0.11180658315946321 4.977452204015056 1.7767646962613595 -0.25554708540652765 -0.26423407165756424
Ni 8.415974048844303 8.416571610480268 10.470052957496096 -1.43148636763627 -1.2025355446610322 0.035392263456364856
Ni 8.892426747621245 1.8155976618779808 12.653977341193086 0.5881673589479741 -0.721517367297751 1.0088132058707853
Ni 3.5019632830776874 1.353878592187833 4.687375244735779 -0.6954558943240087 0.15549800520172577 1.5195929307672151
Ni 0.8738816059575657 0.28217140557345516 11.04157211041494 1.8755814467209566 0.5877549540009038 -0.017782263684085503
Ni 0.7332352043422791 3.475623886592361 0.5448819093055891 -1.16560499018327 -0.22542249810700535 0.10682547969668699
Ni 9.146306410801865 5.095296027077891 2.4129034667688822 1.1622394161451468 0.5609728008110533 -0.4712022197141239
Ni 3.680092671999017 2.386287698026921 13.40869582003841 -0.4505326071799144 -0.013705779621866717 1.1947222192642004
Ni 0.21940315785553258 1.150380844439622 8.004702252890498 2.4545522267713276 1.4399244711012944 0.2706209490205146
Ni 5.736554357674227 4.85612198228238 13.351492365055424 -1.4542658274246307 1.0131429435943906 -0.6445837900644898
P 7.957410851544101 4.421274512409591 5.760335443405572 0.3576232233436873 1.6552409911225494 0.7980506237687998
P 5.480163068242436 5.161139849840928 6.026019749966695 -2.1191309934459763 -0.5836373322881044 0.033571665307858316
P 3.294170561070969 4.634585342648436 13.396068595718397 0.5543288131319744 -1.059311214620337 -1.0578168894629973
P 4.862480411565084 0.4157198953815297 12.66290155075022 0.12246781421963425 1.8034116094249262 -0.1810923087310623
P 3.7616971829106642 2.0685623088035268 2.784317901603736 0.9167106342065695 1.2495553650539963 0.4549214802762294
P 1.7019955927404502 8.356283243551607 3.9527721844611694 -0.43446398375282597 -0.821724570346972 1.1306536709190658
P 1.5914653638878087 0.9075467346238171 13.12996039387176 -2.035033551474424 1.4251676245070939 -0.9528246063203073
P 8.724595960019771 7.78083138811606 1.8363965415698331 0.9098563302888976 -0.057221700626630484 -1.9870549667126167
Ni 3.0144090095325593 9.282204998481387 2.5765746651699954 0.22780513940656896 0.301179538533662 0.36908674389859664
Ni 7.099256320893124 1.0417553433016233 8.708993999180715 -1.8780893007444752 0.9886447013427101 1.5573387820574212
Ni 0.762621231480978 0.2969881330752508 1.6721651291350013 -0.586589472937893 -1.2103684104418897 -0.05790330007468737
Ni 6.818365004386716 5.939715977002206 2.245022259904375 0.2854742119832632 -0.34323070206744116 -3.3883892362455383
Ni 1.0813438016843906 3.785459594840887 7.784400885200903 0.16801130717738808 -0.3931633252318261 0.4037706684340272
Ni 6.753202775364702 7.996084293671796 8.427225947711536 0.46570442982434634 0.9756040661086681 0.3916389181674997
Ni 0.3825430866146695 5.860165584214193 5.426077204357092 0.1859169838132153 -0.4953209671391986 0.045610084529631126
Ni 1.720333265444166 2.5346510479566784 9.94782610371408 -2.2605462953023907 -1.2580592887599493 0.46437979747565183
Ni 8.572413817760168 5.468650669849523 8.632904795431026 2.224650095626414 1.2069830389094245 -0.3770926449222086
Ni 7.889727659370356 6.82955061125996 6.451385597318799 0.10982595708590762 1.5066906208832502 -1.5871432670133634
Ni 7.249346997426847 3.4101068553489933 0.3121157793657601 1.432125800992482 -1.6521428118131998 2.3457266859254764
Ni 4.208757318718514 7.983292739901891 11.623722258313645 1.763380047424337 3.5893402315737406 -0.3084583315832623
Ni 5.632186483192488 3.7175896646559017 8.248261839879968 -0.9713352635299853 -1.74963313015189 0.616915377614944
Ni 6.147723447721851 0.0171472178820642 10.569893368895334 -1.3410272451127485 0.11551195172709139 0.5192612800048799
Ni 7.356852070497409 4.099282159629376 3.6963258073160636 1.042028002059857 -1.6238565632739967 -0.7378544138948776
Ni 4.190456993617046 5.879642358786469 11.761252002521346 0.3364638156572528 -2.544147715742973 -0.12749920599595463
Ni 4.643081922159832 4.4515540809320715 4.154543539295472 -1.5665201914463731 -1.2933556500683985 1.6271537459680299
Ni 1.7813218999149765 7.450286434421077 1.692403794793135 -0.8249554185794438 -1.32968122397231 0.510367834169992
Ni 0.599608284569484 7.936038686157744 13.02495480908164 -0.06483627974909478 1.3303767073774377 0.02894959315481466
Ni 6.1649967137615 4.640271515090678 10.675473173070019 -2.5692419397074397 0.4665019860249772 -0.8402048885393466
Ni 4.629207287924739 8.589575040993074 4.110062545018231 0.15532779817244863 -2.3994002641895325 -1.7184564474387696
Ni 2.7992401360818815 6.442806853082458 5.007093128539096 0.07345873131078316 0.561973988382058 -0.07977516044711422
Ni 5.85329362540058 2.5878527073588034 4.760676449977663 -0.031185167353552746 -1.4191700121627622 1.0590841862111953
Ni 5.223472997992663 7.325844223731095 6.747899415845502 -0.24122655501879744 -0.48107371319156506 -1.046003184657521
P 1.6409882844685157 5.138236432762407 3.7119044259037164 0.01645608867349424 -0.23368113857137174 -0.22211708788285614
P 9.001967265014317 2.2444134939877345 2.0268665119639224 -0.32377439311504236 1.0648352297623596 -1.5882709528599035
P 6.296656348585888 2.51578117192093 9.945871890426458 -0.6225345235739344 0.7821195543608401 1.4745921976868088
P 3.168981398336029 5.203930865116452 8.929706190495036 -2.2214524146247223 -2.4167320705997604 0.021317016310221353
P 2.323282293034724 7.1689189359860075 11.933149944007612 -2.1407277457801457 -0.5421808649155307 1.2098014821948262
P 6.238198014167373 2.497574215825082 2.632986350985327 -0.8743090293119071 0.8594876480283584 -1.6987160315870484
P 4.825524959140793 7.882967743363487 1.7115491093954616 -0.9656595533014466 0.018092338725336585 0.5679561741074218
P 7.188227646348169 0.3222771282473558 12.495225755698076 0.49535953368661784 -1.0381461505069474 0.3694736949243701
Ni 3.0629608924548206 9.107287503353378 0.23201824420481487 1.3304543546929086 -0.6139706931643233 -0.1729462825851602
Ni 1.0083292392897585 5.779233330143007 10.338045056280748 3.1438359308463535 0.04635236201229436 -2.180388554704877
Ni 1.9776769187332777 6.283874131716547 7.636498778158907 -1.3185971982440066 -0.09406997980323153 -0.5209144993375867
Ni 3.447407773094077 1.0100192182914756 7.277123342908661 -0.4774973086942163 0.6398825279340786 -1.0233335109741473
Ni 3.4864920388464977 2.9066331663457 8.691734738491908 0.28989908052383623 0.91671526219226 -0.28140261301705083
Ni 1.055200480110865 5.680318205589461 13.527900029513125 0.3014194224586099 0.5226582215015708 0.13750156862430513
Ni 7.8571885609118794 9.500949904847301 7.1052795554456525 -0.38582976768489036 -2.3960645149480797 -4.842399753126253
Ni 2.4743440072268923 4.874917163113633 1.650176728311554 -1.0219628558788656 0.09580753131962855 1.147189978011192
Ni 0.7086184660106362 3.9971177936802627 11.908661121213669 1.1740083837556168 -1.3296675971255552 -0.4774787967514551
Ni 8.308870462497906 2.3589959376842726 5.8700141469269616 0.3403045295595817 -0.511405531405887 -0.07377189167582779
Ni 4.59254127941787 2.472271215302134 11.397735651871864 1.2192880815290226 -0.8192617106287761 -1.90217616649035
Ni 7.985785692351938 3.180708545441868 8.179688841082665 0.024083780422081105 0.25320301065438333 -0.5498414667845821
Ni 8.791681590557552 5.987782341095245 11.686665106072077 -2.0535228685278635 1.1819008991298163 1.5027313791251862
Ni 6.5721135889652285 5.6064539852436885 7.727715628199106 -0.4940739821059749 -0.656371012507405 -0.6930192598580581
Ni 6.355824287447114 5.952619573578853 4.285158374946974 -0.09593145849200252 3.4126833329062127 2.906104790575324
Ni 3.7998384217063257 6.830895124940883 0.17296701660061395 -0.06700114861089751 -0.9278615086170665 0.8517720245516556
Ni 2.0744165454558843 4.180485183816859 5.6865141728023865 -0.10397798294556286 -0.6169889111653568 -0.6984301464609842
Ni 0.5294582832672652 8.235258338467307 6.693115151798123 0.8160298339550397 -0.5638159266868031 0.1817829070401837
Ni 4.803956718842635 6.212110713997218 9.473825275024712 0.7644946421902253 0.8557947725578036 0.24427614047839866
Ni 4.089301012928626 3.3493423064916703 6.400098936221935 0.7089881244824886 -0.3278063970925709 -0.16802004892813643
Ni 7.542170872851457 1.078430688709055 3.29383630003085 0.6209095863760017 -0.01470850985476822 0.8710159603829322
Ni 5.339455976773496 9.520183920004966 5.898329231571203 -0.25201670365576595 0.39680323597725853 1.4219159503390157
Ni 3.020197887880983 4.105015016574428 10.868799301346014 -0.2741240770777666 0.5127635880956781 0.4494139201944389
Ni 6.6920647504849 7.026661919023781 11.809285687462419 -0.9186204496347727 -0.27604032026387293 -2.469842577271495
P 5.860034867606324 1.8658675345036457 6.8938473095998765 0.5590277612695405 1.7080959301400518 1.3140149781899628
P 4.665406451403511 8.189862327934993 8.733660223085336 -2.2373158640195405 2.4757846537875423 -0.2532770584254283
P 6.857804072360492 8.488232322293415 4.8701786860784315 0.1224837550592342 -1.0874323983365854 -0.6120122838863719
P 0.3965960556504957 8.479754416583143 8.813972506959207 1.209011382193363 -0.44040528893792547 0.39645819393301396
P 7.878887517817906 5.459948678525763 13.587700076542395 0.05767087234890713 0.15712551350281972 0.6697556613444272
P 1.558394062097299 1.8869409190720199 5.87190020084048 -0.018439437652110178 0.5578566237795748 1.2047677764256606
P 6.927466687453374 6.363312481697816 9.629351895065614 2.1136663707869787 -0.011744285020121708 3.55821137137942
P -0.15264245145731017 3.895448283460934 9.890280918170525 1.12181653224341 -0.553908180654788 0.1838125358757028
