# total energy = -340860.83054550976 ev
CRYSTAL
PRIMVEC
9.36873066139866 0.00000000000000 0.00000000000000

0.00000000000000 9.36873066139866 0.00000000000000

0.00000000000000 0.00000000000000 13.71208432876501

PRIMCOORD
 96 1
Ni 0.44611084360196845 2.451384566300201 8.030084187775858 -1.3105280480826267 -3.3853010842385185 -1.6695442951190989
Ni 3.825908503302095 2.4679672194109696 1.4487917379847688 -2.4139087422183523 -1.901322303130487 -0.07717783203358322
Ni 6.052190580171536 8.83969709316951 12.57422768284681 -1.0697102984664737 -1.2697557512612714 -1.0475828704398154
Ni 3.1811805715937416 7.809680116726483 8.600163948040151 -1.9159233408731131 1.4696353679021656 1.2773536182131873
Ni 7.618117682740102 8.470006984835644 10.827239556388962 -1.5043020660464157 -0.1912571650792061 -0.4853216898346415
Ni 2.8920896523626705 2.4636201284259998 10.89411355520516 0.3115102310357087 0.11139330157302753 2.034115410535529
Ni 0.4412447249433621 5.09476252819305 0.45868274315526836 -1.2647870944020865 -0.7367321273649764 0.2997867719511934
Ni 4.2111225981922 9.28494601355894 3.6198526431222917 0.4889441170785773 0.6880189784299893 -1.4169606632162692
Ni 4.923296021281586 5.134204883897196 5.746364297521387 -0.4282401143303012 0.4058805156881784 -1.003235968893324
Ni 1.1169119524895705 3.438867505950634 9.683267899391009 0.7106308022922342 2.425286645037991 1.9765077873243895
Ni 5.161805164159526 4.558337121886103 12.119521965818956 -0.8334408303426356 2.3192384098269603 -1.4968093572137962
Ni 7.236210749741581 8.055562450563844 1.161688863380875 -0.24750004673233503 0.5744271265437462 -1.9252320198685486
Ni 0.5285013339899483 7.615391382143925 9.335666447124522 0.7775771864057963 -0.301369543057281 -2.485418320222565
Ni 1.7277625544529858 0.9520316631695578 2.742581576163646 0.9562138345075146 -1.2905521191813323 -1.013367658010687
Ni 7.760157006927881 3.011053793153938 12.974456105350091 0.799340546224817 1.897935646046441 2.61249175153501
Ni 8.890222657139214 7.00259208422173 2.2282139091131925 1.2691348298478209 -1.0741107415270148 0.7370077496238662
Ni 0.30389632415251133 8.285564786083267 11.400226433749454 1.2024614968899872 0.03474408834940468 2.949835141583739
Ni 1.953595804868288 7.95499849661413 1.8652552336946309 0.9344918694493906 -0.11892894782844032 3.2213408072020524
Ni 4.142693390101208 6.9590368557968905 12.556553572624514 -1.1210482866188176 0.09276051696318863 3.2684794125610677
Ni 1.7608154359076709 5.6290612326603675 2.7402778053162233 0.35851411058907284 0.2601755853174745 -0.12257554344209211
Ni 1.5188211252572974 6.4521323195193405 12.476940910850852 -1.100240605844847 -0.5240538162975169 -1.2935795931537464
Ni 6.697452529522439 6.570056531217221 12.399289124385714 0.6211412427708335 0.0999421223132924 -0.6311981127862033
Ni 3.510950518964338 4.183644111427293 7.94742762543966 -1.5866532147508223 1.0725192286701786 -0.33381326540828316
Ni 1.1375606346681777 3.9271751120446385 6.491080943122392 1.725381456693377 1.3209641558142862 0.5082122212795698
P 4.697228552602006 3.113810030057279 13.41060986210114 -0.6309168341003586 -1.1965911541521392 -0.3507529785864153
P 2.3437003771164844 6.176166991818319 0.6449050007161464 1.8276398858446719 -0.13378863854909218 1.4831750542598134
P 3.828775334856838 0.2317805205818086 1.1977809610328107 -0.9275020683951188 -0.7742825748149246 -0.05328894123112758
P 8.31176912549051 3.5347658320759625 6.907311157441034 -1.3944694240922888 0.38276089895157955 0.2360028447260129
P 1.3095330530304798 0.8487133024319534 12.214779470773223 0.16083561536455526 -0.7159563282702056 -1.0897587324769167
P 9.329428746310315 0.1724633398442253 6.029505135966781 -0.7469820872277587 0.6053397569622027 -0.5663230093793731
P 8.773478905493286 7.610004362065569 -0.4382832692098512 -0.28456198458163895 -0.12317332492709111 0.23375801455589418
P 4.5897411067602825 4.827856762954239 9.75773806495422 0.28700273281264765 -1.0689893611400492 -0.20769679869246807
Ni 6.811179549924487 1.578659207414631 7.108042768037307 0.00851060857417244 0.17472831418624749 -1.3847339419720799
Ni 6.665448945891713 3.594257271202167 4.386934322342522 0.19870693648903198 -0.30905174219288706 -0.3213840385059949
Ni 5.009450867613015 7.7611219861767 1.0476686017119534 -0.87126381472768 0.21670028774265906 0.39251515012486593
Ni 6.832455937051355 7.828548740096589 3.5312591162232163 -0.3217722750833491 -0.5617469599729165 0.8755650132061952
Ni 7.31261274754854 2.8338255169412734 8.761445707947821 1.4740782341648677 0.9051380988776219 2.3200344233656947
Ni 4.6271129730082246 3.801933921770763 3.0615521878049865 -1.1379170373496983 3.998304528393565 2.460613345363743
Ni 4.863457939124252 2.8910309858081407 5.953266154071757 0.6756298607370171 -0.27286809318347843 0.6600489755796246
Ni 5.477184741372981 0.6631431085188209 5.492854880126128 -1.5933555664716623 -0.4389826975587859 -0.7707419086515177
Ni 6.159350120443274 4.784704389943955 7.867417729489786 0.7983468148529799 -0.9663822904000842 0.6208087991320792
Ni 0.9036571597389678 1.7737068091734438 4.787410079332876 -0.5516006155675339 0.26261864754132835 0.7734099424019841
Ni 4.827847394223667 6.724115936727665 10.603705392455796 1.9658667626707758 0.9467755719127501 -2.6231520594623343
Ni 6.022220011074729 2.284621162135406 11.626092474721753 -3.1367227168403398 -3.1240726321764973 0.2041139664372162
Ni 2.5473859484618107 5.8752433658760035 10.431550283847358 0.5058025833968127 -0.586679718658854 0.1800949778147995
Ni 1.4385498417244902 2.1249124120906164 0.1903651102193989 0.5525385540007709 -0.3288993730464336 0.6960629317803882
Ni 0.8728780691938778 8.367906559072276 4.2856293018046365 -1.3945321590094242 0.48636812882128494 0.5791998653420412
Ni 3.5125994155448437 0.671840101107932 12.61229283515701 1.2202841268937048 0.916631701339518 0.4664881020679063
Ni 3.2272653572727656 2.3611636909009324 4.292815118152637 -0.1139500065566102 -0.5685369863115565 0.06300925384268502
Ni 2.626448665750951 6.109414786499546 6.46443908399748 0.7564296057939037 -0.0703590093395369 0.16255336938661039
Ni 1.9319821434408622 8.426564181177657 13.49788801922804 0.6605608822190365 1.3442622071102783 -1.684886067682492
Ni 8.97350130318533 5.462822477407552 8.05519144883323 0.6326263605922976 -1.2589378347101607 -0.15321820802861355
Ni 4.647892817414826 6.483292717398673 7.749782074693493 1.6999000245928209 0.002362843805221737 -0.46587617951552024
Ni 2.665385110004259 8.685572106545068 6.344979337359003 0.5939333148974739 -0.244104905007857 -1.2623203780291485
Ni 7.2131636725367825 6.291439852764591 6.3011280570481185 0.2672628311815591 -0.36455620301809477 -1.375526821551515
Ni 6.50855081501824 5.74620783972085 2.2910696593874635 0.5573416318163692 -0.1389642692127607 0.07668058068219052
P 2.784471044292951 2.558459787996799 6.483772396403912 0.03450831818951477 -0.8986357789827298 0.6538986397075126
P 8.727675181731394 2.944029894648604 3.1832463766846595 -0.7542354263560623 -2.0988267346709852 0.4285455613858619
P 4.737336088176697 8.92929963235109 7.147245284238833 0.6896981659046251 -1.4157699853422778 0.8227730662161443
P 5.558111836045761 1.9868266922038234 2.9852026548892234 0.607759936367921 -2.312370993283166 1.6720385222958625
P 7.820210569888348 1.5241894078745122 10.72160243483502 0.1355696417089149 -0.2645986540858346 -0.6725591922314933
P 7.017478997099138 5.8723484281295475 9.728654714642492 0.16866102494624502 -0.9604669533569137 1.2358323590409492
P 1.2788785666019846 9.472442418477481 7.77992128094058 0.04930990197872153 0.07150906378358006 2.0318762367923653
P 9.107483519081999 3.020600529605844 1.1004698303373672 -0.05309867959719242 0.19223829804555279 -1.1722880586304005
Ni 2.7337206307895414 1.8018411070783247 8.789268027124686 0.31591144542719785 -0.40223032053010077 -2.411625859721447
Ni 5.12981094925937 7.456881829612231 5.426255385115663 -0.35234192034008993 1.0200751519378497 0.1456897608620523
Ni 8.006779470480357 0.8361095491947118 12.81096707251988 0.8496004708216337 -1.7571849743572188 -0.3728672939869514
Ni 4.988586704631273 2.571594748257419 8.441131620342592 0.7057192239232297 -1.1514978613579265 1.1405439334495842
Ni 1.5520051689399772 3.2317061355634458 2.7305287042839828 -0.25626082364410063 0.7326479299932737 -0.4389932390817472
Ni 8.21860646869193 0.41811426603648216 8.790049379254313 0.8653441068091354 0.5413084896129065 0.15518844438110693
Ni 7.3050615507082695 8.689994147374607 6.5996945103787565 -0.9124914539188994 0.18929721313935788 -0.048381990847813444
Ni 0.05303732063580451 7.515633139023322 6.715767460915797 1.0184952090452395 -0.5506361947717355 0.14430085093432568
Ni 6.0719023892930375 8.836043288246797 9.039897496742404 -2.8245997919212966 0.8876335143349551 -0.13484227662458714
Ni 4.597826321243104 5.283889092230956 0.8426789030711362 -0.6997714909802271 0.04381905406747937 -0.04777521050174998
Ni 5.763736734619297 1.1182891558835157 0.23725185923530523 -1.5981349901381767 1.1789022215128082 0.5334555692273909
Ni 2.5869313602022372 4.258556481073456 13.198731335871425 1.7786693694832398 -0.6243736336652022 0.552198654162849
Ni 7.462662336374572 1.012750406000571 1.6823766760745626 0.2510707948027289 2.0479566872939956 1.3101040731713307
Ni 7.652013749946183 7.363053992943105 8.45768241976942 0.3838777861648421 -0.15832801845135314 0.3682943299042883
Ni 6.067246130199223 3.3506140639712876 1.412893573055654 2.3728335694445977 0.5927945733073403 -1.6681222179605915
Ni 2.7069822737397473 8.264578829604101 11.220611941860342 0.5861022488888293 0.3644333042869852 -1.5643951746835703
Ni 0.8880207484158755 5.86447869444986 5.020638068787913 0.36252965950636923 1.2505174718569496 -0.7797549107834055
Ni 7.114426621048425 3.983218858320695 11.07071131585039 2.397622860574135 3.132254396656341 -2.8716170412110995
Ni 9.468039115109086 0.03226778183283071 1.0012203092867726 0.22300488980444821 -0.40725091367314376 -0.7153940280088323
Ni -0.04650356793555013 5.614970661881499 10.533774376854263 -0.8965362161412237 0.015255126386857599 0.2697174633696387
Ni 4.237720424283428 6.4521135820582 3.2668351277126773 0.009055682444365049 -0.18997881258741475 -0.12017978951640591
Ni 1.1609356174429621 0.4968209715639227 9.955124101863568 -0.19834621071550357 1.06749503598271 -0.036303976637356836
Ni 7.572876082812473 0.5728313564330134 4.686818019191449 1.3586243893692214 1.1789765263941696 -1.3965540745354594
Ni 9.001204639483943 4.000644697182858 4.862345870805467 -1.1480243009870295 0.43931951207291436 0.3661546578534661
P 4.5702260409807725 0.8985736865311128 10.333920616312499 -0.3937791044389541 0.261740101591117 -0.08200199289510393
P 2.9009712089440307 4.59770452774568 4.467369558660321 0.11207387257981989 0.651740198603613 -0.37606291810611364
P 1.1918617970580176 4.269096302965894 11.692884028708926 -0.6355815865658796 -0.07274653573510698 -0.7421504701670703
P 1.8503617627058233 5.823490498201491 8.472312629429181 -1.2847221427631164 0.12360475603755489 -1.0126870870038946
P 8.629800053455572 9.071694968300566 2.9572032667045653 -0.16054688047954285 -0.18668034434180109 -0.09978708479266686
P 7.031307243422016 5.113172083765175 0.17525147406217154 -0.2269980701242413 -0.8315533835119356 0.8698756761309019
P 8.28639860310409 5.959917952777206 4.116738258927155 -1.329165974898788 0.5883895022611092 -0.10429268597250427
P 2.8125866047366896 7.822524646339399 4.1739718339857355 1.351783455187988 -1.2633835291863402 0.11036228920535186
