# total energy = -381175.9252808304 ev
CRYSTAL
PRIMVEC
9.14093673984195 0.00000000000000 0.00000000000000

0.00000000000000 9.14093673984195 0.00000000000000

0.00000000000000 0.00000000000000 13.37868489880781

PRIMCOORD
 96 1
Ni 2.4287834493289835 2.429624415506904 10.28197425223204 0.20482641912320854 -0.3012551289666037 -0.1974247273424987
Ni 1.0819029878951005 5.778680809709297 6.217368988234337 -2.540276148602709 0.7756020649572964 -0.9603543390384491
Ni 2.22780167374263 1.7091632063201305 1.149597108843038 -0.47092993988934384 1.4219277774135577 0.18543361641889355
Ni 4.380611102662845 2.1399664128334903 5.483080284076468 0.2912072578122985 1.1970624373616028 -0.3540167369393516
Ni 0.9242126885982354 0.19143863765429536 2.874597902118229 0.8610485647575752 -0.3241238060346611 -0.1282013742693018
Ni 2.3316975604627146 7.187847613929619 3.459460627864648 -0.9053468724543183 0.7884804635818614 -0.7132026767844685
Ni 2.3949894062879706 9.116548697370659 9.025394362339746 0.1820482448864284 1.1665843233774038 0.2488645311800295
Ni 6.306405368228028 6.524599527651609 2.5018944893751365 0.34818496074892297 0.06754879358425141 -1.063496199235962
Ni 5.492569490481897 1.9041576683571562 2.428672843994713 0.3876863612776549 1.6257275550444643 0.3985562141126233
Ni 1.500329366094278 6.126795102684924 0.03922558763797509 -0.7990343278383077 0.18513485423155213 0.47909936307401363
Ni 2.3082784805949634 8.38311649898313 6.215643179382256 0.01577603188733412 -1.14294302980938 0.04251807586786871
Ni 2.5550289263209844 1.8873292038620237 7.502244647732651 1.018242726714801 -0.3458460282031011 0.7835223482456376
Ni 2.9336922298032544 2.7869344908193594 3.4189361131192535 0.6394870922678728 0.5414187899385257 -0.5782094764043139
Ni 2.52803574019707 8.053695421592808 12.242767336297476 -0.46435280089245834 -0.7463513956222952 0.48151285761151263
Ni 8.516638161601488 5.262217885225333 3.599695394407627 0.7408325226865952 1.1676029944499051 -0.4621917886853975
Ni 6.388472698069038 6.764412002409784 8.06120652929278 0.6557642321613416 -0.6578781931805509 -1.150919106036321
Ni 4.441626855245685 0.6732437005775359 0.7353499669106582 -0.6991130314606219 0.1408861688258219 -0.938173432066036
Ni 2.393545138286759 3.8264875189067746 6.236099681660179 0.9925980295635036 -0.9752839637650882 -0.27888473169120354
Ni 7.892696103204559 9.092142396337524 10.913461239794794 0.5910822186019239 -1.042859496822217 -0.7270753210015026
Ni 2.0299918031969133 1.2869799031304592 4.917589945513392 0.09698586789844588 -0.16648227212737135 0.4041938720143749
Ni 1.5213535205422977 3.9576142561054026 8.656424108151684 -0.7990332993970433 0.9143411055331284 1.0191343852911352
Ni 7.26601176379267 2.141977418911127 11.581967192872153 1.5945333888298474 -0.3983381845645462 -2.1452983958699634
Ni 6.738086104666176 4.294594888160295 10.771473241589586 0.20458910630142188 0.5241083236845362 -0.30203031656973145
Ni 4.838663441528182 3.0135840167057295 10.12900250446825 0.49437917205121956 -0.26282716400770867 1.2774094111517873
P 4.310920601136019 1.1614474192023478 9.172480260951765 -1.1523828350660412 0.1263355247051566 -0.7889530323429057
Ni 6.200324797632694 5.657243465430192 13.024042283365654 0.3598384858274512 -0.32551143041080716 0.4773155317007135
P 4.034681493562471 4.319485658839406 4.702527471008895 -0.5969049959312881 -0.9187909137743661 -0.8991973079131546
Ni 1.8484893637534865 4.868947364870047 4.125450995157617 -0.2795650455876798 0.010537923416846368 -1.9787122511748763
P 4.822831339135151 4.528612009040189 11.79986610003979 -0.8662812739114241 -0.5029592004107467 0.20837145616198952
P 0.9534454042176994 5.902805589383064 2.2356318001340103 0.47467115209933086 1.2779537136910313 0.36352210532662554
P 6.663486920122571 7.713999931333106 13.453070319968663 0.024128517617087477 1.3182629548330393 0.39573905637880236
Ni 0.31537877040638723 3.3610401622377655 10.83641319830483 -0.40474151698772876 0.7640449562473164 -0.47089291600382127
Ni 5.977285941749353 8.892284955967304 2.252502312938039 0.34967311525867517 -1.734701191432406 -0.6625827977450718
Ni 0.30688318382204394 1.5450102647646784 9.341225609113602 -0.3347640593573267 -0.9682247429254616 0.5945310963824729
Ni 3.5238219632857377 0.6606447475011421 11.19892263842165 1.2980134605553837 -0.9178853712409611 -0.11916831753275604
Ni 5.228250164386706 2.449158597270129 7.637744409056467 -0.035647059779648285 -1.394957676582617 -0.5094306670677033
Ni 5.998300955260656 4.981819651445764 4.283921930450074 -1.5766999601928524 0.7731875419785329 -0.05927009851522696
Ni 6.682536632239821 6.7725200132773455 10.56694021208886 0.4936872881905175 1.5998925962592316 0.5121357247036922
Ni 3.140112862735943 7.197847798697503 9.892306175036738 0.19560078675988246 -0.5189398921097192 1.2975133809905137
Ni 6.155991254557522 2.897695221013558 -0.18615609032581248 -0.3605424538730113 1.058169644816726 2.505308117167956
Ni 8.408409470877768 7.596721713260021 6.431414990575955 -0.1832453505183231 0.018488288612174608 1.8455195943385698
Ni 8.835702557691981 1.5681276937207838 5.313960157509253 -0.9551828221398388 -1.9179210880294322 -1.3320270984966671
Ni 6.55918883218696 4.275289229814983 7.830584352309406 -1.9582380424809243 0.3658895771175376 2.166809530468862
Ni 1.9778610411025406 3.775060608939575 12.573929762132297 -0.14860642028821505 -0.34585682683637853 0.7780502693874729
Ni 4.8891762578237286 5.788909517895096 9.748565859262971 -0.07603163424428196 -1.3639488869059284 -0.6404656541310583
Ni 7.465558412314528 3.340235390270942 3.728224277391417 -1.2416541079290486 -2.1331995557239005 0.48360316448163815
Ni 3.960347396183645 7.476198462652569 7.521710272470502 0.043665044988118344 -1.1441838441950165 0.4333193286254215
Ni 0.28728684368914614 8.460375696111244 13.007318939642762 0.43613674346955855 1.1928273162343328 0.5027365428769793
Ni 8.577425390766415 4.841360017859558 7.780387812424252 2.2854685124653673 1.4965378487199645 -0.23157334819974956
Ni 3.569014754412264 0.41799584007982876 3.070729496682791 -0.2397836519246838 -0.17297559316119887 -0.16262433183386185
Ni 7.7292744365864285 7.466490787859613 4.271841268485507 0.08984771419176785 0.816462293506768 -1.3334630596122454
Ni 5.9310602247738595 4.274274585839447 2.002909949986849 0.8740015253738174 -0.44981552650823176 -0.8583517346517024
Ni 0.3548630465534402 2.634692189805546 2.9263200643413727 1.3407256547119295 -0.3833100865868302 0.18621446044897608
Ni 8.257584015055018 7.854880048008272 1.7547618550368707 0.05285442479687026 -0.2517796479442954 -0.16503319838567063
Ni 3.747034496966693 3.9636655562117458 8.402041894361034 -0.16486067736354834 0.1605957314396073 0.7708254695042596
Ni 2.893801181972316 4.792108650830893 10.690519277840648 0.7428806634648755 0.41087899734403427 -0.9491152757895203
P 4.018419767143763 9.208853876334183 5.2776103085622985 0.9962507958247424 -0.7630386264699891 -0.5305692488185313
Ni 3.254822477591683 6.24957616466136 5.447746907292391 0.7620294684791844 0.9725845625560541 -0.436487441940758
P 0.5640853765897453 8.57467396881474 4.9968583205318 -0.5876217708571493 0.24847218083761727 -1.1224834764034475
Ni 0.22694294995497097 2.7321802798873427 7.27995809094108 0.05084330790411244 -0.5567867877541637 -0.7041014858141487
P 2.6106789490512208 5.596529363758998 7.593447429728161 1.902258698901827 0.22764444545898857 0.5921811080930575
P 8.149647834306228 7.704255692793285 8.858428754556618 0.6629892891548711 0.2785093506296558 0.630093823978431
P 2.1420048417212763 8.866608064730569 0.89562623720463 0.47758832574612586 -2.2551953154031223 0.5792073215412088
Ni 0.7798690710011761 0.3544654158062711 7.418573997591562 -0.6533160277311651 -0.6138915031869557 -0.8953303687585806
Ni 4.135112965266989 7.5481102118015135 1.3472205042797376 -0.6384419388328101 0.6681093839902559 0.17842453209091205
Ni 5.925465971503343 0.34258402626212486 12.17983472928518 -0.23571539539258113 0.7407649026734533 0.200544503918403
Ni 6.588732339654786 1.3895686359000796 9.298721167475406 0.2126070915098919 0.2083735130445185 1.055314177645802
Ni 0.7854925752691855 7.5646004616381335 10.439895817227834 -0.7192110877620774 0.6225106123145344 1.2676245638508814
Ni 7.185626366307503 2.9225768507559535 6.168724579403648 -1.0581074241202229 -0.24672203091572995 -0.8461665054394201
Ni 5.292529231377347 8.428053343881592 9.223452866364154 -0.02120800153618283 0.05222270475014231 1.6425675094199388
Ni 3.9232169112410995 5.463464747976465 2.436271704687165 -0.37392273183465924 -0.29897636023475604 0.9825239331569532
Ni 4.801313574104439 7.581456348943417 11.952677881411041 -0.23379838087552637 -1.1509818409534565 -0.33149027370206136
Ni 5.820546299871007 7.111356255485693 5.669378058921386 0.6405137337601743 -0.5094905737713612 1.0776154122461636
Ni 7.837210617335219 0.8698341701652678 3.007635095090612 0.918273093597683 0.6563576427709663 -0.7837632606118502
Ni 7.625332845182762 0.8320062317512502 0.4381022444815089 -0.6074403482449733 -0.09017398718293504 0.7156053726886902
Ni 6.2096668349569875 0.6970494420683959 4.459129006776826 -1.0908301111642245 -0.29583190106850343 1.8190534297272412
Ni 3.8000336480491357 3.379166639746645 1.2313317085875657 1.0627572641874083 0.8784641891308613 0.3670694563582517
Ni 5.628860856925365 -0.008890475050497431 6.884430673310483 -0.6509760667440788 0.45242545332725304 -0.1397224875350239
Ni 4.685598456209881 7.549115714840331 3.818236909426435 -0.5296022569195717 0.2535796772675117 -0.27050293538541154
Ni 8.261030148197149 5.428500665035737 1.1367650618803726 -0.40192050259916584 0.03548919404554533 1.4602906934624722
Ni 0.25664093925330644 1.9778519001658241 12.73685598998039 0.5598777679746616 -0.23682328374477923 0.945047790588366
Ni 8.253004405760036 4.247089440044486 12.641947472239998 0.6347673181947003 -1.5153992044008417 -0.09773380180806393
Ni 8.524417098747255 5.548886801592442 9.945821789043666 0.7811469060349256 0.29027163337190653 -0.3992105598671706
Ni 1.3095945805671554 7.019809774269641 8.309381132959237 -1.3103894656222335 0.7860916516347107 -0.8167556563774708
Ni 3.788004175330182 5.777867266341526 13.312072285209855 -0.19163794545739252 -1.208646028434144 -0.5401640915958181
Ni 8.382887975565215 6.548137439696674 12.358211882465225 -0.5343675395186991 0.350536491700235 -0.5241327491645683
Ni 7.711623287786809 0.8291990500856037 7.428514766270789 -0.0819953080268846 -0.2698215930476708 -0.3400381632720724
Ni 7.661110471491262 5.306441737059906 5.743349261112565 0.18679064466742024 0.43523480048057944 0.8049440084545235
P 0.962019602857805 0.5689300730495064 11.273468805532298 0.8755238755556147 -0.07354820570079591 -0.7388944251236178
Ni 4.741732948586094 5.036628707998079 6.7066942997942665 0.9460860020448932 0.23581978218092936 -0.878745467816706
P 8.012058454849011 3.1709452422808 9.181898168050806 -0.5476750552608826 0.307911972161489 0.043149538804280525
Ni 4.012916923240412 2.431086965381549 12.623966335624912 -0.7845870420647262 0.2181791862810307 -1.8560811719045
P 7.711650710596959 2.822255070292033 1.56881143578718 -0.31520053540310233 -0.13087609288798752 -0.40546553963794685
P 0.9945979013155192 5.453839341613959 11.34394725580409 -0.14044445330271296 0.28607816411584924 0.846903897826077
P 0.5122151311917938 3.5140868656826334 5.134712787153794 -0.9498166727319189 0.7051512672349017 -0.44039397608401576
Ni 1.5595809178908275 4.0433928062533235 1.4873355245517301 -0.13932473787597296 0.20807963595318357 0.20865299195815035
