# total energy = -340894.8935148759 ev
CRYSTAL
PRIMVEC
9.02459769385726 0.00000000000000 0.00000000000000

0.00000000000000 9.02459769385726 0.00000000000000

0.00000000000000 0.00000000000000 13.20841094527981

PRIMCOORD
 96 1
Ni 6.02758290897147 2.226900688173023 11.461267877005263 1.3595096201876522 -0.16309561504332556 -1.041028100040433
Ni 4.6687402182534 0.31927582502141955 6.008770232738525 -0.2810858531075804 -0.11108451208335707 -0.8233991298359173
Ni 2.805539839426991 1.5914155964070498 4.969572473085205 0.30757747164020577 -0.6528581142581401 -0.7980256840681353
Ni 3.4796502090769743 4.280790815057643 4.906356971561393 -0.2730462706325556 -0.6627092960206071 0.01754057998692463
Ni 4.938494466204558 4.434398491427676 2.6164411279320867 0.45946461956222157 0.35738128253621027 -0.2383713449581895
Ni 7.387210739683911 6.183897964632439 2.5282085393002687 -0.8036152623407707 -0.42615572099744675 -0.2678891519116483
Ni 5.140681551651607 4.758002513475537 11.341494319634046 -0.8876234870326262 -0.5313457219732397 -0.3753008431291085
Ni 5.607632282556858 7.881379657060698 12.505208062716536 -0.4869432845984646 -0.3189134654783153 -0.8535964793549041
Ni 1.8382022433734402 6.487647871880108 0.3477403084265498 -0.02622448091416774 0.010739240794375052 -0.019669196294153223
Ni 2.8106567862868586 1.5907928991701348 0.4806293135428187 -0.35534548305310415 -0.6652788565199962 0.6595591804273996
Ni 0.441079014401072 9.015843776743685 4.788656364267271 0.6058714610959565 0.685237301919794 -0.4459678706273674
Ni 8.464576230121073 2.1642338821855067 1.339015649710787 0.8192673670557309 0.9822161721085471 0.8119901166680275
Ni 6.881887419628471 0.9276474156484391 4.831874259888471 -0.5151997083409965 -0.07810831426765258 -1.3504382540140032
Ni 0.6468569872476649 7.326231533454411 2.478122022417965 0.7300827403692588 0.1940907778732593 0.21825863336871446
Ni 7.792361025974744 3.8922096900273337 3.7070727768948313 -0.10352366901696364 -0.7516938908811313 0.03669427009724003
Ni 7.56976932527168 3.6700240962179094 12.701299934919925 0.6596612532229027 0.20160354131053668 -0.3341781049468696
Ni 7.98273491311568 9.044632243203965 6.677036272959143 -0.2792950797557448 -0.09721778140359386 1.2994154831092333
Ni 6.813381698970171 0.8347391829811757 0.17822677872227163 -1.260757918638035 -0.598526333584795 0.8728486427162967
Ni 1.6360241825240274 6.618892595307015 9.19317260800113 0.9147589097968375 -0.4492995061037617 -0.23363922958984282
Ni 0.2567037773090863 4.946363915343544 1.4699905376683648 -0.6307579399249911 -1.3027512323506854 -0.2673728743968621
Ni 6.2101234453639655 2.0885626310038647 7.012728743541031 1.0880085825550294 -0.15759088317501246 -0.16023294878354985
Ni 3.1733012177100073 4.477193133419727 0.6129596960653912 0.6819090088775095 -0.9363587474548004 -0.3458483421959463
Ni 5.87816264590475 5.375582803530793 4.896357717380205 -0.03637442486397607 0.4672506912655437 -2.387119647049966
Ni 5.3742471630805975 2.835636872544555 9.12032876325899 -0.16765160984512417 0.24107743103544285 0.6527881802521532
P 0.18872870299180972 5.39908285577611 12.438254572851704 0.6294752165578257 0.04859539241020018 -0.48823500682669463
P 3.9147170365326427 6.0327359542218835 12.546180638445788 0.13167724863304417 1.3738234657071628 0.24006801593432206
P 2.4209746603449025 8.304136933340246 1.5857625884475768 0.4854178490928737 0.4415265470265622 -0.5305101134458218
P 6.391671276016452 7.988384311236098 5.725938440352385 -1.3406701188836458 -1.1145760486309126 0.07679319500065483
P 4.626089969823533 1.0295531721592444 12.544530039538081 0.1716375910760657 -0.9901513677952237 1.0223621481998135
P 3.8655871269998037 6.2062699421732015 8.249048984447821 0.7566509777760904 1.1595790957041643 -0.3784501873913676
P 4.82711288217548 1.0091214831103192 3.8853600204212677 -0.5481522520076172 -0.37363322561869844 -1.2940660458718616
P 0.26395955380879293 5.595422001954739 3.6512005904677993 0.4054855942426049 -0.08886452434289212 0.5358428385126449
Ni 1.323430169592636 0.9520318784621299 2.565654302273195 0.9066833318775547 0.49610901025813275 0.15444899511192112
Ni 1.948347457526325 6.516057305239657 5.05713092427358 -0.929777751803173 0.08687577604763748 -0.958452494030046
Ni 5.974770963602959 5.581289482056057 9.12326085503107 -0.3324189561639178 0.7601350796699489 -0.23042637907949995
Ni 8.64563673250119 2.199492985151121 10.428106670710962 -0.5308579837035439 0.6686457161097001 -0.7262319991646009
Ni 2.5504866610256114 5.196191851713418 6.953673581527621 -1.3914774313435003 0.10310689319451921 -0.1400644442554749
Ni 0.4853645199226646 9.028026983552895 9.184072203744533 0.2700450219123865 0.6015772045959769 1.0325576006755766
Ni 1.6387044880220532 1.290138428911768 11.567780690609474 0.19353336270789248 -1.7461433718310766 -0.9292087666735804
Ni 4.084343373707377 6.819337933410229 1.4782453371264264 0.45208838170280846 -0.5620444366086772 0.10456959378297473
Ni 5.557338199928916 7.800925369131737 7.859612327561577 0.31567027595066927 -0.12970804072181533 0.7330778184418407
Ni 5.356649197689517 2.8630536001640934 4.8040306688007295 -0.1981202107476265 0.3226955582285668 -0.20417824401624837
Ni 0.6532184261215994 7.606246748918215 7.17535018803035 1.2013710920392857 -0.33704617052328406 -1.3181755373255555
Ni 5.025608907189221 4.530862415563701 7.057914001446976 0.01845589271234241 -0.12615143371880855 0.08201947639660068
Ni 7.981381223470212 7.395260680775626 8.956002572276143 -0.81617458706302 -1.1606373617653496 -0.02603653327307774
Ni 4.670427818011417 0.42198206334257793 10.293895562040955 -0.20796136520776443 -0.7813106853062995 0.465755594777256
Ni 8.076067301871856 7.1973783284011645 4.761526618852572 0.29390640191101636 -0.7190344529748972 -0.7902426976886068
Ni 7.066061408193164 6.0930744140191955 6.683033118088564 0.8818523888768038 -0.030218946785541503 2.3098363997867706
Ni 2.3670075664789256 5.27298215300198 2.7787593459408226 -0.6023490497649949 0.17719991565519158 -0.20185422386876203
Ni 2.2943595555054945 5.08185922425722 11.273999353911028 -0.47895795240014283 0.791710797593701 0.6683772929396617
Ni 1.3279966159966803 3.222458201035756 3.7530910051626227 -1.352179662185142 0.17381557256399097 1.2729356916511496
Ni 3.6215710315078034 2.4646537129053256 2.616982603790274 0.3288037280088337 -0.1954228664211215 0.6443228230936193
Ni 1.2427502667227637 3.41830099434438 8.076758586050808 -0.5149652237326873 -0.31436672664789733 0.09389643033984474
Ni 3.531325055143293 2.575457722685672 7.320656137034613 0.40153175180117945 0.2497865287736666 -1.1678685894064662
Ni 4.2461453847313075 6.832261157225628 5.900302691286255 0.17612416609250958 0.4877428976816245 0.5135680862748445
Ni 0.8820100254009062 7.443587401118821 11.468427090310259 -0.4029939381690027 -0.07901102858758005 -0.4527617536207493
P -0.008095966539660231 5.721035376456501 7.893095389712338 0.24903602376088724 -0.7223236652491302 -0.07329598048067376
P 8.563919000903127 1.5962618053378241 8.029591526503896 -0.9691701375578663 1.0511189086175317 1.1191937499085822
P 1.964754176029393 3.2006818469389997 10.364349693328963 -0.8304133563702214 -0.27657510972142046 -0.12646613674574994
P 4.046006882947732 6.035172595583726 3.842234175695959 0.015806370904637292 1.232288607553749 -0.5539274639284977
P 6.886435816837244 3.981327591687288 10.364758507601895 1.2893231318702374 -1.01878008727551 -0.6348207971404551
P 6.186045818869914 7.602772278828182 10.208279204263944 -0.14568770397952327 0.08609416068660657 0.008383338967688787
P 2.31351877628768 8.585614133621155 5.689971808932073 0.37190030208799174 -0.4388651981443152 1.180025279373658
P 6.917588727878273 4.0250066442477115 1.6718021998537376 -0.14346524240690778 0.15722398675389698 -0.7746967795342077
Ni 5.213031750903036 3.091989593005583 0.4432440153740566 0.008644563048875434 -0.35677707329330816 0.23936713321255548
Ni 1.417168665242453 1.0862276453161568 7.167504202845221 0.6257075219852772 0.033727217049116104 -1.3057031158901578
Ni 6.889251491299816 0.7058643188936001 9.208626328993788 -0.26202138027696165 0.09784667323684439 -0.6319154505682021
Ni 2.6415448511774025 1.4940040895191973 9.265449708011703 0.5179353621046048 -0.25165366388939236 -0.06727959908326478
Ni 6.220492708048248 1.939503351842603 2.3510972008458624 0.43168410701484367 0.29018241609220996 1.2104967084896379
Ni 3.922108181996896 7.010478911350263 10.433363498834197 0.6309625997366294 -0.8118988425058018 -0.5599289329275712
Ni 8.232860661207557 7.165720039892493 0.19148932740880012 -1.0101262682552539 -0.41308911762147565 0.060364102910354114
Ni 7.737049267060936 3.793931821766382 8.181012542866618 -0.7304537505554323 -0.5611779748433239 -0.7699816334467254
Ni 3.158582098964956 8.264491875923317 12.426604719762812 -0.11112796372678281 0.5806353122369872 0.18271596037741436
Ni 0.17119390978418533 4.6208286294014815 9.796162831057533 0.20911450497560113 0.6711707965243989 2.186748435484634
Ni 8.675336683322751 2.3449153514648935 5.909826349172003 -0.12110281555130754 0.6834429290235327 -0.56954023076509
Ni 3.722502131473872 2.7886728664444638 11.788995237713216 -1.2440802008720382 1.1988177294898128 -1.4464715281911928
Ni 1.1083108357325526 3.187578131170873 12.726370267153987 -0.41000379382793256 1.668278798143114 0.5986253210565045
Ni 3.1461191296290165 8.448855381038376 7.74697090970245 -0.45967107914607286 -0.9975366045157014 0.9814615533307097
Ni 5.523784745916591 7.713034812750339 3.4208332964411685 1.1756873141199364 0.005742301800415918 1.0039900734505292
Ni 3.16871672211069 8.239529838860895 3.6837468993838964 0.0661107755861442 0.32366434989973936 0.09420162028508938
Ni 3.463496179307727 4.322240792001862 9.071456957218553 -0.03590622697830591 -0.4794305211611873 1.2486832468616882
Ni 7.471608776780002 5.904803258127554 11.186705323433403 0.028038651304771064 0.8043184590553825 0.6060054155706597
Ni 0.7248394378840022 -0.161931062770132 0.3984423028676591 -0.06991343716168605 1.109394247319657 -0.7123187315176184
Ni 4.536511813684119 0.16575117494964173 1.6924333325104282 0.03438490523777304 0.8569790226738919 -0.6698765031930075
Ni 6.036165301323735 5.530038792078652 0.235189136543787 0.08771935499485538 0.6302025816421534 0.9375196005321209
Ni 7.703658255806067 8.705848847931591 11.319106097817539 0.8350259154415683 0.2345190610916348 0.18279592168573033
Ni 0.06667192241857302 4.85442131462338 5.702308433901102 0.15257723201050497 -0.28331808487220883 0.9623991373826198
Ni 7.9841517749446025 8.891529944301572 2.6008682822506266 -1.0994859870670097 -0.04706172937449314 -0.4145605599606796
P 8.593023328280681 1.6855331251575976 3.6265408774261974 -0.5567086262180607 0.4167765937753919 0.20284666968901843
P 1.7933680423155514 3.2271239180138016 1.7382927278598177 -0.23287458350967638 -0.6830431224819526 -1.8024397324299606
P 4.781267926182309 0.8926906367036461 8.124783884832945 -0.09935693923378372 0.7730921540512492 0.8968097815175844
P 8.593898714251416 1.4778681089452228 12.458820728405414 0.7275005814643795 -0.035654001758183756 -0.27509338296957137
P 6.398187035509969 7.8753963488277305 1.2912367224441244 0.22724515313804086 -0.7541485230692109 1.030750886484141
P 1.7923843611731782 3.192379217113465 5.962065232590599 0.16090580648085837 0.5021888979036255 0.6600767434937663
P 6.933860077416794 3.8895925567127634 5.977769837397552 0.5809659561035285 0.032223635920396114 0.10723531354059596
P 2.3475866323652825 8.530401645281348 10.150121989715363 0.21327352144929723 0.26019049771581 0.9469324092055885
