# total energy = -340890.8628320422 ev
CRYSTAL
PRIMVEC
9.05930833741634 0.00000000000000 0.00000000000000
0.00000000000000 9.05930833741634 0.00000000000000
0.00000000000000 0.00000000000000 13.25921348072836
PRIMCOORD
 96 1
Ni 6.4622493445753815 1.7013743709527815 11.261275784026148 1.4026344764015843 0.7344803552163222 1.6834894444452815
Ni 4.519625588633607 0.42868738350047236 5.936388194527935 0.023810472156036412 -1.300265232704038 0.1191534051344206
Ni 2.7136977384409477 1.5754499829938262 4.792728408191123 -0.320186418653468 -0.11883664522495017 1.3249275113374084
Ni 3.431430512573049 4.456998589068121 4.779230944477451 0.22957842925690786 0.26633543427128326 0.4417031818137425
Ni 4.667319494885035 4.607718304353959 2.0569150858735274 0.4132405555976754 0.7220141044285113 1.7627028188516545
Ni 7.231158152346341 6.2625550076128444 2.370601795587772 -0.4657774491541269 1.0887883981438475 0.7545964092399069
Ni 5.129144922897383 4.487021137391573 11.587346568441106 -1.1123523015067167 0.4819705139742215 0.8050707638403749
Ni 5.7010318897092525 7.848251068504625 12.347668963628792 -0.439510802148114 0.8783430901719648 0.48304626353690355
Ni 1.718070676492951 6.452392816942334 0.2975085966194886 0.7030128807356602 0.4080826655458198 0.6218693791861096
Ni 2.6169805610416814 1.330966424875241 0.562620200161278 -0.35876119360287245 0.8735842353307406 -0.7315284716768499
Ni 0.6894206232508543 0.11762696731639374 5.114303963735199 -0.280157170645724 0.5065440895485276 -1.0257616607996658
Ni 8.428345768805043 2.527429296655043 1.1542791077444001 0.40219355375489446 -1.2211385044742002 1.1828259820472469
Ni 6.793276476663166 0.7653937960782926 4.905617357169205 0.32031548803216453 0.0908527584175145 -0.3960321621391889
Ni 0.8224121777599378 7.755837062636331 2.784739929659317 -0.5866545218478736 -0.1075991246379179 -0.08335002228256613
Ni 7.6609226876258285 4.291457845098769 3.472933016610284 0.5783035787800169 -1.9957314114406919 1.0525558981743743
Ni 7.563689129642845 3.791438372508368 12.424943959085706 -0.20714426862310778 -0.6993876252782472 0.3930795072687682
Ni 8.044412275157523 8.772327712028176 7.040774972645978 -0.41607134017825115 -0.3009347695127075 -0.789797125510756
Ni 6.693642201931326 0.8904801980022694 0.4784782488717828 0.09143485617322962 0.009966367184092512 -0.8260206266191644
Ni 1.8849793760437277 6.4875972897199246 9.225468886925597 0.008338087552050157 0.21635396014683383 0.6451913417415017
Ni -0.13053829377100548 4.814542317095179 1.3678867306801281 0.816855929400761 0.1672543744067055 -0.2747290576516172
Ni 6.487117146370153 1.8638983651962104 7.243349263776294 -0.10197766468608242 1.395669357937661 -1.8083823231666403
Ni 3.0139051030584922 4.409319448504958 0.2803421129688825 1.2128934908565885 -0.18750206891214805 0.30634976988069174
Ni 6.344423978403138 5.907330462558269 4.6370650282643355 -1.419117304547956 -0.09189019854309335 0.7704552306490344
Ni 5.208622236247305 2.676645166732162 9.258219193034261 0.002107276150989919 -0.05075486195536421 -0.5051441238772075
P 0.09070179656439292 5.441953785619309 12.474414124936603 0.5969479333540816 0.1712033317521245 1.0253489987422792
P 3.931141968674918 6.145671809523173 12.613370328153035 0.9185877966246245 1.3132804140167833 0.9636705478958759
P 2.2700724611774885 8.387995608807259 1.4076117983923597 0.3765141467109193 1.1134697029406113 -0.5694736391932128
P 6.347241423342364 7.873155107533343 5.813966135229766 0.28998752647258447 -0.6302619741251791 -0.47448937510582795
P 4.586999665845892 1.210957765357811 12.627040824658796 0.9751831765211656 -1.2804034607831047 -0.3930185721238457
P 4.009794884952591 6.116700140984126 8.516353327025623 0.9037980399099597 -1.1509720707614435 -1.01925625558098
P 4.765214382387516 1.1448429320251163 3.8175128741935094 0.4846020380597976 -1.0562557156234649 0.6139578376485169
P 0.2205561125446861 5.787303684423866 3.378102893168704 -0.3713459722464185 -0.6216289810405294 0.5400969858033084
Ni 1.2268930889851348 1.2083124472798241 2.6172894834610627 0.8191938335053183 -0.8090253776127486 -0.874264806337533
Ni 1.6716960763518076 6.534968413794556 4.948444332107131 2.053359346366806 -0.4484767530921502 -2.9098272337322335
Ni 6.186185037073708 5.672522245903005 9.215272635224316 -0.6271709939046812 -0.6901555651570178 0.5862565150785065
Ni 8.712346030540676 2.0325102147424032 10.169286669571546 0.4668447140763766 1.746671733530721 0.5690908019324973
Ni 2.45988309258152 5.426797562521803 7.035921901089891 -0.18332839715043264 -1.219784304439151 0.16083818646771655
Ni 0.5262307698336857 0.07035187191171656 9.249813060689863 0.0906234160155278 -1.022693563397303 0.20369976171793305
Ni 1.5686826795545932 1.0202049658712091 11.664143232409943 -0.6159648407762166 0.0732296460191126 -1.5242075467210912
Ni 3.8271773444866466 6.903636972642735 1.5503339561465306 0.7151407743474458 0.2933785544320044 -0.43009490815085283
Ni 5.731289980053346 7.6254373762851655 7.934777429787704 -0.5785781725976423 1.0905922841218059 0.26165834051058806
Ni 5.398586875895603 3.1634199303156576 4.667004230949714 0.5279626644336198 0.19248023885302978 1.2942231402750164
Ni 0.6531489639335833 7.172191113409301 6.731623352759954 -0.549457343972286 0.2860694223651009 2.7654685329767794
Ni 5.06578411934451 4.384832137666608 7.016192539068523 0.7778337825012926 0.8378716124204797 0.12348288574770992
Ni 8.361488072176474 7.008915196561514 9.280389132761826 -0.5600477178936225 0.4734928155205136 -0.28792473040628475
Ni 4.82980725189452 0.5368528090338206 10.400142309934257 -1.4109810485940666 -2.2589704661748384 -0.31700622115327337
Ni 8.322016665101858 7.368687514476189 4.623103727956168 -1.087092241388347 -0.1318813942240503 0.3241826842970546
Ni 7.4274643079350176 6.21054551759325 7.002985879157259 0.08094809770929286 -1.3070891976044072 -0.23816051449896405
Ni 2.2002976672163466 5.1029001062127 2.760143907119133 0.5971628775783652 1.1931566745492936 -1.2112423284064107
Ni 2.5799098707159223 5.130123328213898 11.32857919863224 -1.237653728520404 0.4516587503645576 -0.4499728780217025
Ni 1.2230881794209072 3.254375387517666 3.7810899244245175 -1.2058455828708716 0.293123758108721 0.2917908982299104
Ni 3.585212274127241 2.600574153373072 2.9005197039753634 -0.5810785704219928 1.4062121664505136 -1.2128940050772208
Ni 1.2511810950367865 3.2445098005761333 8.09058666458112 -0.13567479982821148 -0.1516482924383324 -0.1053769201756185
Ni 3.6712122895872668 2.4837724890597763 7.163316614816166 -0.8609328651153174 0.32438014501984136 -0.36103173480460404
Ni 4.158603086147829 6.796202633304228 5.928645203564731 0.623103765813843 0.2735959724884385 -0.4181027687859832
Ni 0.8488717000557451 7.242482287954161 11.460945660855772 0.6822833614977927 0.39963247789593753 -0.642946511571383
P 0.3850414470753893 5.363998436095078 8.04372829736681 -0.3620565765246926 0.9170590186849238 -0.18839398459879814
P 8.597338109307659 1.585813831902103 7.894933685134302 0.6911310416964097 0.6508950769944984 1.040466313999692
P 1.785580643332529 3.3084503998721266 10.451535766976786 -1.2746747858294436 -1.3975097535805092 -0.4207615465650689
P 4.162897198370313 6.190307022434955 3.631420182992237 0.03959550290443504 0.20247051729652224 0.2746298130695916
P 6.6018532883485825 3.707096210501326 10.420707846128906 2.716292842583077 0.8056718877594834 -1.2248622331826904
P 6.444438744091402 7.7347651110973 10.379537818713118 0.115779089345549 -0.28481343847081275 -1.9843938749406855
P 2.4550907183922908 8.294603197622449 6.00642389657348 0.3037701820789736 0.7725740767642502 -0.6253244276142456
P 6.75203850443373 3.997256802007613 1.3996296416851197 0.5858651931773587 0.8307491424430854 0.3618251772401768
Ni 5.09849728228838 2.83602558093086 0.668920314077306 -0.42674116118727146 -0.0021622977586414375 -0.9648211165605513
Ni 1.6498087870490137 0.8668036952734398 7.306502609164832 -0.10364091132111827 0.4369348138908216 -1.006549092426957
Ni 7.027196881086778 0.5208486346620012 9.070667953166701 -0.8352598858292454 -1.1081074101874335 1.6032090622269746
Ni 2.8425935795833954 1.5407075349490351 9.404879432187409 -0.49468564754804484 -0.1746671219310089 -0.14410518998375182
Ni 6.42949088508908 2.2210163057244134 2.8013936564496014 0.6620063564163114 -0.5381984832290151 -1.1194246349724657
Ni 4.098576108117897 6.989582632251844 10.608644106607132 0.5548438050951799 -0.10408365528549171 -1.8488753981846806
Ni 8.464809485462222 7.211644401866946 0.6260163350172473 -1.0036514591641876 -0.5171594031705288 -0.9684371160465838
Ni 7.9127352263097945 3.817483884406353 8.39329439834087 -1.1793737618325884 -0.12800031400208922 -0.312050676920211
Ni 3.3202365602127455 8.45491672059523 12.254590004517606 -0.9914461753472473 -0.09595896929582828 1.561497284310485
Ni 0.1815494479954146 4.991370959438405 10.351203019560653 0.1418091948607235 -1.4604300472538139 -0.47634879691207
Ni 8.652998500647215 2.3955529430206175 5.850495078908046 0.6137680902352138 -0.2218952016800372 -0.19804924830037507
Ni 3.381885154461716 2.7506959542988167 11.803935609799659 0.49801728302443915 0.09028814416329611 -0.34664589839657717
Ni 0.9618086633688042 3.191612498324886 12.655972632240502 0.06145836441579738 0.6737953786314396 -0.32406441355163546
Ni 3.2288371968949106 8.151448004922635 8.094630739889384 0.5227770064676223 0.7902861493320325 0.139720687762811
Ni 5.517064512278856 8.026039997547395 3.341772348346273 0.3699886868875757 -0.005671853573796683 0.4621892175822363
Ni 3.0453227848888273 8.493735857458837 3.5480591440942573 0.5064906106027729 -0.41863575847131773 0.5403849493573725
Ni 3.3737317768240858 4.072992620952711 9.259863457524515 0.4871574574917998 1.0192400576310638 -0.9738356613543359
Ni 7.333573634783462 6.011883941798147 11.538260517270025 -0.7721480449704251 0.8061611686910761 -0.5152321042408288
Ni 0.42885498070746814 0.12523497458315136 0.3107351870094221 0.46261447804511296 -0.5460984548023822 1.269511496460949
Ni 4.500718811822792 0.6418474765969793 1.635736057246464 0.996334356677484 -1.6444068766215225 0.5323193987404187
Ni 5.959312774652405 5.833261556374642 0.36822284087065543 -0.27888370324993905 -0.3256235305086392 -0.451753366960893
Ni 8.105490132971859 8.665310100880035 11.437490205254006 -0.4432149904725786 0.3169622552892154 -0.0813144799097761
Ni 0.14850018470670484 4.78966545599192 5.60762679549256 -0.48166172448455113 0.4430190724116887 0.33317126094891014
Ni 7.789111902706348 9.027827389266047 2.573666195307195 0.35113247341302106 -0.2328491295883796 -0.1147910144006668
P 8.575695421333993 1.759127462552662 3.6619690771387403 -1.7894772587320213 -0.0229946611229604 0.6148438397978959
P 1.8641792037592844 3.225929158870823 1.5125584516205413 -1.4244873106106177 -0.988492492035562 1.2028960133242446
P 4.785144861057278 0.8170889280934139 8.11776821376328 0.0658562363731769 -0.17737655044237194 0.6306995758832299
P 8.459437315529872 1.4950667387952787 12.418022647402204 -0.6173666062197497 1.649703606244088 -0.713055866793959
P 6.320987547349194 7.961891034156218 1.200819493230842 0.038789204953055774 -0.7513689034415446 0.9737371881032585
P 1.8937669052753958 3.3762593238917513 5.8672946605649585 0.3306891179570047 -0.3610307063633395 1.0766800449160876
P 7.119221336690164 4.0203127421051335 5.989134206327461 -1.4785848637859695 0.5302414331654675 -0.22272129712575836
P 2.356335196583616 8.55728690648992 10.219976218344692 0.36925412271439634 -0.3489686329924829 0.41728464376006197
