# total energy = -340894.3230767855 ev
CRYSTAL
PRIMVEC
9.03053040459416 0.00000000000000 0.00000000000000
0.00000000000000 9.03053040459416 0.00000000000000
0.00000000000000 0.00000000000000 13.21709406713073
PRIMCOORD
 96 1
Ni 6.355560756990445 1.9968940608523416 11.262246083925467 -0.0520463270732781 -0.10500873820292236 0.8036461155787062
Ni 4.672360225159108 0.4148905539673817 5.965442753583284 -0.7198775177014828 -1.0894825959973946 -0.44143964373971073
Ni 2.5706307387258347 1.4144790434161583 4.8233669457620225 1.247329303936955 0.07443215096764601 -0.6111249961854119
Ni 3.4197714973936844 4.324829299320827 4.9124106831085355 -0.623379645183049 1.0129043452210234 -0.007969905579354016
Ni 5.243929575774489 4.609868955883542 2.7078785434518338 -0.6888964959389362 0.42760865139388937 0.08131036614471804
Ni 7.3557100423672575 5.995685096311167 2.5752850740126303 -0.5822841606943198 0.03934173502241612 -0.01671525587215186
Ni 5.0932371176240006 4.376231077459053 11.442170368469743 0.3134118189337957 -0.37058029772498763 -0.2831833590665575
Ni 5.707936280675813 8.010893072494557 12.36033508199032 -0.17325867161925645 -0.7403473555200605 0.20873938102436954
Ni 1.943984184163679 6.533985973514526 0.3335588894476512 -1.0188955298074516 -0.2879869511027879 -0.0701944587372146
Ni 2.9168251460882795 1.7926866804869679 0.4446217686835591 -0.23702382979135952 -1.0180426948888532 0.6182736914150513
Ni 0.5364423940795282 9.0077913669842 4.620986441664632 0.42032728724112767 -0.5118989261025377 -0.16422355800018168
Ni 8.51979957375977 2.4350463576704358 1.4082552019732795 0.9657454281470335 -0.4036233442228855 -0.1205240602297021
Ni 6.63624769797645 0.7532094359056617 4.572228802781304 0.9830571799526038 0.8582841146385606 0.36454489016418506
Ni 0.573052163681139 7.412358558576163 2.5021152027257405 1.3944480839360502 -0.36104639009262335 -0.07303964149549357
Ni 7.572424707117986 3.835844147769761 3.890768735755444 -0.051193492154679575 -0.1288526347000555 -0.20010561660877152
Ni 7.452417990730269 3.816311110856026 12.496074788165883 1.146888387610373 -0.1927697450689906 0.3552056150411302
Ni 7.964114925840303 8.859320419273278 6.475675839741068 0.4353011349421407 0.13946434877763078 1.2294261984042891
Ni 6.690015475038115 0.6121164314025617 0.6298397500557738 1.9073361134247346 0.8934529492302098 -1.6161815632272425
Ni 1.9345111579396805 6.412236364790076 9.148449099929628 0.2625070616641285 0.471876105852697 -0.2293362313391147
Ni 0.09331879036313902 4.942987155455376 1.1421363123738844 0.1358411502027467 -0.4960951263010618 0.27033195702518603
Ni 6.536225545014576 1.9198004241752444 6.762209146005831 -0.3643142622106177 0.7352570854813466 0.4379514280807941
Ni 3.3479155682570245 4.337968720823132 0.6947232067924816 0.2246002593160261 -0.2652206039405497 0.012575522672165438
Ni 5.889142900514471 5.797320469012454 4.751571521177985 0.8523060426782547 -0.8116093362898409 0.6041632201555982
Ni 5.230672757379036 2.869198129591265 9.025107408723493 0.46102939294618017 1.0555067532725821 1.069012501068501
P 0.08169288572941584 5.900611673921981 12.327834203648878 -0.06923569436837108 -1.5567163179820738 0.6743196265660257
P 4.000831935293547 5.897279408262634 12.63518468822781 -0.6168485289327506 1.1592080855179905 -0.7962739914843512
P 2.279847664929123 8.49068514425913 1.2320117615556976 0.14555812038019447 0.017713101009046914 0.4628229945114933
P 6.270845352788987 7.727912376827049 5.827905971889537 -0.8514318676034176 0.3220173012146196 -0.3681863435715143
P 4.730561992569661 0.9921121134613139 12.604719291402947 1.140973821898151 -0.262106226681284 0.1585527328676495
P 3.932208935983572 6.055494298104819 8.370531230228465 0.8256735276923909 0.4369661813493894 -0.4747642260337695
P 4.509458490121255 1.0632275391181183 3.5548691328690314 -0.07096270436180681 0.8916403215015031 2.71440719552459
P 0.19314678692480816 5.511964743891265 3.60114247288275 0.5170154213934968 -0.040737586928678224 -0.0913626081743975
Ni 1.6935856416097905 1.0571319312046779 2.539334533118695 -1.077416665971796 0.84152360735077 -0.02541329786678204
Ni 1.760384473810855 6.364907355791053 5.012913260279292 0.47280350276297284 0.8217523382611139 -0.9152335354404108
Ni 6.120676665392542 5.5828453757617735 9.202956477418127 -0.5210787928295929 0.5500870071364848 0.31427622381662007
Ni 8.744027639671954 2.2084793844255386 10.098137588419448 -0.08504155105237612 1.008185342478799 0.5955428254764389
Ni 2.253036020640227 5.0972286119910235 7.035591291078974 0.43135140626577323 -0.062382418891963526 0.601211593726442
Ni 0.6676469679674915 9.197865967520634 9.1264696923733 0.1805284658077923 -0.9580015225355565 0.46785155807433615
Ni 1.4967291128615137 1.0908519311288059 11.55883759477392 -0.8071937237206486 -0.07824689672804588 -0.08718970774363048
Ni 4.101061790450991 6.91559812048662 1.4654581927390526 -0.20809660523404808 0.1784481862399959 0.4554261878267899
Ni 5.661438080459065 7.82660704184333 7.9396936629065 0.04272839210646189 0.29133915540447247 0.9396330473306979
Ni 5.257737256514711 3.0564913268131217 4.826063462092324 0.8843093350577286 -1.208667625700699 -0.12012451079843828
Ni 0.7269441386964153 7.324915934241581 7.161801078690014 0.8387876964768457 1.0563307918357743 -1.1159387333063944
Ni 5.266767786756845 4.575218811344474 7.20268138604313 -1.6509709029922854 0.22626916237801675 0.11026844393996493
Ni 8.294939370730635 7.2443906960724735 9.036791108750766 -0.4066809001022867 -0.1250841687965588 0.7978418501921034
Ni 4.825608323368121 0.21565177134123004 10.350623086512293 -0.8444497798586295 0.09842928521319178 -0.6979097551811401
Ni 8.105560121022846 7.123824086809743 4.771780944806857 0.2924845818628253 -0.34106891852943194 -0.48828925710339777
Ni 7.393186742872113 6.228230280576357 7.047077222493944 -0.10927676945065697 -0.9633198494246765 -0.7545563000305908
Ni 2.262165886715025 5.492801958717457 2.569178629462899 -0.3751172663633927 -0.6274080496161517 1.0221109514209556
Ni 2.2512208840615586 5.452724465502866 11.326520882923855 -0.41536274414700075 -1.2312300843822472 1.4064543643683067
Ni 0.9849057503280909 3.1969251026085463 3.9566952187351183 0.6928937900237873 -0.05252146693748374 -1.5198091605430792
Ni 3.60303707812755 2.9732840211621 2.824162875273743 -0.44022608304758376 -0.9171135260719431 -0.016411094368171737
Ni 1.0190772767643257 3.164541621160254 8.192390475407011 0.4017852625728822 1.134061153938718 -0.17627714673060607
Ni 3.8409734889472933 2.561437658939342 6.936939069554831 -0.6481421968397095 0.7904581561335225 -0.22303034372574493
Ni 4.095706686017406 6.71864225590568 6.1588884510591075 -0.38152214144847196 0.5788044296758355 0.2537051471017824
Ni 0.8370019199163736 7.324256705533905 11.022897298175854 -0.08317390171601804 1.7269264325829936 0.016553533483306973
P 0.23861189448185546 5.444497652452283 8.036296857118703 0.47552527256951005 -0.37186816329847566 -0.03191844597515148
P 8.59956624738854 1.550433676211484 7.814117818518458 -0.8881459351949994 -0.2471737737411679 0.6637436508223924
P 1.7912327651179842 3.1068365329130185 10.55464263184863 -0.8863929570596346 1.2755160507838164 -0.37629174628746803
P 3.973902894111504 6.268307773790947 3.8724503051592754 -0.9582745736912851 -0.8429225445808258 -0.7566738605942258
P 7.026700734055594 3.8381649940419895 10.207918132360971 -0.7136276801370292 0.4335360726219179 0.5773941795918701
P 6.602482545401112 7.861672590773535 10.18856841521115 -1.7240092589361986 -0.562125683468574 -0.5097692813540446
P 2.3673986556266113 8.345257485239806 5.8486301357422095 0.1575623439299222 0.11276215689609612 0.20763792043007467
P 6.933270868170476 3.8911471149725894 1.5851262642426898 0.6815657666054779 1.6528143839589278 -0.7196643732494121
Ni 5.3147740855240295 2.8911874707308614 0.5223845676515984 -0.6376821778486501 -0.1801955079484058 -1.1213758451615656
Ni 1.5799996322242305 1.0292275927564842 6.966875277307505 -0.24775921393099265 0.011068856219651906 0.17343839173023035
Ni 6.856854521261539 1.0011245826429636 9.146347695542286 0.573904935491689 -1.4890826779934998 -0.6542241413677313
Ni 2.5943900637928885 1.6587639169961221 9.164904532136847 1.644307889149813 -0.7033733493988725 0.27306272569278783
Ni 6.304357650517545 2.1225900112926035 2.565438183836607 -0.0350176537257655 -0.8765944829119743 1.055734295902356
Ni 4.1542335525166765 6.785034714245849 10.629979830393632 0.5048721011627434 0.21512728682858437 -0.9327849140606129
Ni 8.099545787881585 7.199364472285193 0.5381311032348072 -0.3708366367101678 -0.03019657818803832 -0.8470069990628445
Ni 7.716759671978013 3.843303365749764 8.026357855534211 -0.24661147347979465 -0.23375595767336516 0.3924128202190467
Ni 3.1388678236818675 8.347000377576538 12.389003403296998 0.6561632673719732 0.023299593957888904 0.6719750375932492
Ni 0.05702057405488183 4.931563534699078 10.218491980221486 -0.4572264742603222 -0.8924296501720179 0.09867456845477844
Ni 8.670058566458636 2.102677692108698 5.695813696878772 0.33002063113507035 0.6537592859161708 -0.5161944681540982
Ni 3.6042471691799953 2.322634317216353 11.446042659837572 0.8021757016807668 1.3159075672269855 -0.8795178272063562
Ni 1.3211756049544308 3.341341342240751 12.741317801004536 -1.107254061048203 0.40708919128429893 -0.4408102376858279
Ni 3.23926022838367 8.482232567952492 8.02556497497895 -0.03478702577219815 -0.37579603759797214 0.41277287193263745
Ni 5.426084401288571 8.019517228875793 3.7547517923014473 -0.8050085431438717 -0.8093171978215546 -1.066231595889254
Ni 2.8464592544415717 8.159463356038142 3.496357618271173 0.4916586877962629 -0.07510038067926421 0.03939804218164828
Ni 3.417071368851286 4.32822477869187 9.668832502079573 0.10904537016614121 -0.4804779885890951 -1.3179508229092591
Ni 7.0341418909751114 6.043257929626728 11.43866742578882 0.7380621590303095 0.3921122582594924 -0.15451815778695968
Ni 0.3509128594139599 0.1675605855897702 0.3678848379510264 0.3428774324930805 -0.17120281753149225 0.6158769090481007
Ni 4.672549866294193 0.42878944306305 1.6097759995916185 -1.577259175130432 -1.1717666389092916 -0.571969151921557
Ni 5.870928321016088 5.486895991939101 0.36009419951113747 0.6977166653337273 0.5852167609600825 0.731860658205288
Ni 7.996543559939805 8.838640505018791 11.438443468638814 0.31100218105103855 -0.33348313576237404 -0.017753210218362975
Ni 0.1571203895768392 4.644771955269389 5.615282137338495 -0.998023828564765 0.26536587126916233 1.9016472905700734
Ni 7.686453212485412 8.585921116192674 2.6202363443989 -0.2802013936200981 0.9244193157047369 0.6250776017107622
P 8.460432867947981 1.4601103127296609 3.4478636708709143 -0.19866528461781915 0.6214487467089234 0.24616615841225992
P 1.6947686410715102 3.2046823280865393 1.7671257646366079 -0.1154330188600399 0.5358955461274513 -0.5420541095296793
P 4.919959303337936 1.0731340307937391 8.040817540557915 -0.5841646655464843 -1.742833333621237 0.621394239321904
P 8.375293028825142 1.6513498516673302 12.34844006755538 0.03096662358484344 1.517095361156342 0.8054212052012579
P 6.146251127038266 7.6473871386579395 1.4303935468618707 0.14623534895287718 -0.585857479867875 0.043047980229409734
P 1.9075821167576374 3.1595657989968386 6.091415038248956 -0.5468705570817163 -0.5447463116498618 -0.5945123273293954
P 6.850171928882361 4.126545946794294 6.013949343725883 1.4628389138056226 -0.6727257997163446 -1.684372361270867
P 2.5733850504496854 8.63021586703034 10.342454971908284 -0.1868731770788975 -0.18052795158716006 -1.762493788164642
