# total energy = -340866.642661725 ev
CRYSTAL
PRIMVEC
9.32105018202239 0.00000000000000 0.00000000000000
0.00000000000000 9.32105018202239 0.00000000000000
0.00000000000000 0.00000000000000 13.64229912758155
PRIMCOORD
 96 1
Ni 5.361747658831601 8.813024922521953 12.19636571243417 -0.6454024293110432 0.28663326528837085 -1.0813946767829377
Ni 7.369529817194871 1.1316220894606515 4.0880103145512985 -0.5766470170132004 0.2525214112063264 0.17665792710879252
Ni 4.131424969681491 1.5293419769051269 7.7403677961017685 -1.544797969277933 -0.3366597337181428 -0.18512971202522954
Ni 5.801374987602341 9.313211113903176 7.706835318305675 1.9143446835320834 0.29276123256297965 -0.4075460763160594
Ni 3.5641178964073776 4.244936718006945 1.4392624164689283 0.2594070825825662 -0.3746896919076709 -1.5745803427466882
Ni 8.203139292313148 6.913562687568939 6.830426377364932 0.45210380832177616 0.5246965920878383 2.596377876692283
Ni 7.275527026764405 5.6797446046249345 3.028317836738923 0.1204196734413539 0.8981233581226855 -0.3593777441409488
Ni 1.5741203016674428 4.9464575919164835 11.254023391385452 -0.31118987158181244 0.5874495069453431 -0.8458101505412658
Ni 0.31417345103531835 2.2889702772443656 3.796979166746596 -0.8005579635716857 2.063940464316761 1.076644820802778
Ni 2.4270243505280167 1.4438306631312954 3.7292999539516964 0.9278494244322084 -1.1113387726405375 0.6535638820759131
Ni 2.4195115841336734 4.226415791424364 7.01261935137287 -0.3904302425713792 -0.13071539894040712 -0.8930611131084297
Ni 3.669566936381582 8.315038498968352 8.527350582219519 -1.097027241113872 0.1235582190703356 -1.865887873582277
Ni 8.580492685251865 8.835115811299364 0.5511294586909576 -0.17791159701023554 1.8728069692996134 -0.4830550052876519
Ni 5.071993494892935 5.698796831064187 5.504626307655839 0.10695814861980933 0.2876542503537175 -0.3412846340846638
Ni 2.006617027098638 8.296461646085069 6.541141062247154 -0.10834705854753597 -0.5354065223061747 1.704483530198445
Ni 7.821749884673747 3.5349243674407718 5.011921191098561 0.5834588977287114 1.1810645192714497 -0.5663016692231344
Ni 3.606910837494761 1.706674955382034 11.307460039601498 0.815238448401996 -2.3412205705250067 -1.006417451945099
Ni 8.880481362219054 5.086935138230568 9.853259708214983 0.08561953504303318 0.34167801286834054 0.42398005350236656
Ni 5.542781094204977 9.13429355690637 0.8906589623596916 -0.36801305121844363 0.4345344319794452 0.5247446717169544
Ni 3.6362255401128887 8.28317914966827 1.891914048568224 -0.6518546126942902 -0.6169495732869891 0.3718560791136177
Ni 1.684472214003217 2.716722588165981 12.355898281502546 -0.8908296526747496 1.0354606332549845 -0.8396166201360443
Ni 1.311928482924898 7.857710496025331 1.1440433208466345 1.3755839000416954 2.1475416833781855 2.03951601272581
Ni 1.4834171629784136 7.296107905422855 9.78755842225492 -1.3243094181374355 -1.7203577782265402 0.12269175730498223
Ni 5.639822546973602 2.816812024322881 8.904928612466056 0.3752352799984957 -0.27873303660468773 1.593916838291771
P 4.689644019091477 9.706848381396382 3.3603028824429155 -0.26975860102021926 -2.6809918532889374 -0.07620904036241069
P 9.016932214882573 6.789201236907237 11.538942726628404 0.22171316757621817 -0.12694384771311687 0.4260695890415437
P 5.654661658759949 3.270206544116506 4.632842471783176 0.5659301448163286 1.660595056345611 0.6280210006098023
P 7.6155309718840964 5.869437295557051 5.117512843139556 0.021644317742653046 -1.0611284703347337 0.33545388633549966
P 7.4597389402276955 0.570008313598034 6.135419053277189 0.4883638190950751 0.014591267550613582 0.6430794376048214
P 0.4652751302728187 8.511852472189897 8.368322281962477 0.7589731981513639 -0.6553397430294133 -0.9303626777723654
P 2.4658931295161217 5.234403472132441 13.084151927147788 1.1560312304519058 0.4473552378931973 2.09442989115487
P 7.74532659476404 2.7854094064785344 8.962690227936415 -0.4615562119839277 0.9431328329538402 0.7194998226470899
Ni 7.2151732272564955 1.3235425113707444 12.999268852151845 1.31037840987864 0.30815982650623697 -0.6493747836952299
Ni 6.057946213124303 6.993546618623359 7.367414870923311 -1.6848832394690145 -0.7829302231875936 0.4427177391211859
Ni 8.859676778357795 4.242140402971829 12.532456680714725 -0.9098090219907299 1.356686034695928 0.43205923096607524
Ni 5.464987609928064 7.329085780736984 3.4579408824190305 -0.42569703619347327 1.5414141404073647 0.9004885159207524
Ni 4.722006705097881 3.6548769613971093 6.933889101559195 0.34939569322757247 0.549323646607899 -1.185977640302351
Ni 2.7830418597488036 7.1995418262102 4.519024993013883 -0.1762244391157997 -0.5334871937962747 -0.5829472481996154
Ni 1.85533638369889 5.6568148213369875 1.9203171524849036 0.29481914353327293 1.9044446508095523 0.22774574692354327
Ni 8.996258125722953 2.5399954779466825 10.841044012794352 0.35834930287643446 1.7768983936257463 0.02542203961753041
Ni 3.9317494340740105 3.762852005953035 12.05148396993978 -0.7666497408600151 4.433777155916564 -1.4025912818684747
Ni 4.601625342836159 1.5501838449668544 5.197742849917066 -0.26205711861090353 0.32434517801684787 0.7816616408878151
Ni 9.084081059925813 6.57904884096819 0.36103782681383045 -1.3670038716821682 -2.2824767768268948 -1.261849609040317
Ni 6.942849427036715 8.055820095213146 5.390072465927298 -1.3716151452019345 0.08468828147801544 -1.9157626469255327
Ni 6.5639394187284505 3.935990511877269 11.15096986129133 -0.30194315617256384 -0.7650348309644115 -0.268314412374525
Ni 4.434638729989179 6.567928828178548 13.005967890870972 -0.7312695615885083 0.5430918067655743 1.2788494860324233
Ni 7.788138177951659 4.716544569729288 7.641638301156946 -0.305794411597854 -0.370195146471427 -0.330533823326063
Ni 5.940519623749687 2.0032987332569676 1.1250330391329078 -1.4679348402712913 1.522837662956758 -0.9710583557195147
Ni 3.2229861042235224 3.7004755385697257 4.664110866505838 -0.36021206711678605 0.2718825893417576 0.26052654089899
Ni 0.2758443608489904 7.343486803167828 5.17779859898161 0.22579710783760465 -0.03332021141868455 -0.12538884452117116
Ni 9.446697872629471 4.3174078826670215 1.452563554985961 0.7556158516433567 -1.85169461280103 -0.35744247479144886
Ni 0.491207223803468 0.4207158501882534 5.59281089860324 -1.0494237803032958 1.5521808920055655 -0.5165317968888588
Ni 1.7122675854522649 7.435028836367392 12.601937652497252 0.3546510280892408 -1.6343682614385984 -1.609371225173628
Ni 6.862669753929837 2.5010707726578745 6.827411017652066 -0.9343581720850037 -0.6832894341648039 0.39161500690809975
Ni 5.537663837690717 4.547740352109483 13.622463077717777 1.7730880187407205 -0.2705484439113663 0.8109359643719002
Ni 4.37896409764003 8.681551510620938 5.793407353962285 -0.16017458474178867 -1.5459485379426086 -0.07896937671636722
P -0.057640441818835486 2.389991818412971 13.522178831613429 -0.5669688704934881 -0.7912973642053662 -0.0326165004834406
P 5.013177668654339 0.5321471401275821 9.725403795864397 -0.3351975473503194 0.0976417563148899 0.514332732355011
P 7.615866529688311 4.833766096001329 0.8764443609311879 -2.4353609985548577 1.493097455579848 -1.841490932795151
P 0.8002307946491153 3.2498214075105145 5.937319707244503 -0.7083623179730316 0.028362353192776957 -1.0077629102294
P 3.2712784648799667 6.5104645542069255 6.590839969366262 -0.11311979734583098 0.576036122902079 -2.226864072558597
P 4.7981969687546595 5.087186806583729 10.189419652266404 0.8802102252876906 -0.8071798397635777 1.0418063729673541
P 1.9393190452535252 3.5735041938752485 2.7961798798887876 0.904296576812933 1.7308926163195932 2.1012957650367685
P 6.96233974283147 5.9966230244042205 9.245726711055722 -0.03312377913716231 0.6736143729688849 -0.1168296420972504
Ni 1.5547698016244438 1.1606851237256184 8.136662494983348 0.7908137397007283 -1.5482715296488303 0.5396732680023286
Ni 8.447732968434698 0.9464873920357721 7.993295423132976 -0.058681058780976354 0.0271117686151275 -0.01580174291894698
Ni 0.8674514117782565 6.0746961401846455 7.434316708138449 1.2149604006879462 0.22767529869692404 0.4417636027380327
Ni 0.35818558547801266 3.092463439434449 8.169172453581599 0.6496959144800747 1.6992582772437639 -0.4574211067696316
Ni 5.421327811179795 7.581611670508146 9.591668165099977 1.4129672257861603 -0.2599624408654039 1.8887023003736312
Ni 7.264118061421134 1.0986535351966398 10.337001702979704 -1.577524770086993 -0.3917157941520222 -0.07279127293011334
Ni 0.19956834353113362 0.32684541866945005 2.7088146092466743 1.4153555235126785 -0.6120773327963523 0.0788145963060578
Ni 0.35103074740816387 0.3976881958740774 10.70141468204092 -0.523966141679717 -2.018344006633885 -0.8809255061871604
Ni 7.843598426148116 8.112529364125288 2.668324899643214 -0.9341697102232814 -0.9257485760391218 0.964156743503675
Ni 2.5939457160241775 9.148731863537682 10.33977098696948 0.7438553686733189 0.9640605842454429 1.1597390183207963
Ni 6.482603935407058 6.301067163327361 11.68570732124644 0.6612059720022032 0.3827267032795344 -0.3293153775379296
Ni 3.314667953174842 3.4078225280446564 9.218674227301003 0.15850516745916574 -0.5561550677074356 0.8756678573326468
Ni 7.801290179666818 8.299351171621353 9.080614561387282 -0.7499267716783794 -1.339528806190351 0.8027215468819078
Ni 3.7460927578425762 5.685066924241771 8.381746458341055 0.9950408346770412 0.2655885288029297 1.142167585095936
Ni 3.418634946180436 2.2808702846926474 0.08260407824232312 1.8108153580881654 -1.6940772472634564 1.2884540990017228
Ni 4.4743091192873505 2.3816867627586777 2.8629456297722164 -0.09575893746988025 1.028847498813841 -0.2487431751108168
Ni 7.759214959438447 8.595331797038211 12.024049323130264 0.5977017808009707 -1.3723787628408366 -1.1112099603721572
Ni 0.29616238589413957 4.971391400979597 3.7592177285123967 -0.20148192813100788 0.26308067477941144 1.1599182242111379
Ni 1.4393658801252276 2.16518673168992 1.4955783370661309 -0.4727762490694632 -2.3391330918683586 -1.6696052302640214
Ni 1.4343511551622536 0.4088249865539307 12.929502656235739 -0.061919106102299816 0.7737287591939837 0.7124192616512246
Ni 7.152908612474591 3.4411452822131157 2.4316718261163786 0.18666671749504626 -1.1530554356530334 1.2050775943565957
Ni 6.724559754345484 7.343207171664316 0.4431963588605585 0.020441041463171244 -2.3700287530059505 -0.10957913118242417
Ni 4.89164981722822 4.7554133487173935 3.198914492296237 0.9055957552403308 0.6448414146012508 0.3625756822529562
Ni 3.544422517510047 6.747191264029685 10.86306219738085 0.15677044415624614 -0.23340757319501093 -0.1463039974072835
P 1.7740847898285512 2.076711323978866 10.149461242519614 -0.2985534137647245 -0.4053688661590825 0.37859982559535443
P 3.411103537685858 8.876594484320243 -0.3290246801868167 0.041844189729295676 -0.23947331977311656 0.358808244790724
P 2.573691074119824 1.0504077797907807 6.261283057217761 0.9631216173709414 -0.04668017766535832 -1.8470524860433288
P 0.6106630057885664 7.188384529220089 3.2076184888955397 0.9793501634146616 0.016404409499952394 -2.65332755460445
P 5.385609547131254 2.34582868295838 12.393046394639043 1.7378631341001556 -0.483008982541065 1.2138615111968127
P 7.619352602432088 1.029500664378234 1.9616532134389926 0.2457334417502155 -0.4367666637440736 -0.8319477907368769
P 1.7903686643830403 4.873417843199267 9.070314801007939 -1.7427101777798115 0.8541898899645289 -0.007134811272568358
P 4.916080289585012 6.3862149561466275 1.703336155230106 -0.3204952081431384 -0.5655599059611034 -1.5946927972258471
