# total energy = -340884.6889142195 ev
CRYSTAL
PRIMVEC
9.13716738253384 0.00000000000000 0.00000000000000

0.00000000000000 9.13716738253384 0.00000000000000

0.00000000000000 0.00000000000000 13.37316806337171

PRIMCOORD
 96 1
Ni 5.48986600696182 3.326760411200436 9.55385785508782 -0.426128210193621 -0.6551301981217685 1.1514976042476104
Ni 4.652307558407233 0.6653612194074745 6.525223113965924 -0.6104439109579874 -1.5205753492851426 0.5257692563267267
Ni 3.399665869783506 3.415473169363492 3.346528672842806 0.11542864798466572 -0.7422126908635734 -0.24370509846627708
Ni 5.392527762785176 5.259974875497973 2.758657028896597 -0.06780076169405742 -1.4697464395587332 -0.7346726737327863
Ni 5.45193762513724 4.542734647099027 12.999655455576201 -0.10023137141893707 0.6130348116136152 -0.8792193221293311
Ni 6.239917803448471 5.694036012230485 5.02999602722721 -0.10844193225418744 -0.0007309646287535799 0.7219215447147052
Ni 3.282646167054671 2.9876435807891024 8.046260871140214 0.7319835569363974 -0.9366073731304966 0.38094544300939553
Ni 5.406114730690055 8.017279603621255 12.732887630254053 -1.6996930507883374 -1.4579579315642373 2.033239178578163
Ni 1.9514339760677644 5.705302139618995 12.0519128192152 0.3188013653804832 -0.5311469756988724 -0.5690902877118651
Ni 8.055217122613222 7.690708104032649 9.137778663773467 -1.2412260192526947 0.717796209692422 0.8019594719049027
Ni 8.031963031612605 0.07193965999023429 7.1762024319058275 0.05263999479321903 0.310003307472879 0.10050108014055595
Ni 8.62603424363108 2.4988690857415867 2.378136951903303 -0.09917644779186145 1.7752459456239877 -1.3111854791609676
Ni 1.4846617800888076 1.3050250692549763 3.3632049170413225 -0.41716714434559116 0.7199248259996505 -1.9700538041689297
Ni 1.807496178216017 6.9549194258375335 0.8916303777190041 -0.17311289007001154 -0.8640333584175119 0.26020746699667446
Ni 7.779941680736779 3.640768305631538 4.498506188360921 -0.9903778819837331 1.8848777844212183 -0.6514663761169361
Ni 7.7488022142809445 3.6670376618699545 13.13218367251146 -0.006062147033679882 0.29905863553591716 -0.010566462661936641
Ni 4.266253099127465 0.5273717175248436 11.133897956948703 1.1751334984989954 -0.006068831901899226 0.4418209383385294
Ni 0.47375481929631236 0.9690331500900903 0.914588424496272 0.7505852311979847 -0.9569476273497454 0.2169725675674392
Ni 3.8504297484999563 4.772625778562873 10.497869786004598 -0.9061135754170138 0.883954008600839 -0.024461475476474002
Ni 9.023327418797196 5.121190440052649 1.5440926579258623 0.47744768640320356 -0.058736080388627876 -0.029092032269949896
Ni 5.982341054801181 2.319067905894784 7.476469854019945 1.400270604155098 -0.9096426716161948 0.3473071861296599
Ni 3.304008864406121 4.435299832959445 0.8902397008426609 -0.1342943745409171 0.7479719619448538 0.2618398603937749
Ni 0.8560584713636028 9.078753476168409 5.22048403805017 -1.8536987877152526 1.3953261156656294 0.21848823288101726
Ni 7.010893713251983 0.85190288763587 0.8329423515905351 -1.1012405078642713 0.4182045844711701 0.4454886169981037
P 0.11912307866138501 6.383252548252657 12.947579997485903 -1.3474999973212858 -1.0452297968266062 -0.5110823437385134
P 3.8704584194128633 6.319685274739384 13.031109240590158 -0.21463672034541098 -0.4138244531256034 0.3614701078936033
P 2.416479247410526 8.824237678595857 1.8925705163254596 -0.8406671728877456 0.6564327189832759 0.8062938376141985
P 6.511867316395944 7.978684208577403 6.203772996697888 -1.4800506496982186 -2.194322134066834 1.3699768382675632
P 4.8183847128383475 1.0008670412673573 13.320758360483524 0.5220619826784686 1.4010198236162967 0.10831054888264573
P 3.9609711995512122 6.319182730533083 8.768773245121618 -1.3611204163181978 0.3309446856112365 -0.7190791901699035
P 4.627527560452942 1.2411745435526964 4.361485226221342 0.4186928369614983 -0.03730979219405187 -0.9895813542243668
P 0.16717635566780434 5.566115668808631 4.154722092848168 0.18901053513687446 0.5989847612784522 -1.425433733684287
Ni 2.716032143034958 1.5998449121727996 5.346753295325143 -0.3764858645761452 0.6940093916854693 0.6604755215940818
Ni 1.805403766884331 6.891397838161197 5.023349651669706 0.3791878368883405 -1.5996074609186453 1.4482144790242284
Ni 6.519697868846839 0.6348284608661555 9.546864267169601 -0.11396620450652631 1.2995638357616393 0.35322560849662393
Ni 8.406769637838636 2.6520536969892565 10.841935306272878 -0.31944259850890794 0.30248103095390483 -1.1249015989266369
Ni 3.102817575705707 4.861475594236738 5.670717961058158 -0.2643798532068092 -1.2962237156448129 -1.38907730654244
Ni 1.8556490503469576 6.853624788182201 9.61926626782963 -1.1833461162167747 0.5252082416169342 0.9303305389828493
Ni 1.5205160249164758 1.533527351275956 12.047365251006555 -0.916913237135679 -0.20093402604733782 0.9070150041853605
Ni 4.007835731080547 7.0817615835076895 2.073482775726555 0.10518820120358012 0.17189907226756845 -0.6899514195660117
Ni 5.414411278677701 8.067789864938112 8.274553912028026 0.3172931562660729 -0.892121889123612 -0.3308485263530044
Ni 6.744298580393452 0.5304746995695623 5.090803876189527 0.05004035238684285 2.0365309619555574 -0.6751624341822954
Ni 8.337080462175889 7.3168426260475075 5.227170617144178 -0.3469480030180283 0.40551284793611453 -0.15783770907849592
Ni 4.9018070510841705 4.5109921275956335 7.567969448236119 -0.27576392667403476 1.8220703621766943 -0.42346506153916097
Ni 0.7981032460595934 7.692645183518751 7.164795592139553 -0.46782636126335564 -0.7146005855732597 1.0838961030485528
Ni 5.915484401028488 2.164704600054156 11.70182956050566 1.766974963864447 0.19423373120902676 0.7366639931312022
Ni 0.7725941021477982 7.89422023324943 3.224310835587351 -0.0920200392527383 -1.2821024457520824 -2.1349059968920456
Ni 6.925643941528704 6.066010096566461 7.443278179768929 0.841529777998357 0.6441454169754907 -0.44230764816696083
Ni 2.2850410945445714 5.563292284085962 3.0019953296042954 -0.9686523173811833 -0.26568803049527145 0.3464741487054033
Ni 1.294133565729344 0.9815236579084956 7.3642160978003135 -0.32867234463729206 1.4837990609970575 1.2704162676634057
Ni 1.0511762849016948 3.394603879050955 4.572914710979197 0.4852353007684224 0.5724941711870914 -0.06311621173419453
Ni 0.5631720530649267 8.415121008830607 12.32187682568942 -0.14147495144975633 -0.15212960295012512 -0.1586612334210558
Ni 2.148568362448228 5.6858582474188735 7.647606258033394 0.021825066294891445 -1.1324411018367915 -0.35091778629905374
Ni 6.2783852781489 2.2276139975155465 3.2147762014187293 0.23916144495965264 -0.4193759790714519 0.860820250796853
Ni 3.9742657780996975 6.856301978226672 6.326297842777555 1.3424845463845654 1.668418923265404 1.1789721555187955
Ni 8.378828179968348 7.735617281741106 1.0844730365776647 1.4510064399470688 1.235608158845285 -0.9188377078519014
P 0.029195990952560633 6.08841443100006 8.557878284655917 0.43318691681261523 -2.140704348741378 -0.3501251151944293
P 7.97564153183744 1.761819478447028 8.504412149689276 2.1934752126855064 0.6296914463336897 0.29287076155765046
P 1.962042227404391 3.6521075303591464 10.900081498375283 -0.8551874779911078 0.8635561616707772 0.3457133592799788
P 4.168330076238036 6.22284957476904 4.257027301216533 -1.2051346728467762 -0.201610226178756 -0.6960778441787238
P 6.777457360841875 4.3076261930570485 11.053270678206646 0.13388016982163395 0.22512527858156067 0.3785879985208125
P 5.9317759704799995 8.048839379776902 10.613975771994703 0.33280847829285265 -1.9013459572795706 -0.8898469770465063
P 2.6077110236588097 8.66030775850075 6.435931059390515 0.8554813550824427 0.14701773564485648 0.2056705122910587
P 7.034787405969706 4.014377942929836 1.896435538130277 -0.7731857422063201 0.18166360785350003 -0.1437506348578105
Ni 2.844363658989239 1.7321876446100943 0.7006453049901766 0.15373808508782555 1.6617397114730155 1.8407381137895267
Ni 0.982035339282183 3.495907653873676 8.831840715578807 -0.10240703891401719 -0.07566576626443097 0.04525527229337367
Ni 0.19081968999911778 0.5012777949002628 10.07681632076461 -0.22346383171873774 -0.1434978954170561 -0.6324628384312398
Ni 2.5641724210584433 1.7371948123383212 10.101622816504324 0.13077479142343285 1.7386036118106059 -2.8762098027881047
Ni 5.09292004415642 2.831452841471019 1.3673926326903008 -0.3304101532640052 -0.11143032545855001 -1.2136553087232775
Ni 3.6986431238625395 7.373794590372394 10.934864867185162 1.0358768948567967 -1.2046219948764159 0.4328732422269384
Ni 7.23165681449594 6.6351185672829 11.733577562309486 0.778738296593433 -1.117740048181191 -0.18850737024821082
Ni 7.716136840871435 3.9017075318773444 8.661947880046766 -0.26429115014774485 0.9520555893647668 -0.4049850004571025
Ni 3.002336145947841 8.789763146043667 13.236414082048324 0.7880546888983524 -1.5407004021697916 -1.643640944989776
Ni 8.946840190598316 5.067820245343575 10.59090716549205 0.5454968166626412 0.43070863047545177 0.19709871146164765
Ni 8.642782671451956 2.6444515737230434 6.453288936276122 0.182575321034492 -0.6468820991803633 0.9778398974177223
Ni 3.8734462731485024 3.0871747451386917 12.121011733864732 -1.9869873466994747 -0.9004764317358943 0.4836422452496897
Ni 1.227706358823853 3.4736860627878223 13.136917638934806 -0.647145380144079 1.1855829759670937 0.5904875224407186
Ni 3.092830651751415 8.801504406136315 8.722368313111863 -0.11159153362676263 -0.2684036296542216 -0.4253656209959836
Ni 5.782977199578222 7.771371017727515 3.9562646446300263 -1.4053037957036314 0.8058629207243669 0.08916997139845288
Ni 2.913285312591456 8.634842472992414 3.995086641425081 2.5901558070419712 0.2026633500336187 -0.06153626884158434
Ni 4.654856828108282 3.036436054637152 5.568667679659897 0.9206428793814404 0.660315856087766 -0.19553650918085033
Ni 5.818274077195266 5.772314125237272 9.569959371457678 1.6415136142341276 1.1011800869399808 0.9737726693268842
Ni 8.189167996510676 0.17482599220443118 2.882479352745258 -1.55756863868004 -1.0051995203775979 -0.16321131468558342
Ni 4.738315715023655 0.31345418208743264 2.2704828457464257 -0.1805552052806697 0.7011912541458891 -0.32806222185711886
Ni 6.7781060997263705 6.135580489053175 0.7197173144776362 -0.44911078713172337 -1.2399548658497548 -0.49489339268347676
Ni 7.19593962717908 9.073810268611892 12.031170535529348 2.391546058252436 1.1756749728247624 -0.9677092367416237
Ni 0.029797216566643345 5.242449788449179 6.251500990545319 -0.017445192059640922 -1.0037396480026197 1.395983289633654
Ni 7.475856750088259 6.548415985945045 2.9636146579940457 1.8679046469019895 -1.1829295975046468 1.1856076585574422
P 8.501878413172784 1.6201751096094872 4.280497029367489 0.8572564447049946 0.48105417280753926 2.58065892329513
P 1.44676080976639 3.5168317671905363 2.0166468534274866 1.8051306489985621 -0.18009857735922533 0.1796954283835357
P 4.465580405680876 1.3587698878269292 9.082855150608555 0.6677064921248823 0.4808114606691139 -1.4947226498880968
P 8.453990518896076 1.6352697101332656 12.64802161956104 0.19127927656639315 -0.7121675506517348 0.36688742225443266
P 6.290528573606589 7.925515031550848 1.7435268693377028 -0.1195663243021231 0.9549359962363554 0.2603895011004935
P 1.7996016655934113 3.4356206234524334 6.700171544213346 -1.7973849436148723 -0.42473364383893947 -0.7382382795968576
P 6.71023522037369 4.105036917746381 6.4270241486214 0.7410520948965689 -0.2903896470070096 -0.11179747898998164
P 2.2060411453141895 8.991027532083178 10.899626467439397 -1.3884432725028668 -2.340449753797253 -0.20444255342122855
