# total energy = -340868.7045476017 ev
CRYSTAL
PRIMVEC
9.29485762726850 0.00000000000000 0.00000000000000
0.00000000000000 9.29485762726850 0.00000000000000
0.00000000000000 0.00000000000000 13.60396367610986
PRIMCOORD
 96 1
Ni 1.4277365759605956 5.6363829575167035 0.5150503580076099 1.1790878551610533 -0.388230406706583 0.8437262714290438
Ni 3.1636720346769702 4.521278911307319 2.297301161825733 -2.829373816271173 2.6740465323193563 1.3637516832934578
Ni 8.96035410347922 3.7015468445964896 11.205707236598947 1.688791316274169 -1.1398263385572693 1.1084874192346716
Ni 8.123714691098185 0.017977183760719953 4.831270772061879 -0.5320368345029933 1.4864881777934464 2.153737784886568
Ni 4.078025750053396 7.23503337195107 8.800784638502147 -1.2793531651417192 -1.1726469846317158 2.064684541571638
Ni 1.5338466684130951 3.136391628111791 1.1868017879885415 0.46603044570519747 0.13597587600839808 -1.174434929770074
Ni 4.98912626532835 9.154189060382201 8.02718201974441 1.1238849847366645 1.2695634327448069 -0.07349164143124762
Ni 7.382217439398978 0.7043698731697505 11.360887669896268 1.498102364993607 -0.2793241332214673 -0.8614190607231164
Ni 6.397334345822697 7.203979253268186 8.349935719754164 1.0534079617620244 0.2873575450489051 -1.9517190104154838
Ni 4.943897489060493 6.693886772215215 12.20552995452692 0.08412212456190028 0.2315304107769561 0.02975511977524553
Ni 8.44965745669312 2.9407255842945554 1.5513823464457583 -1.5059529713862774 0.045306180135967135 -0.06231634154071848
Ni 2.5784956952820863 7.339767825503519 11.4630530248543 1.0868986373203022 -0.6774558582021623 1.0771333304034223
Ni 8.326184570556208 5.107319672443451 9.718644374102212 -0.326702879615747 0.5727541097166975 -2.5171837855596197
Ni 5.418232653569598 8.675122813439815 10.478929321130275 0.0750121918408321 -0.6678944397659723 -0.11947942101527166
Ni 1.4008837328373238 6.418368608193054 2.7807313443328034 0.052345603481251786 -0.22605601792594615 0.1706513159033964
Ni 3.205322290833212 4.92569815820713 5.292621950223148 0.06683608378794297 -0.29356573074214604 0.3189016384037734
Ni 1.3878709324314464 1.772817453009605 10.75015140204701 -0.1911072697649031 0.283302401142925 -0.5755514699561766
Ni 5.24216016922064 5.287872278075003 2.37541514369073 1.6272915570974749 0.6287187980077753 0.08732623332149476
Ni 1.9898430792073456 4.1573015890974885 12.155767146803356 0.28833122181608406 -0.05293155789170884 -0.36737284653128344
Ni 6.12058926061941 5.951469329630165 10.022312013859516 -1.6528511507341341 -1.0344314206595218 1.0316579716794425
Ni 8.714244868374344 7.2387977892113415 0.3226765526930611 1.209322999896511 1.2809485346532972 -1.1766373367380316
Ni 9.24415398547398 0.8911844242537597 2.4819202675841217 0.8732021694009736 -0.769092803083869 -0.6537669992256547
Ni 0.4381149640650882 5.99437439153983 6.657602437254913 -0.7812998866730222 0.8963904345919788 1.1455542421799818
Ni 6.966133146421042 5.209340027625531 12.056947940521123 0.0908635570507919 -0.014150837579085309 0.5156216263697636
P 0.507939792071541 4.281257807820905 2.5598715894440454 -0.0970293195418716 1.4137519264709846 1.0813226858944216
P 8.417227699110187 1.547816839134548 6.961270077012216 -1.2371171392906435 0.3560152554266191 -0.5417162665742864
P 4.185715968269466 0.33871297022181873 2.136475032123748 -1.0633434757081817 1.0806688543605065 -0.1699740873307137
P 3.889563220746556 5.4594646411413645 10.709081144994574 -0.3088918195762551 -0.13169190392106353 0.23015487058566816
P 1.688615339526144 9.126852884672426 5.3746267594095025 -0.09992489592211178 0.6744571805851546 0.3573159765159137
P 2.4231972172953693 6.15689497375181 7.544240746738304 0.24821661318338545 0.41671488729952105 -0.22505971545094786
P 6.901691899839649 3.5008894623378564 10.500273102253145 -1.196752362320352 0.3233344773641464 0.15355605098400651
P 7.707221424393206 5.69576780165467 5.6416457057951375 0.5667061037504046 -1.742881156140037 0.3090663974809064
Ni 0.9384738704144622 4.983772427447075 4.658800044968119 -0.8139521254904045 -1.3673977646864772 -1.3393639984777128
Ni 0.5264151801906575 8.73168202091822 11.989839069856526 0.642094705094049 0.39449387111779155 1.4183318325321832
Ni 2.365457562923004 1.9414819359846447 3.2220716239270626 -0.28154993722819255 0.04575535185824378 1.7039952777081169
Ni 6.485923632014425 6.910698616692002 0.7726452484421605 -0.2132516670724263 -0.7039618749124908 -0.803101813039462
Ni 1.2405660318369116 7.845882107575265 9.746940708584793 -0.684813327008498 2.1087043987960135 -1.3878259506338422
Ni 5.622951888526352 1.546441200234498 0.8881310635870948 1.1177801573905073 -0.5978285361868221 1.0401318134784086
Ni 1.8075058609487016 8.82118220313836 3.1309931749148383 -0.846162391674362 -0.11314756525997288 0.24859559378935894
Ni 2.3054034890498785 0.9463001403728543 1.0176920813424721 0.8581028518656898 0.2630151116487986 -0.1858457642556477
Ni 1.867680767968453 7.964317180983616 0.8773062726208911 0.386101019068406 -0.8057091687553221 -0.7740419195590282
Ni 8.548396727201434 7.170759432803467 10.772135598846997 -1.231189718062615 -0.34980835528495885 0.03995262913353764
Ni 8.18162165290434 5.785035612438991 1.984029145883148 0.24685469983885228 -1.083380853975031 1.1374966619828282
Ni 5.556540132169212 5.059571989811312 5.169356339406986 1.0765080381145975 -0.06639873914020823 -0.5482458401626882
Ni 1.0758797478430973 1.6343333721187685 7.735648816365588 0.3976951516639086 0.8211746113807729 0.11354042982301736
Ni 3.1219288299464014 0.4727169298300601 12.25533458910893 -0.8848243270209342 -0.20149015566112397 -0.6324520397979624
Ni 6.776843374802685 7.363878685684123 4.6824842711925605 -0.5963156990867214 -0.4806672217817658 0.5787828324092806
Ni 6.7237232645744065 4.818100888565387 7.567095871679741 0.6068232834862647 0.08276458209274133 -0.39608795507778877
Ni 2.679902589873604 3.7394140937775937 7.614125061832326 -0.8507505252656768 -0.285119913967638 0.10068619956816852
Ni 2.379938950803259 8.549354097517009 7.793819752122834 0.6162970273046547 -0.27845432902200434 -0.8706932869361907
Ni 2.1339040745578437 7.039246494987208 5.3142798975272445 2.0317659364667464 0.25076766174001325 0.06482008179917868
Ni 4.794445476398988 7.243333679638533 6.296703571826815 -0.1811468161180816 1.0318202082889198 -0.8259915731534421
Ni 4.41372811595274 2.733756993839072 5.090290564140873 -1.8711663483723968 -0.006510290314692014 -0.13041226587769153
Ni 5.5690417154162875 8.148253114720697 2.744517650288989 1.2267016003842743 -0.19458237279769713 -0.0760761143289722
Ni 7.167664245278355 1.3873225358429129 3.18825228515793 -1.9732638264657951 0.38199573865078085 -0.44101541171809855
Ni 3.5912168868695127 0.7359835422700869 6.379510527209617 -0.8687865568317812 0.7146597209459692 -1.6132402212107315
P 9.246012956960534 0.25117400291999337 10.120967630650933 -0.537136617623404 1.0764280768062817 -0.8759468220256463
P 6.758383787941205 8.642293376987274 6.752327258838012 -0.39079071123459147 0.07720611416835736 -1.654942486045524
P 4.315156152878217 6.724429673739297 4.022488047406853 0.40558972392063697 -1.0185391749092976 1.1773808997722757
P 3.32414774825374 8.985896371704472 9.98804373347638 -0.9460970577884869 0.7840720501015206 0.048343167190078036
P 3.6637725439897135 6.37550072571312 0.9702018662612217 -0.009270883778964678 -0.04469682868674237 -0.6662841578560589
P 0.333827593155155 0.264065970179245 0.3955844849099637 -0.5710949768467196 -0.7369285596464986 0.46629038423480335
P 3.4435680765499654 2.667150045475844 13.173330029627515 -0.6302234075777597 -1.2459270242727898 -0.9321735057288592
P 8.633546916143038 6.920486101568709 8.417901576274064 0.21017302814710254 -0.24756432431136718 0.2952929978458979
Ni 5.906835424238006 1.6633890964536069 9.6565287008505 -0.5287666483921539 0.8767808878911675 0.6021449041739888
Ni 8.854745933328092 4.411227799303325 13.299859994374065 0.4765097479699664 1.4906867892558262 1.4661535800011523
Ni 0.04180919821834156 1.9872591088410356 4.674185822476583 1.3102010037605112 -0.12739584764887094 0.4324616086108165
Ni 7.306343518175279 0.24136328089970494 0.11000649668831641 1.1673114313514155 -1.1066922750074617 0.017120204620054386
Ni 0.16082612970198495 8.680076972451483 7.114287596984931 -0.9342810389901652 0.17180445567123315 -0.6162864857816935
Ni 3.2711019968849233 1.4487894280458193 8.523359169734782 0.8225938603258026 0.9143310782307995 2.4362567708962493
Ni 3.810965906295055 8.870658729252995 4.261469056346539 -2.222205747850979 -1.0235574540594952 -0.758159701111133
Ni 8.895977920899858 3.728985263738026 6.303655195700784 -0.41347452598535245 -0.3393285387995575 0.6018489702001247
Ni 1.5164559901563828 5.668422331087461 9.795220986547829 0.8946621390469623 -1.7067772113286284 0.22542944008554075
Ni 4.843708220792668 8.361374900796674 0.3911127289990582 -1.8023037210727282 1.1023437682307788 -0.24768670882184438
Ni 8.462698141671297 2.4425769950426943 9.367783954701506 0.32139458002895616 -1.227540551345802 -1.703057853495512
Ni 4.484582814162744 4.593156043834927 13.36130922634785 0.24993616697765345 0.2899049940611072 0.2978949542451192
Ni 3.9746948199732937 2.71250894974776 1.660744709513984 0.5509632390938511 -0.9389427061318927 0.17611773833460637
Ni 6.612631128537942 2.580587038204459 5.5463771350522215 0.8224478216662415 -0.9458774855785129 2.1678181742390343
Ni 0.20697230839845687 2.130130362440139 12.952237903302935 0.2588242134959026 -1.0004591774791352 -0.22583927392944977
Ni 7.775845356819343 3.651336024744668 3.931885495095186 1.0317525882757779 2.0827974491222645 -0.7311235229289473
Ni 5.592520525291463 0.34117889589873257 5.021100574897078 2.6769714192756346 0.9445945051010314 1.3396072248367703
Ni 3.5957341875818387 2.6798840001587383 10.899563446821555 -0.03265558125149214 -0.6844158344597633 1.2541650959118658
Ni 7.461483983585638 0.048612104373385735 8.792214779949132 0.9312561361209123 0.264743407193815 -0.28385698809481436
Ni 4.733461916782586 3.8848135485984105 9.375837948667002 1.1852055380230169 0.07628128836124282 -0.9798294170439255
Ni 4.406357294008553 5.370066702352985 7.577489381261065 0.9325959379782583 -0.955807085987399 -0.6535119457920552
Ni 5.328574458773101 1.0351125031429693 12.310131491618082 -0.5171406341174514 0.5864902283558673 -0.3111006543021158
Ni 7.117323297422474 2.708140366754358 12.880776250902572 -0.39429718172595324 0.3626980667634334 -0.2835458846122988
Ni 9.305546518817424 7.403223817197039 4.596398090107477 -0.5819380902088106 -1.066043648248164 -0.7651441028487661
P 6.859604785384067 7.9060477197375825 11.946238752610888 -0.7701184161349061 -0.4352000905879021 1.5942222853473318
P 0.6547232511640975 6.253180401897872 12.24598860996028 0.2095485071892262 -0.14998993089930296 -0.5996388499226835
P 1.8672624993839781 3.019629629041338 5.659561543496802 0.358962253870085 0.25720107607018283 -0.8069055030562685
P 5.733904601701324 3.1622127420600252 3.4008275336168605 -0.6951900422571318 0.14022179576894558 -0.2149568226889911
P 6.725703069207586 4.586463746483333 0.5744166124307102 0.26293386478890196 0.06994094796551181 0.27961286810647973
P 7.893797097641192 8.330181359252299 2.9438021821048026 -0.12219861971864762 -0.5363110363983151 -0.7727273145126627
P 5.296693097778701 2.2601375333522897 7.6745267633734375 -0.7254287865370153 0.18708092221432943 -1.0796337282277728
P 1.1433697076624383 3.566092887228736 9.31136881751331 -0.34148800834472154 -1.245453684180797 0.28996978586077155
