# total energy = -340858.6546020292 ev
CRYSTAL
PRIMVEC
9.39172259165517 0.00000000000000 0.00000000000000

0.00000000000000 9.39172259165517 0.00000000000000

0.00000000000000 0.00000000000000 13.74573534275507

PRIMCOORD
 96 1
Ni 3.7908280289800578 4.721829509309546 11.482912902695869 1.1258716761493899 -0.8877055052234711 0.6225491788619536
Ni 4.8317408411394265 3.5399187628801627 6.589526671497059 0.07362662434721513 0.19982896590861712 0.9345597465728485
Ni 7.905877112171097 2.1986023055092634 8.911415061263694 1.3821983200344197 0.1834188999817099 0.8099748860102115
Ni 2.105539724367481 3.0867399630179735 6.265801500249474 -0.875979989256427 -0.06270097857364684 -1.3900260436089544
Ni 2.0836382268175124 9.062204805716213 13.538972335535902 -0.42986376597665327 0.5817876806738754 -0.08390615189635227
Ni 6.992156401778119 7.651812227213231 0.2471525769832626 0.11329128992668876 1.2583295117022006 1.224381951112162
Ni 7.641471940419699 2.5390804318724727 13.963743052298115 0.17872689382267928 1.912291400547481 0.5902628080244222
Ni 8.396641586645197 3.2013847231348103 2.959113024486333 0.8744159872034166 -0.1618995378526954 0.2749303750291459
Ni 1.0336905773326424 0.7273213098038992 5.43010158777528 -0.029384366699388105 0.41015368914223554 0.4407559874091248
Ni 2.9994814665613885 7.627487665183034 7.735068910588322 -0.5767123230334971 -0.8266803716903506 -0.3318000916329963
Ni 9.08089433407146 5.63938204260149 3.0808457177939768 0.5071300439589846 -1.1135794890455983 -3.370742726808369
Ni 8.972438719274274 4.514713846586796 9.855664505762988 1.0119242406959412 -0.5772807939424573 -2.8513742318016635
Ni 1.772903686535242 5.779055743957892 12.712674476748363 -0.2618943677807941 1.2428013341596145 0.803845633184022
Ni 3.5591060525433638 9.001346442026763 9.738674632465093 -0.7470242533196038 0.6752837902515081 -0.6692219003281442
Ni 4.011956142107848 5.915846186417279 1.6180106983950817 -0.5369319578117655 -2.223398225497184 0.6294114531994257
Ni 3.107984039972531 6.779565364667877 3.9460159172158735 1.597671934458829 -1.4520356525425315 -0.17959284136740036
Ni 9.43295245463669 7.300035858331748 0.5368327531113652 0.30516577687491964 0.06666664808961421 0.09062213046394715
Ni 5.969106646368338 3.086232809987228 12.284618535353653 0.6799074050664484 -0.15389826481477367 0.43787943719227806
Ni 8.112307179130061 1.4843148285955212 4.351804083871742 0.6314899329950092 -1.971785699258372 0.9609174106307711
Ni 2.992212273120704 2.083553701312388 8.073694989217033 1.019160353433064 -0.518017894516082 1.0083522070739668
Ni 5.124311789542777 7.88148680808136 2.943044725962216 0.5359253709241222 0.5236192998632595 -1.1790960826911692
Ni 6.578807898275027 4.200335317861392 8.480473043455133 -0.08269130565264468 0.4224008819407048 -0.33750022734156715
Ni 2.8072422927405034 7.987059163981528 1.7492140049657565 0.48780203305433406 -0.5271231992514599 -0.8593223260950877
Ni 0.1076037855399884 9.276336085364274 9.81040015859668 -0.021227541920208603 -0.09387560440423832 1.9649807605213965
P 4.768290361959501 7.340880460752337 10.033740961614168 2.2575504458988607 0.39369142982115424 1.0285695625621059
P 8.070410703756817 8.276981646557655 8.796446286710546 -4.1261410631242805 -0.1244953861726243 2.175007492898622
P 4.376016884400719 4.7472059442924 4.793028159792526 -0.4842281996601467 0.4256468996818282 -0.325087198389195
P 8.288251713907552 9.182155889210295 1.4613088644452628 1.623644447263191 -0.3162186922549715 0.9331104157208316
P 1.578673467482542 5.849493664894755 1.4793297021377496 0.31329123419553145 0.28252052867157795 -0.055464865836523825
P 4.496306069915296 3.6089197502299126 9.382468187942822 -1.2802203982380211 0.9961080995992909 -1.074174761995731
P 8.33075865126225 6.722905101066265 12.415616163195192 -0.5907312630204085 -1.1579515874030704 -0.5254046738984565
P 7.563943268775192 4.491366023726924 1.6260932150295169 0.3490907603926439 1.087677938688488 -2.4788188126281763
Ni 4.064183512551833 9.202695586955482 12.08767035172507 -0.47602458080343174 -0.8647550670748849 -0.24323844324250368
Ni 8.10808090387385 6.177086347587914 8.300527634768429 1.787017227227303 0.005772897928035219 -1.3746215361284262
Ni 5.929304525177615 6.713457027937933 4.715859191130938 0.11295524674350871 -0.8938630401844349 0.7837838294371404
Ni 8.221833450325487 5.209598024213131 4.92483629331098 -1.5280878556121038 -0.690785485431533 2.3728379403199718
Ni 6.285156901750644 0.28959658979525754 9.379539848776407 0.336576172865401 -0.9805917491312466 -0.6084646757444295
Ni 6.667625420715015 0.5046970952354103 0.29104667179427773 -0.8173205277420053 0.6511465308836721 -1.24028062462029
Ni 6.518926273755903 8.4460608319745 11.65098153874034 0.7902900059867743 -3.0710269173044273 -0.44338416906059125
Ni 0.3198200929108464 1.046294269318945 7.921488972967543 0.8704914553380299 2.710924379182312 -1.354194635732642
Ni 4.554562926391477 5.762948939370331 8.66609480939707 0.34371381235144677 -2.8492782685045834 0.8631118750445071
Ni 0.24372835485345193 8.240485411789567 7.610518700443205 2.602091125026977 -0.8148283574477709 -1.9489280779339082
Ni 6.462294185322666 0.7458455438380148 2.618974878488179 0.45239434297900155 0.19404295535445937 0.5542596504569358
Ni 6.6029352341266 5.66426071627639 13.23945245143906 -0.6480048999308969 -2.7360913653662426 -0.4776644303996999
Ni 0.8601352968333301 7.5343311668133355 2.800569473697085 -0.47288834916729533 0.8769061006151221 0.43471543764199977
Ni 6.037177853161722 2.5440580449520107 10.164435236809538 0.5155691758652733 -0.9828617761123462 0.21042859580133438
Ni 7.30306938479343 8.735645212530127 6.839259154731169 0.3244320813036993 -0.6704218341735163 1.125417876441423
Ni 6.567941675005168 3.195223752983533 4.798484750734436 0.7066566481358346 0.36917596117829327 1.8312833961345303
Ni 4.819991795927158 2.807073241730255 1.7251721337915868 -0.3690936858771321 0.6700477386635493 -3.1189664212981834
Ni 1.5545179564625942 7.961166184245138 4.905276152252952 -1.0858498843408138 0.7852642706374089 1.1059528257382758
Ni 6.074538126426633 4.614585426752476 3.0864816906412047 -1.0151085519611935 1.0065622050530796 0.12920204761967427
Ni 0.6629814344756108 2.2146058011461185 10.20196174356786 -0.27860808099104917 2.020458996094359 -0.5206386199683808
Ni 9.385552429707577 4.663093674970995 0.011755619418222745 -1.4154313710559365 -0.06614702814071835 0.9190207703969849
Ni 0.026187879832046262 6.730925632330275 10.40563158319838 0.29585272700410986 1.3858971090422454 1.2368733987109537
Ni 0.946234854697434 6.452301392272422 6.479162658628625 -1.078784235743284 -0.7179509901027312 0.012059759378011488
Ni 7.967486813683872 1.1818919629838007 11.456465811314775 0.05105182437049272 1.1028741868129521 -0.5514322083104697
P 5.162902378493387 2.34406130810528 3.6008053017379864 0.14009735437593937 -1.95328326957881 2.4445843169253383
P 5.893662937183564 0.8850111529913924 11.978748907477422 -1.356176184939045 2.9335603156831156 -0.21836147749516585
P 6.614825155180743 1.7861178405029974 7.334765510042738 -1.5406888322055659 -0.8211327023992437 -1.2934644077321207
P 8.47510943056886 8.622258943267362 4.938306841310945 0.6461182244311453 0.6566348076917531 0.35502486648889175
P 1.6093937927338056 3.988213866890729 11.762789998574119 -0.25865297802536097 -2.2260287211414953 0.7429706520755204
P 4.217231027163447 8.70342221163221 4.68955015807488 0.3491393542423923 0.04861750389738723 1.6585906243210726
P 2.021915824631238 7.622162558360207 11.830432003635929 0.11589915986318106 2.6759149529866626 -1.0700874793002346
P 1.1454145116612975 6.246941981711698 8.64690658056159 -1.9762105677989452 -0.6136523905929561 -3.106360559608715
Ni 3.103382095804656 3.039133320187446 3.428502877059071 0.04516168413830287 0.04648837336952639 1.2305022050772871
Ni 6.282546002814584 0.4090987489399007 5.221523633813881 -1.7450848486595754 0.5025815053563537 -1.1606018805417238
Ni 0.56162784045342 1.0951594030035443 2.9140956796294444 0.3873480041016297 -0.22051169106894927 0.41796058678116405
Ni 2.7377905026967575 6.4667740370942495 9.781342168279528 0.8810378633953084 2.7163928584960506 3.7947163525528325
Ni 3.530264071850416 1.9340656496387831 10.418181742364771 0.13172712803437314 0.256489651825455 1.0382556795016182
Ni 8.39821939607418 2.763260854907527 6.434199785763928 0.702646498535177 0.6178260623546715 0.8595483260629648
Ni 4.021009762878933 6.576591451696214 13.016744650537726 -0.26720729535327525 -0.297666640284397 -2.0852585090682476
Ni 2.3393560549866974 3.926538423318412 0.3718314537306256 1.8061470060782183 -0.7222362477416465 -1.5825011402556617
Ni 0.41786404382128384 1.666514250752205 0.6797268762130008 0.43169593408938556 -0.36110655390659746 -0.4628847009873641
Ni 3.8886052549632146 1.6414195674530991 5.408631170301446 -0.06844945102164986 -0.08788827647255186 -1.1065089553520622
Ni 6.941816767615241 6.4069393711890825 10.15736984375343 -1.3408806922325551 0.10510386901988995 1.3821463837505616
Ni 4.487027047797214 0.4489534637782566 1.2519645459040707 -0.5566908856062477 -1.045484850260206 -0.3105743494850006
Ni 1.6397290573506142 0.6425948218119244 11.288699588744196 2.1504758263058448 -1.5916159580727365 1.9214275585207943
Ni 1.37047775663876 3.837382798857928 2.2938334354436223 -2.3200030559071267 -0.07792113795751097 1.7204202560333597
Ni 2.90870107405796 0.332150485763914 3.2841173483781323 -0.42934337469680894 0.32243381992674797 1.4948488910533158
Ni 5.284158911455497 6.916956877385925 7.077390981973118 1.0540479093388686 1.49217417243463 -1.7796062794752128
Ni 2.240968367022088 4.348931155869797 9.83705292870691 -0.8055857558035804 -2.369717649523435 -2.3286535324932736
Ni 4.459650175859753 9.43426729582751 6.975383724044633 0.9042711228916362 -0.34327698192434425 0.2733751147268841
Ni 3.509940383729434 1.8640597479503334 13.059616925909015 -0.3992331855749899 -0.08251749907894176 0.43674223826404135
Ni 1.2664832101675765 4.975349674345501 4.8154471412683115 0.8608315636507626 -1.1262686544774925 -0.9948973671206415
Ni 7.7793612144457 7.553086437228124 3.1917187620377145 -0.5031816008341978 0.9647067024698739 -0.37777218748773644
Ni -0.20623565829717885 8.715903811222223 12.21730617976183 0.3622692067561309 -0.6242162821517313 0.437779164168988
Ni 8.087315804781662 4.112607235265228 11.717222298761643 -1.4865650537779687 -0.02398967804637804 1.4739921022089646
Ni 2.71352229100331 5.164611672041455 7.047521546806772 1.0047644897227084 -0.05830670616069313 0.387818515980145
P 6.971889063993886 5.512659526974678 6.674448507323099 -0.9869223193349648 -0.21523835848515194 -0.8341681954269633
P 2.2521351254212787 0.1470133327180233 7.323782829410263 -0.2244223389772651 0.6111440223488056 -0.5170835556272708
P 4.830642009572811 7.62325199820403 0.7567587257218327 1.530861047481867 2.200780745207984 0.7867976765627999
P 2.459823683234315 1.3436174294548366 1.4635638170875216 -0.25569543805893385 0.5927176973228179 -0.8676575854336606
P 0.5204977296599673 2.756048011803592 4.809715372848609 -0.1295110942196608 0.986097252330508 -1.7069631020871894
P 9.360251128507056 2.5465938101057377 12.498969581315038 0.34416838339036215 -0.400579158079923 -0.3600287474613864
P 1.101808742739984 3.2033382014754594 8.240445027381565 -1.2078428158065586 -0.287053383544925 -0.2233712720049314
P 4.49870095922715 3.690167544099886 13.49598923783567 -1.0191035320531998 2.8859769094771974 0.6135914554480335
