# total energy = -340867.4182222202 ev
CRYSTAL
PRIMVEC
9.28667956223433 0.00000000000000 0.00000000000000
0.00000000000000 9.28667956223433 0.00000000000000
0.00000000000000 0.00000000000000 13.59199425128577
PRIMCOORD
 96 1
Ni 2.3725237391443392 8.394563945995621 2.920022716732748 0.8948256612080202 -1.438261995797207 0.042205429723456346
Ni 0.9127691574669199 4.218882789580385 5.901371879065817 -0.06982936208831199 0.2293817398650695 -0.7585237693187711
Ni 2.950823846723902 1.8815184191297802 2.322178792086106 -0.6872939273385066 -0.5423469581797499 -0.8680321951642599
Ni 6.552662501733108 6.8682610188191795 7.0768760590725295 -0.40134637526325073 1.2376845817583395 -0.5757293902949374
Ni 3.4669682082212767 6.036304546606586 4.603186947819879 -0.8117360916756923 -0.0977307164842704 -0.007860119474367109
Ni 0.3496221248735081 1.6754284270401467 6.493126527945823 0.793190467463021 -0.1693981602225857 -0.04958166758286945
Ni 3.1507753436454005 3.4041902546106995 0.5311859963291867 -0.12426912909443112 1.1613932660947675 -0.14682541712839228
Ni 3.2191067316138358 9.11006545692469 0.8449123188223749 1.528644499446522 0.9213237074985486 -0.6285699311347368
Ni 5.026313141159026 2.943348069703707 2.148201209137007 1.249870839411886 2.9976712872304114 2.785136186609036
Ni 0.887684907393321 9.11248928028155 9.368132065665662 0.009606926962144744 -0.5047777416767243 0.6265572715800822
Ni -0.05363521761507199 5.039073038830761 10.902152223530031 0.27223843001927955 0.8378039924073377 0.09422090355879902
Ni 7.72237550838604 0.6750115881861524 5.8379921486218125 -1.7251706262341515 -0.8555224927330234 0.39562207118496384
Ni 5.701176142472727 3.911437977120066 13.404859422304423 0.32609224261494163 -0.05691908178454714 0.7175280436326997
Ni 0.5368397268259499 3.4245280827774396 0.3400930630096304 2.042103313837012 0.335038653174952 -2.8829970009132673
Ni 5.97382376674091 0.984462323424561 3.769494795203465 0.1712930632524534 0.49758790879650433 -0.36791843462210827
Ni 0.5901582686691107 6.245226975952318 1.5954821889858017 0.16234613847181073 -2.3989672904171715 0.5715284648397125
Ni 7.664714515195497 2.0843395000254903 13.4722491409687 -1.283513467166996 0.334244696518747 -0.9394726104934338
Ni 7.0377057734905675 5.603294540245585 8.799769633849216 0.2130315806418202 -0.3677934790084698 2.4665716198297067
Ni 5.911723740735892 5.7637312157746265 5.204496661266442 0.12476252379108192 -0.5045782240714084 -0.8923350335756824
Ni 4.967556319784156 1.099830743203288 5.93533883810813 -0.6583672170018274 -1.134061153938718 0.8220629275229971
Ni 8.020765808306372 4.112262421917215 1.3765970098422255 -2.0998117242920737 2.0190605730849356 -0.3522205642708772
Ni 9.066761670284732 9.408706497192284 12.019944333608796 -1.8023919099111605 0.07118304790272902 0.7643707150178513
Ni 1.3157088955156357 8.945858389507203 4.834033370195766 -1.5783094707718173 0.9778118723932644 0.7301683581045295
Ni 2.7203841809113496 1.1839494863696498 7.33330264020882 0.2426416901987692 -0.18955252368327355 -0.2689376477808207
P 5.93089144728208 5.541668134896503 1.6730788971195145 0.2244159112193619 -1.2019107665928397 -0.6511894683064656
P 3.391588230490943 7.215629266571196 13.00771550094925 0.742771648690837 0.385715096483897 -0.8028408460685915
P 2.5038002409548596 3.7566383160646364 11.331672295724339 -0.9220832113723926 -0.45527474985059013 -0.35525883687656884
P 2.0473785155032864 6.054775752188159 6.378138862027751 1.1426134143841034 -1.0533197729235926 -1.2629081322118185
P 1.7055451287500731 1.5935849203581922 0.1966937297430089 -0.3465849632516548 -1.778682996329995 1.8208393179830706
P 3.481520435041953 3.1922589410978333 8.177691190305804 -0.7141347016804346 0.13296408576526778 -1.5171814931122451
P 7.106027874779476 2.2506267836572933 7.265722544614216 -1.4729659749372956 -1.3735128764452795 0.6694959799251373
P 5.409500111851277 6.09766163824935 10.422096827347163 -0.7249127661325452 0.492798457827661 -1.1739248229028751
Ni 2.3753933231185504 3.6618584647999106 3.992131792876431 -0.7040243527193102 0.0030434148120141134 -1.1680511377309173
Ni 3.6563050304420517 8.305746142987996 5.3437606361391605 0.09579441869350598 -0.36882012050077123 -0.285045866196593
Ni 8.956677371157546 6.540515524910234 6.906663296004159 1.3052341466735393 -2.9829062131060953 -1.3770157473922158
Ni 6.59990384049302 4.642801136683286 11.251113136821132 -0.3529399589354051 0.4127602735271472 0.2428916014260462
Ni 9.18264085743751 4.668961712914203 3.3223588206121315 0.8627208102536755 0.22096420522533558 0.8017396425846127
Ni 3.396036549984947 3.6545591346907518 5.98834720485505 0.9546722010520075 -0.029454043595058953 1.2485732036463852
Ni 7.643206565408205 7.317244113968671 10.905033880187629 -0.7097224315453519 -2.075135047481 -0.5320610028727095
Ni 5.505208631068822 4.544408767082094 7.430783986548297 -0.8241059260949548 -1.0429571987423456 -0.18215391722635724
Ni 4.894832332398885 8.151002202009735 10.210401395494312 -1.9718340359978042 -0.6917789596930538 -1.2863676487863394
Ni 6.32307721043715 8.62080603266143 1.6668001730905038 -0.02002529408199132 0.7867768506271934 -0.3254288979993299
Ni 2.829140484866004 6.208256704750585 1.1391041109280116 1.2696220538968843 -0.3098382426499245 1.0157122469834634
Ni 7.714528264184718 6.622684065375675 2.370688691269569 -0.7063172625185449 0.08102548791444755 0.506662617404263
Ni 4.296380130243146 6.4676708106910965 8.35648020191846 -0.16009642320568554 -1.5811752223553865 1.2209351302141425
Ni 8.407110250038208 7.845535452288921 8.548848196337238 0.6898074377889797 -0.0391329614457197 1.3193250775489664
Ni 3.0026156584526276 1.1496537788720376 4.518902901757915 0.9790002362744107 0.9294252535597607 0.5866666060327315
Ni 8.038456932807577 7.605725526832423 4.879838988300619 -1.3244114909329385 0.22945578763611452 0.05305342818155379
Ni 8.04491117507967 4.079740470209487 7.074510741796698 0.09329607775168448 0.9545878688683173 -0.04789579524001429
Ni 1.5756430555097256 6.700422859706168 10.078408890692168 -0.1488491324266404 1.403573443276086 -0.1294496448541061
Ni 2.3357299148536437 8.904904132787877 12.14978882943607 -0.6174576232716592 -0.41915589264084585 -1.7002072714205945
Ni 4.466252072172831 1.2864001349246623 10.437523859379395 -0.0019272989296999067 -1.2703378490169863 -0.7608308201853929
Ni 8.201540312002155 0.326936624122041 3.399996390135768 0.797737206293439 -0.4247858372331136 -0.026998125855398663
Ni 0.9732068678363924 3.303819822270002 8.064551573613844 -0.21553095002490621 -0.13206625654134674 0.5806623088201806
Ni 4.2551658464970314 3.738352844073627 10.073855631719498 1.8111809689577 0.21153339882973893 0.4617865828271789
Ni 1.0480482181540904 1.8730118206819566 11.720335621334364 -0.1740863097268744 2.1955452078406577 0.513834966782986
P 9.079280114288734 1.6102173633931836 9.807017754164148 -0.2691173678917946 0.46955080015363004 -0.008033668937753905
P 0.9927553282432362 2.0196020570344646 4.429617050102068 0.37556592386503707 -0.585121887253431 0.45868814640751326
P -0.0847808834167218 5.283024823356833 8.700303724094566 1.108369662709885 -0.4984443432595287 0.5841068157253554
P 4.34012039082093 0.1299828673522428 2.714307906496053 -0.2641651660928418 -0.27315399985501343 -0.2591743977464698
P 0.29312289529194174 7.499383759555098 11.57537705457496 2.1445126667438745 -1.6077794552064761 0.053387671592520954
P 1.7840732908404633 4.387018122438299 2.071039117605214 -0.04764536979210504 0.5932296039622299 -0.9930117200621544
P 5.386877760520602 2.128525521220627 12.052456069969042 2.0857030528048335 0.9746604712484762 1.2576520260192017
P 3.121513016452068 9.118915662515057 9.210560330771067 0.053867439442416905 -0.4408074094723505 -0.9145568210883604
Ni 3.2789593811730327 1.7813708670977593 12.365493320841237 0.33065800760875314 0.6832765786489974 0.06074642595043731
Ni 8.05092894341394 2.948604330316664 11.213802973148669 2.0297581620080978 -1.4721383368296774 0.8198870029176009
Ni 4.848315354642172 7.0182594665585345 2.6857643682982033 -0.8680455649006986 0.4413152023467045 0.7243342679212557
Ni 4.953468426939888 1.5964080709347626 8.271489439544402 0.412863888984547 0.1718527924106653 -1.2194248642172032
Ni 0.8342001339866055 6.66209673329332 4.477175993301843 0.9626770736343551 -0.871603457455286 -0.2817324855526438
Ni 1.7690845900819616 5.1564102346694645 12.774299454347913 -0.9247756706028912 1.0053614998767588 -0.43813191952271635
Ni 6.580726847267305 -0.11362902470309694 11.07570819122855 1.4254746142245514 3.2235594121199256 0.49537393186432105
Ni 2.0577795965748615 1.8333205523784646 9.694802162085244 1.4983126812322003 1.0915482202771718 -0.6492871090774303
Ni 4.817167831504617 8.36278492865015 7.384639404640664 -1.0201034340726238 1.6733878372349051 -0.05733508627604319
Ni 0.4290798835846703 2.532728247685177 2.296462119136637 0.3519053470233036 -1.4984039553944257 2.431835244789786
Ni 8.783397217841015 0.5321137356140532 1.1103024030392774 0.43254696923577113 -1.0768201700383777 -0.739128652621611
Ni 6.639242214974441 9.065730848857102 8.58592712168945 -0.366224334749137 1.4035654728562859 0.3498230105729782
Ni 5.886900446357036 2.9764643689012393 5.463139044138161 0.825889757468255 1.9321894250229883 -0.43183760187357245
Ni 4.045806943213474 5.172253309944559 12.118594872900871 0.7647633224705797 1.0357557958979 -0.042539930244739635
Ni 6.811575126979097 4.153885319562571 3.428023588951851 -1.4192011225110137 1.1352795997268514 -0.1786361338810859
Ni 8.532694017297947 6.852464376941726 13.422692633002407 -0.4213343883494034 -0.049272106762250634 -1.0832504990447538
Ni 2.4067451532057262 4.884338384532028 9.1108093199549 -0.32635783757150244 -0.7121274414424187 0.08874779625936974
Ni 1.274717492078197 8.140582547579104 0.5267404628390414 -1.227431022351131 -0.11041319704794533 -0.5866498938621832
Ni 1.9292426652251582 7.753105130944827 7.546710535766668 0.7196654016906767 0.8521494624957324 1.0307164337017798
Ni 6.135588437442485 6.650841277705152 13.36862372745337 -0.8378559286911956 0.153537024820613 -0.22839777868524538
Ni 8.197444886330223 2.547317621223966 4.329825177895977 0.05768784162977161 0.03984104325633783 0.576670156941652
Ni 4.968503561096031 1.5322278287154287 0.6650766984268928 0.5469705729946903 -2.1253427786836427 -2.126607247218363
Ni 6.697061081716964 2.4730148983189033 9.648725372938166 -0.8400081991475081 -0.5859724081791844 -2.107361511614874
Ni 4.838898661600585 9.057419270679372 12.535352261419584 -0.3505758295786027 -0.7880040381660751 0.7239331758280952
P 8.222546781094925 5.228837048309833 5.189300867554461 -0.969511322947369 0.3830846008395854 -1.1893349868103582
P 8.235640999229675 4.347438294289145 12.775359993150031 -0.4455336113034262 1.0683345011648697 0.5154015399391575
P 7.078465009939802 8.838485800802248 13.225173317449345 0.2544309695242134 -0.37449351673646475 -0.20157808738923996
P 0.22732862817060814 8.06463608239755 2.50947625948249 -0.6397681138434014 1.152666170634415 1.0616403769741458
P 0.12106022566155605 8.545723228676 6.509355929089292 -0.9979873188998747 1.7063735481323061 0.9649689549923252
P 4.470988278732209 4.286071915966853 3.8948538248186213 1.5681728965584478 -0.4199933009404767 0.9115172629310881
P 6.015047337166554 8.572608165910117 5.373472438621657 -0.34966231662539776 -1.159424829514487 0.2858699047597851
P 7.46660178082058 2.1828154497424364 2.0522010881822768 -1.0099573467775573 -1.1114025359989377 1.6063725475566206
