# total energy = -340863.93715791113 ev
CRYSTAL
PRIMVEC
9.39415606078759 0.00000000000000 0.00000000000000
0.00000000000000 9.39415606078759 0.00000000000000
0.00000000000000 0.00000000000000 13.74929697081161
PRIMCOORD
 96 1
Ni 3.3800360985410567 2.6354177214482157 5.557039676851138 -1.2076021605506622 -0.6427266822510931 -0.4508920474018622
Ni 5.258754558346808 8.417238883001136 8.817093615619413 -1.7536497075104507 -0.8179941567702622 0.385387280830833
Ni 2.3980931597241484 8.414120023226273 11.54616449596387 0.6639105154175599 -0.8191308414778666 0.1917546735409149
Ni 2.0981001836684015 0.9904352557942483 0.05988492592417405 -0.7432781560136102 -1.1095983929106632 -0.4080633822721101
Ni 7.245665512210115 2.914067175189231 10.288406320255575 1.556023148569791 -0.6359929630716853 -1.417639434450849
Ni 7.881565322512289 6.9766356741602475 2.5099474957703873 0.7679345211097097 -0.8899395367603125 1.5130769840255684
Ni 2.760529090368816 0.5243442084150939 9.44348466127063 -0.6148875485516377 1.1125628748556258 0.6488752183509922
Ni 8.254560284442942 2.397134955817413 12.976449163911052 0.10019409042309842 -0.0030421292604334705 -0.005608090215396793
Ni 1.5744229603256426 6.008614874458847 11.33449443471925 -0.12551225747291286 0.04401188680457581 -0.49309670579437015
Ni 0.5162718102086461 8.924748763956723 8.511062076120043 -0.8387596714523878 0.763426091716395 0.21489357355122346
Ni 8.98592350749261 6.8639809560272065 12.057349370726467 -1.4772684589673912 0.19613351933490092 -1.6122446900666814
Ni 7.004987236812475 4.543286247161807 6.083472206133559 -2.678551619278561 -0.047023162827073854 -0.17134525664662748
Ni 8.538461071359105 4.016480769888236 1.200560917800954 -2.3653711996292817 -0.4121498936366579 0.37258987195584864
Ni 3.8760287443039227 7.983294637277358 1.8321347192888962 -1.5473826992859738 -0.2253890737659086 0.4565016802791558
Ni 3.0625512041094147 3.0729035639645357 0.8358046306370358 0.27946811499849933 1.2142366351480443 -1.5390523250434076
Ni 1.5684013063627273 7.590900743313289 6.139885991434804 -0.47620301536282506 1.1589412050098493 -0.1650949048615415
Ni 4.380288247301368 5.962029255110803 8.97345088663994 -0.7627915434561895 -0.615765837391533 1.746757865486624
Ni 7.493924871458104 8.21564029634878 10.690463043028155 0.12023841066848324 0.7034088306224983 -0.44405805519916425
Ni 7.903679165614789 5.959492833004739 9.6873973445613 0.03184851196916451 -0.6397686280640336 -0.08155359250377568
Ni 6.271491540362524 6.386992687747925 11.59947069447739 0.16056873485641376 2.1562937185392026 -0.5407330767254106
Ni 0.5504562042892266 2.8104120584547436 10.857737262676297 0.07332811927018984 0.36194447642686056 -0.6763040039859062
Ni 0.3760893969000508 5.455843950143938 13.58992888162681 1.1964877958050555 -0.5147502795084038 0.27794936436112777
Ni 8.439174237140616 8.35704113168388 5.354828591230947 -1.019013800552871 0.40146541733961827 0.5510133756054962
Ni 5.034328172739874 4.126429971108142 2.3333514551746593 0.026418084982212566 0.02316306838002463 -0.8052841654027615
P 0.3306827441235287 7.327967712473923 4.03225637597236 1.7215230021792352 -0.04353340450626051 -1.327054070762108
P 2.4454397057040125 1.3632611229178297 3.6289483516274568 0.07257350049235242 0.5072300598719587 -0.8644881865667434
P 8.46376813741349 0.8105005321744642 10.373184820027378 0.5294356494347204 0.973414000435885 0.1630462498626289
P 4.834204468571414 1.131516689827104 9.546343153580695 0.18004998350947699 -0.06761358538391582 0.03384985866990945
P 2.444650596604348 6.023297940206175 7.2913624444054435 1.035627497850152 -1.1551735104373009 0.33169339085180294
P 3.367513688661858 6.186070480323853 3.2683724638605702 0.21101917819748175 0.16439196525724592 0.0701054985678341
P 6.5979478537248735 1.2743924076461015 2.86912083605418 0.008347343523430787 -0.48880476328723566 -1.643185602619912
P 8.732929493646637 4.425539896504741 11.87018020761083 -0.4613176136105604 0.18346080896323888 -0.20054116148429332
Ni 8.735268638477784 3.0742187457973094 5.229008902951839 0.9580310902219114 0.6928469959462519 -1.2739237665960317
Ni 7.549726157791515 1.102159952488399 4.746201894478127 -1.0270448983874634 0.8647285847123236 -0.23328184625042403
Ni 4.3566995217149715 4.640825768373896 4.519902314175086 1.0754968232412638 0.2858071698426497 0.9961739198402199
Ni 4.322965107704318 7.487696546064323 13.157224664488217 0.290040491197707 2.3850046575894925 -1.324944480618273
Ni 4.018585060820675 1.3325610212785055 1.8324926366305296 0.08726041308056585 -1.2464368740296727 0.5085549493309693
Ni 0.8424059040219665 4.736655553203378 9.198224856016964 -0.36914947881573196 0.9128483230376859 0.4757697844801484
Ni 1.8164164175560573 5.558071155174271 4.844014785628313 1.5212132399794576 -0.2053861482814205 0.9953815058459116
Ni 6.130644960228377 2.310163860047259 0.9276212320453675 0.1903822186734205 -0.14279392737149604 0.3071128732989614
Ni 4.584808416453672 3.1767935345977327 9.634860527419955 -0.708176941435103 1.6236251639894812 0.1037866928703632
Ni 2.4127762254714757 3.3481053624724937 8.061446499443168 -0.274224864321689 -0.8559467247546356 0.36138654704086154
Ni 6.085975748693802 7.982261280123035 1.3343872451948715 -0.4909097254453803 0.37601715246984274 -0.27513143529635836
Ni 5.280398693651888 5.509465792297324 13.529157147381106 1.2795524256367188 -1.2748892158330947 2.23080017438821
Ni 4.322532976530693 7.094025046891274 5.313553488240526 0.12186206231483529 -0.08255272319225136 0.1223199757878603
Ni 1.0360720653915059 3.103030622091009 13.14519356896512 1.0907084979846957 0.3296514207211097 0.7617021670467526
Ni 5.992203284017018 4.245472715286085 11.569772009862163 0.09629989757501478 -0.596162975558941 0.3186188170560319
Ni 0.3554053443328952 2.603317890572582 2.952922343607349 0.10847149994054224 0.1215931249241648 -0.31249779175995857
Ni 1.4903734470554364 6.856230777369789 1.8550959152579403 2.0876529774423527 -1.9019982461515885 2.6387820526901073
Ni 7.4881568597057955 6.446448300745258 0.11637762213538604 0.09117414631267523 -1.0992931543299134 -0.7875371258319857
Ni 6.182265847164756 1.949804037867185 12.272141109992734 -1.1626268813915526 0.8021451055531476 -1.102055547566399
Ni 4.840357640717607 1.0152827982777284 4.077725030178142 -1.2358624409479362 0.8171336085421799 1.0528919413575544
Ni 0.16023329976482967 5.132647408895679 3.4169062818072806 0.9628110281090578 -0.38269585004159895 -1.8202559346757747
Ni 1.0960067803422062 9.168348621854312 2.6244932574958377 0.369281376407906 0.13475048824172922 -0.6053613542287575
Ni 6.882478049089578 0.6377833385698248 8.997704718467482 0.4105136435848155 1.0129447115406554 -0.9765116655246022
Ni 9.216803678236085 6.692255785290717 7.593695504707933 0.9608227940344355 -0.029815797809851875 0.7419249844198255
P 1.2144482985394527 3.2145204648864496 6.253895346855602 0.380450505650848 -0.3758623720595333 0.05774029213426185
P 8.68221983983725 0.45571238388737795 6.89212396841738 -0.24031175651401193 0.5848737757983669 0.5525673503561774
P 0.7269940011180744 7.080309579206631 9.513482396073243 -0.4620976863096945 -1.254083591941653 1.9773161421582979
P 6.612377277261594 5.458464919653538 1.7272283009820837 -0.6208357957152727 -0.9569422280331068 -0.06724283230805839
P 6.495570342199366 6.633786558667965 4.979335723233619 0.31048538931562014 -0.8794705189081886 0.9794740905870358
P 8.999563821929666 0.5716193588097498 0.2752252838978288 1.933501458966193 2.3685462549231526 2.532323983635168
P 3.6227716940913934 -0.048243687872934544 5.751495886735937 0.710310442838338 0.29295252263817934 2.0268085924614705
P 2.4771167995619687 4.084795071944897 10.524330213327739 -0.6106791668972451 -1.4560314039654858 -1.443670568407288
Ni 7.425112679136179 2.302000338528112 6.974165950561416 -1.029089696731634 -0.5036325723286874 0.6606017627593009
Ni 9.421868708433395 7.66322634995991 0.6042696872239591 -0.5085485215730662 1.9041132356120625 -1.5912680878150143
Ni 0.4631215546838697 0.9522292235521638 4.628920554540506 0.8115116343697121 -0.4616842529213597 0.5724923714148786
Ni 2.7198242126444607 3.751058287722548 3.0310732663575637 -0.8869840536764143 -0.07513637612352221 0.8857180424797971
Ni 5.549297013518479 6.4584258495794495 7.220525811476641 1.846973296065961 0.32592794912293543 -1.2818985572713921
Ni 2.631584905821274 7.7569706321688505 8.648169782186732 0.4077566496649687 -0.6571444003383199 -0.0008703184200952753
Ni 0.045336196606909185 9.244892204521758 12.155629151427286 0.4158803072133676 -0.3466798369583062 -1.674417821161316
Ni 4.252678032898497 1.4589781778759314 7.548693740052786 -0.18523846968895197 -0.23669678546924397 -0.7910952754968892
Ni 7.55353079095061 8.721515594169347 13.390742714221997 -2.5458037632891575 -0.5058342079656966 -1.6553674893980845
Ni 2.7802568178604257 8.316618078637978 4.131141140316258 -0.728767621102261 0.32736133913535237 -1.6797016952680748
Ni 1.6054800398910056 0.7779394482417646 6.792688706534908 1.0474273186985574 0.8489306984481186 0.10835734296018112
Ni 7.458264655478032 4.464131089140709 3.4967077577576267 -1.8514395593674307 -0.3655329651090673 0.35710488894637205
Ni 2.9935793111363673 5.75703937816108 0.15544979555591168 -1.701925796773598 -0.7463315981279534 0.5918535495503098
Ni 6.009225494595492 -0.03282505971484916 6.264441226323259 -0.7218917199180341 -0.26505296801443384 1.0231617612829735
Ni 3.5598872141728997 1.9037726737200955 11.752664953190093 0.7209033878628359 0.9622821521887813 0.048818564164599794
Ni 8.656357728511345 6.049188233999925 5.496129848512995 -0.23237090440038047 -0.7912143175732567 -0.8515578516583207
Ni 4.316999818677093 4.282551448814363 7.152467030461777 0.8746052203960873 0.40498062958172837 -0.3223212056082836
Ni 8.182338013511753 9.182017118759212 2.098142457370169 -1.0103638381873568 1.8976541102502804 0.8575945447707037
Ni 7.3414952970395975 7.8949613888946875 8.002434290606598 0.7279713504532108 0.4116714113383426 -0.5759235085836145
Ni 3.733979712208383 5.232009396361753 11.672025518529152 1.5794212157787573 0.5262359115505002 0.15673522004293652
Ni 8.978351817798211 4.414248121054782 7.2225878287073115 0.6068371674433355 -1.2493571330002613 0.6221288034950834
Ni 5.193991247238637 9.312586492285824 11.21627743684917 -0.5178183769107663 -1.349634012945153 -0.3621051703744409
Ni 9.276090196426347 2.0553849565710913 8.732026715259996 0.07712281042593169 -0.2726536631798272 -1.1449621171219377
Ni 6.17427142045268 8.518432730877146 4.03676651024318 0.5318519721856969 -0.7881696172096618 -1.4871741481168774
P 4.39744197606312 7.314740740898595 10.755689486024579 -0.522386713007739 -0.4351476400834119 -0.3579808637934222
P 6.1900911790697615 4.356211025605655 8.61044191248242 0.5426223233283235 0.741969978725148 -0.3751735735226248
P 4.718928780928774 3.468557230042695 13.16562585815286 -0.3069254398785037 -0.747864489832712 0.2262995013953199
P 5.588780650969544 2.845499230921964 5.330272267581867 0.2914453419650336 0.27660442029745913 0.810481907553617
P 5.563491583156489 0.24683896286859186 13.215412066432517 -0.5525182422857968 -1.3872086287648173 3.3202853414887654
P 1.1871113047296504 4.16339597476504 1.4682596039529363 1.244961832146043 0.39501914749364225 0.2570282979377444
P 1.6504968351956697 1.0418306829878663 11.442632442672306 0.6246037473981373 0.47717746346095236 -0.31638761373266805
P 2.2511779548473454 7.98171641907803 0.07073705487574916 0.4523683748370725 -0.015747492642243847 0.33926297566894476
