# total energy = -381167.37058542686 ev
CRYSTAL
PRIMVEC
9.30291045849589 0.00000000000000 0.00000000000000
0.00000000000000 9.30291045849589 0.00000000000000
0.00000000000000 0.00000000000000 13.61574980860404
PRIMCOORD
 96 1
Ni 5.393585604123304 2.4857097639165167 6.070663520568986 0.9046192502596744 0.1448119862427893 -1.0189824330943031
Ni 6.172081059438392 2.9760010534433157 8.350389171558849 0.8459255930732077 0.6017353274403959 0.6009724811324424
Ni 5.394869405765614 1.0449866281095161 3.4600203207436957 -0.4592985262980025 -0.6547005667835176 0.16734564856893117
Ni 4.585153382975203 9.105204998610622 13.087567926259762 -0.39268535715414304 -1.6059020356781053 0.24415838395361172
Ni 8.072256336625381 6.634984580595898 12.622222391108732 0.18892851694602947 1.5377053240972098 -0.5669881537671977
Ni 6.966614732371913 8.542155646442435 7.890776089828049 -1.7318853192501658 1.0387171925190692 0.38365332885886183
Ni 5.604445372417603 3.499550247834322 10.775136963286512 0.07268945724492643 0.3640604943285988 -0.7646229402379735
Ni 7.973803635316877 7.36211866730811 1.4998021989204642 0.8177450168739336 0.5171884566362512 -1.2471089603960328
Ni 0.013893896759354773 8.709896424793909 8.216097007735838 0.7167078617242496 0.6485432889328702 -0.28701353144592506
Ni 6.08698733753828 7.40368407120553 10.962257564690606 -0.8588438437967726 1.1248216376183209 1.2639612560666813
Ni 0.15279844358423186 4.863636007341648 2.926106753818644 -0.9863775025750884 1.8283849915408124 1.0975360624294905
Ni 7.461194663616866 5.755924663299808 4.740146383134949 -0.07531146824880579 -0.6668647129498774 -0.584355955621684
Ni 5.896463731491018 3.471315914613939 13.434170182116462 -0.7836380478878955 -0.03660119616280148 0.9952439518267828
Ni 0.21784997520757582 2.226912098065502 2.530214887516619 0.8286104988335278 -0.23520348875316913 0.698393636796094
Ni 5.674263715356308 5.519984248428194 7.968331663389289 3.837070134928695 -1.848164488160585 -0.5837540603716269
Ni 0.22789060645790832 5.355099463585338 11.30058209082754 -0.10773230778167253 0.2744963728155208 -0.6866910036471852
Ni 4.10514180949734 4.880548698542523 12.651114440098036 0.6356998573112987 0.8349477539054652 -0.26346891135676564
Ni 3.086621961622417 7.906385443274665 10.089733872277758 0.47420938197156404 0.4020176902986625 0.6624509001528978
Ni 9.034530787910375 1.7118843696480937 11.278075559572162 -0.5470165957412773 0.5371823832596748 0.33882871634500356
Ni 7.580271917396405 0.9350076207515702 2.5847048249043447 1.2720574028112543 -0.9630264865539737 0.49603084872202957
Ni 7.270615240106895 0.9166027427142702 9.371516625233335 0.7220303023784276 2.7403550257386033 -0.6537785691898805
Ni 7.529133818644364 4.261737701127885 6.634205926991106 0.13530816051741212 -0.163950249734137 0.5057614457462322
Ni 3.293053544541789 3.777484000484127 10.780582887064837 0.19738384680223425 -1.9322886696050143 -0.07193483846708901
Ni 2.7136589787102694 1.224411861988107 1.053736945680222 0.6847428787818788 -1.6971836541029222 1.0671803329557688
P 3.7344394338249134 5.338558888802525 8.062416648240802 -3.016926793025914 0.3511278454273308 0.7716749619887484
Ni 4.329816399812156 4.40242561588632 1.478915304374697 1.5501237523662206 0.8287519095073985 0.4648623935390252
P 1.42194986251582 3.713898607547943 12.11242103778299 -0.7689138543038435 -0.4069817191721572 0.7241537764793334
Ni 7.70097718050496 4.84939325144036 1.1365272669525364 0.18335950749868424 0.26381755294543596 -0.6956428135238342
P 7.169976354842281 0.8820647573719331 4.770250601356089 -0.021672342767111063 0.06991832225769248 0.4128402348354632
P 8.991514129982518 2.581966978358461 8.477942307050773 -1.367364597455697 0.21696716825080054 -0.20185962318540074
P 7.603017533450387 6.642185033285379 7.581698983859669 1.1920487861970954 -2.134306158524518 -1.4613253053745736
Ni 8.731981534205833 7.596365952477545 3.5168936637891024 2.4233470048131167 -0.9743516817588058 2.219023493468256
Ni 2.5296288041581727 0.38898166441863086 12.288826546929016 -0.4799743094797992 0.3600485449557283 0.42135752827785494
Ni 0.04251057959929533 5.3050777140874805 8.36303833889979 -0.6021523603731566 -0.32034865526294504 -0.009117903140868166
Ni 2.2207907829883973 5.4641574828085835 9.79782528754767 -1.2185558313486884 1.1108520628121061 -2.5246381849551356
Ni 3.915557797405682 2.8862372704965367 4.145982516670586 0.9484701860063535 -0.4659756812078619 -0.9093781051008984
Ni 0.5810262963247174 6.227228712595042 0.19803942740105018 -0.42199953273722807 -0.15617086289903426 0.5692106153398132
Ni 1.1438486574778877 0.07021743779707659 10.500983913444209 -0.29885191884174983 -0.25082936821588414 -1.6142789468878909
Ni 4.997523494560016 7.456664146226973 8.742945014172957 -0.23841813903572487 3.5780260921125024 -1.7266186715345875
Ni 8.258872720283003 3.858903072755886 12.661966285139743 1.0024713228131574 0.47550624640611655 -1.662510271090453
Ni 6.380336012806264 3.2432457619843165 2.77533913558598 -0.06694278456913633 0.6756709983875977 -0.2643759965520673
Ni 0.6625179312979989 1.8061135496116052 13.601997477535136 0.5801295762451621 -1.8860748900531132 -1.366401205101163
Ni 0.6043970679610422 3.764552954956505 0.9892975455645884 -0.08580542580159417 2.5461359498175957 -2.617681523266066
Ni 7.5396926220068465 6.2945445726222875 9.761212753174643 0.9035244745335989 -0.5522737303751586 -0.4958722116569782
Ni 5.05362004458272 1.0601503721455043 7.863408787861749 -0.4959629715985716 -1.7621775424758037 0.4763721939508377
Ni 8.321862726950288 3.168636420163074 4.4746803910722805 -0.3721769527881461 -0.03595764904153162 0.3990043573936354
Ni 6.89815461435913 8.95843298041689 12.661190422408085 0.9263358160011596 0.03917409909630028 -0.20796625030377086
Ni 2.0589015353109335 4.437748766870766 7.07629604659541 -0.9254241028201675 0.5001739243561257 0.12044461314201836
Ni 2.324639172358787 4.47946301733541 4.742420014449302 -1.5394960974490455 0.17061969133451263 1.0522417093680654
Ni 6.5716131546001 7.961654034267184 3.564494795987473 -0.9282312332516595 1.787048851796187 -0.20879157441854362
Ni 5.975259383015447 0.8460373760663067 0.9560368498272458 -0.5823114143878294 0.7885393418442548 0.028277506788454528
Ni 1.707456184273167 1.7306576429392742 8.293149293841653 -0.9347309820433901 2.2944663450886034 1.765176734313444
Ni 1.765134229072631 6.7066355968935545 7.458340530690338 0.9764620432335892 1.8218747012261203 0.6250079248150914
Ni 3.1016926765538897 0.2777356006571871 3.867771537289326 -0.6895187029039673 -0.12393925655883818 0.21684221263716202
Ni 4.382545296251408 1.9087711664441998 12.163303306497614 -0.5774296608154958 0.6164263537936674 -0.5239445444131621
Ni 0.9198224800215435 2.597167934036255 6.372566221997149 -2.7574397491350315 1.4349838392665673 -1.6983781886316556
P 4.482049226440934 7.678919979824392 4.225389369411681 -0.033088555023852696 1.3528928862020828 -0.6473875780618722
Ni 2.634667966066358 9.164762231321294 8.269498504600737 1.7173824976483 -2.4562113596413058 -1.5923165836841866
P 5.578732127929583 4.321350751301266 4.689713444995133 1.2456290334163966 0.28592261237459143 -0.3009846489140365
Ni 4.26030505291835 5.629125993845502 5.859687465894043 -0.2955501081620265 0.1792439426684139 0.3849602205957434
P 1.8149606174510067 2.206882931863365 4.085038220011591 -0.22030677414699476 0.5965504408053468 0.31742171142413717
P 0.7791447984646056 7.34079639655321 9.661041804305743 0.2635509295476106 -1.239129284624666 0.5936710623750227
P 1.754017251083057 8.997858714910459 6.247750002760064 -0.33215207565577637 -0.6959924835537692 -0.252448648986862
Ni 6.027281258260383 7.361448857755599 5.753266821783806 1.1055656176021864 -0.7190892174722325 1.4285666228863139
Ni 2.844932348091759 3.206787655924784 13.650061894673994 -0.6245250716414018 0.634960408042113 -0.27199134700547994
Ni 4.454093980534098 5.947462286586286 10.158452611201096 0.19901624019933467 -2.362289475380164 2.1213547405701725
Ni 0.432198334921197 8.507009250756568 12.556839675873311 -0.5696011659100125 -0.0576760145552297 1.0674580120971873
Ni 7.89733371140533 2.523833090946872 0.6779951834162035 -1.1918945200074182 -2.168216438118717 1.745779560733755
Ni 6.68362949934693 1.8885745478539357 12.01007134728634 1.468890519316341 -0.6599422747984311 -0.7045177474159608
Ni 6.146088727636828 7.06258355658986 0.23068520075754684 -1.9550922977630911 -0.8798829238552589 -0.005303671601100544
Ni 8.334272809492624 8.29018631686284 6.021878127870137 0.46125590713468956 -0.5894400550128106 -1.261635436146982
Ni 2.2265585874683436 6.981880808422868 4.983650064203655 -0.10770736808100806 1.0467907135558232 -0.9060917210401428
Ni 2.8920050749764834 1.797257178861752 6.228987892961425 1.9174917138014977 -2.3653547445690486 -1.62263503216207
Ni 6.507385860842761 5.277457372956898 12.052035846042132 -1.4170390818626886 -0.4646834447589997 -0.8496416084722141
Ni 7.936750142988448 3.8536655341716766 10.102531886185924 -0.15806396615668908 -0.6125997809587257 -0.4275911678923926
Ni 0.24457630664376617 5.865196649463437 5.810425764180076 -0.4223792846741499 -0.5841081012769359 0.11744516419406224
Ni 6.386559659898335 5.896342793655148 2.603726485904581 -1.1551426571993655 -0.6363886558482071 0.3416756988754954
Ni 2.156610003783316 3.8880490912005183 2.558780404349076 1.86029109622079 -0.8296631084677583 -0.33752645259381225
Ni 2.138673992432773 6.629402834324982 11.731683612606503 0.7369000204014085 0.7018057478014365 2.628003216907048
Ni 3.9711612931744558 5.840395090199668 3.443287175714535 -0.8528308048334732 -1.2337073422781462 -0.7047429760528895
Ni 4.081503114040012 8.427646121694597 6.153651993833918 -1.629241481734994 1.154627922346476 1.4078018795351368
Ni 4.584716146183981 7.7999694506196535 1.8956661564911343 -0.3767946540658156 0.4108810542265633 0.4906225332222648
Ni 2.69635556527043 5.893012351713502 0.8697607280087443 0.8159940956210979 -1.2152167396731266 0.512601094375885
Ni 1.0940594807413182 3.403330245034184 9.99435485258244 -0.5747947942958102 -0.32350571283468804 -0.47220135040259964
Ni 5.278890021166434 0.30576154868345573 10.35643901201257 -1.0859133905888976 0.3636745717440898 0.36169636497179647
Ni 8.150940353224392 8.674963996048426 10.664236037502821 0.5034001446029073 -1.4277081315407605 0.023903803200791093
Ni 0.08597377722882697 0.8508553533891522 4.54668026651187 0.8332657382173521 -1.0288598401090152 0.08142735133855654
Ni 8.274306248722086 1.3273020515819896 6.676605801956028 -1.4232184712005231 0.4058905429905074 0.9309645730224225
P 4.3793637008769855 7.018208673736079 12.440628648803889 -0.4374081539828144 -0.054429739703790135 -0.3749414029071607
Ni 0.7458161914809668 8.99981232610528 2.2013402578163457 0.27683427692007806 0.23968260757044524 -0.3965589811769364
P 3.008951962262622 1.087659078350668 10.126073831374557 1.3591609785989818 0.49840449116052865 0.7132211887272297
Ni 2.2996422519755355 8.024430073994084 0.5608985192717948 0.2891418906428375 1.5101132734115539 -0.46254351559786144
P 1.786372773633466 6.837620576051048 2.637275571865921 -0.7226347687316458 -0.012443367969675344 0.04644697860862969
P 4.463722492851428 2.379721705142275 1.815442508212396 0.2408473173025078 -1.4275363818495868 0.2070545371227789
P 8.41828739378036 0.08888000645388383 0.5289867455499235 0.29583035840660665 0.6356078118181248 0.5805823475118647
Ni 3.7874753263090657 3.1286432081319617 7.767159015748165 1.308020965390057 0.3752013414367667 1.617874377548633
