# total energy = -340859.1677921299 ev
CRYSTAL
PRIMVEC
9.44662972138704 0.00000000000000 0.00000000000000
0.00000000000000 9.44662972138704 0.00000000000000
0.00000000000000 0.00000000000000 13.82609747721198
PRIMCOORD
 96 1
Ni 0.4972866461280263 0.9569152476616576 4.989396173911026 1.1299648723821571 -0.020797653471641604 -0.3983692949127978
Ni 7.990648995382976 2.2359700143664276 5.132261333357863 0.6797937623067196 1.6489163344561022 0.6800840398536288
Ni 7.208298017754387 6.8591694776882495 7.756634250724705 0.7253028024821122 0.12190448551699651 -0.005808379151660965
Ni 3.7192136818106745 0.9014805353174802 6.646191432685622 0.15159584193384215 -0.04016320248244696 -0.43655994704990625
Ni -0.12679077436711092 8.250969769737718 4.00414859448449 1.0483770842063362 0.03578024292340289 -0.3961992838446725
Ni 8.959089131265875 8.364197073196582 6.271518261275991 -0.3217378223009878 0.6160075210886938 1.3423611334328236
Ni 5.359299741990408 7.865093840179258 12.403931121721582 -2.2400229785380583 0.5065798278824695 0.8307321731622209
Ni 3.274872561103631 -0.09168426445186154 13.170422152764397 -0.042913768644390615 1.738492540154038 0.8482030762534748
Ni 6.258685014842746 3.326054400761576 1.3390966003485378 0.5122604232070145 -2.404994213337542 1.7476060724195321
Ni 3.578090480878589 5.773704493211287 3.7779811651093227 -0.76436017349489 -0.2058677159035293 -1.1823397864394476
Ni 2.15919725487951 6.211546332691927 0.5823639377750214 0.0007811011403986548 -1.155353487658591 -0.6574362205471258
Ni 5.120602302995029 1.875807810822904 8.197935445997654 -0.33409865785918585 0.9805488117084533 1.3248730039503893
Ni 9.620447675830796 5.176309078274266 7.544873876289059 0.08839092714058325 -1.4652716916168311 -0.12524434852350688
Ni 7.863034474906937 1.5608571769735333 8.86167170725543 0.00046819788567016145 -0.876662102925116 0.020411987997448717
Ni 1.1220423346348727 8.604330399904772 10.974132706408895 -0.4141245008645255 0.5320046957134773 -0.07163041985279277
Ni 5.0189093343870965 5.182043182495819 11.811897613796345 0.39441082448568204 1.3767419249055388 -0.736729556261815
Ni 5.888103178751656 7.912648174036418 1.0845316574636346 0.9009978514570032 -1.3701534730547436 -0.410306412670016
Ni 7.768804343753744 5.3388666819719255 11.265684038517268 -1.765326886738063 -2.886731528255035 2.624390045634493
Ni 6.058728204204186 1.1294673855708537 10.196650521722297 -0.5648687934313498 0.6817701693068001 2.9755677704631527
Ni 2.715887142484291 7.386130821660038 12.358512670837229 -0.16016224344661448 -1.599850944388019 -0.6275075513084936
Ni -0.005291057289113147 5.617768976925999 5.168278498375185 1.0421010213896376 -0.07444217826997503 -0.9177599014066904
Ni 0.5350797775269819 3.8640871947295095 11.645901436891693 -0.25195731117274023 -0.4280747923970305 -0.047110580334557575
Ni 3.6141766062926437 7.829300560285578 2.031399469787494 -0.16382015191417593 -0.9165345136400216 0.12141237637192638
Ni 3.4079755734292947 4.948862575239134 8.554096057204687 0.9899731903461468 0.18188240873252545 -1.5596604882120624
P 1.9598544751707698 4.122225797625966 1.1471788715757782 0.8198322384202655 0.08981840361572918 0.49411100599149743
P 4.269763260117252 6.3858272038343085 0.3735981449509614 1.0803978600873072 0.1325362541992298 -0.4929995180948736
P 5.518569918556105 4.48218962194601 7.463065118514646 1.2238021673492923 1.1600676053048087 1.0047701461496632
P 1.8327028395495184 6.879876489967728 4.1755227376714 -1.3445504277746585 0.18156462038179053 0.4056360037775401
P 4.009262999798409 1.6812639189964511 0.5355190458075456 0.3020274883562541 0.5423706123288337 0.9041842196047846
P 4.104966805183171 3.692526952937715 4.239095721493119 0.08951449922206518 2.224038430184344 0.3983934632825139
P 0.9047896896977272 1.501390643077859 2.8147725727484914 1.0599416491154843 1.5437445883127543 2.5198649319362088
P 7.274329959284294 1.2719792410673023 1.2776850053997866 -0.7980344258188837 0.6618191801061699 0.08279183578625096
Ni 6.160081094143295 4.5551176031492835 9.710746119707201 -0.3191824028689858 0.39325742760752913 -1.8950367272320914
Ni 7.555669484698269 7.025609646188312 4.862721593089096 -0.8778167853548495 0.17060066517111908 -0.2826709382065132
Ni 6.716752088488696 0.28048271610113407 13.261287394422174 0.2740016925672894 -0.5316676240890327 0.6710137021212444
Ni 9.121287763035333 0.18653503917565795 1.7706526524337538 -0.3804530767540093 -0.9710660690289986 -0.13533001489428306
Ni 3.1120032186262168 8.208714995136392 6.042515898330992 1.6872201151323072 -0.9298374013965148 -1.0226508830848258
Ni 5.557414459839507 7.719974714888494 3.6884847400935596 -0.25816858218977473 0.8141143620998817 -0.6926914442049942
Ni 0.6178086370331564 2.454829531013765 0.8127521212954767 -0.1756168874387879 1.7280525757676366 1.6310790491643652
Ni 6.0607119964389895 5.629227738739415 2.3186639213427513 -1.150558637373109 -0.07492323167145161 0.4935872722775435
Ni 3.2587093777048226 1.805288720190464 4.036709237698408 0.36543037809293194 -1.539243100897975 0.4566338349816458
Ni 0.1958834239164299 0.839422790897964 13.280782404112486 1.7586538455932614 -3.177399882844728 0.6643905403777719
Ni 2.2471264840297787 6.226915999196812 6.635793527386342 0.2398067918531354 0.9631419290859154 -0.2894038860549726
Ni 4.144151425135396 4.164877330674255 13.71111984096775 -1.4950316964880832 0.515640652533157 1.2982425458470546
Ni 7.313854657905343 5.182827252760051 6.2625449077338935 -0.11399448664130045 -0.45392106403617305 -0.1151208869362598
Ni 2.626635385177487 0.5689119370971119 2.045833919953116 -0.2640638646282872 0.43568705752664966 -3.1335291496037065
Ni 4.02226156225122 3.4886308977186142 2.1557785195948647 -0.7301228495785749 -0.40868481790619293 -0.6590177061016327
Ni 6.070668744131768 1.2043697123792416 6.269056469578896 0.9482297878607734 -0.6045188037228041 -1.2576471409231953
Ni 1.0116017869344232 2.4844919482389303 7.225242437428522 0.8596095183182034 0.841529777998357 -0.1448135289046861
Ni 6.032901118632974 2.7030302794768226 4.045101623514598 -0.343202419932667 0.07037006508313043 -0.769362768915804
Ni 6.231941606191649 4.68692642720748 13.550142658417151 4.451741710814785 2.254515772837595 -0.5092226648219552
Ni 8.204709624148025 2.5113676097056805 13.061984290558131 -2.6620932166122215 0.1562078867845568 -0.3268517464887855
Ni 0.6801441123655451 1.4122711385867084 9.459428928109562 0.45859507247307474 -0.7409114555536466 0.6854391335179549
Ni -0.06735352502347407 6.631864674098461 11.95036631178567 1.2082169113165255 0.6109442476331737 0.6765266615196737
Ni 0.38190078778510095 4.97562487714961 2.7595371842907634 1.2329516950590445 -0.7593069273416987 0.20003593971310066
Ni 8.196047064722714 5.666768645125659 1.3617023851956147 -0.5470808733203094 1.0809262217869513 -1.5150932431246489
P 0.7081080255725309 7.2466985674423805 7.779046379663146 -0.04162333196774122 0.7356790035101137 0.6613229571960417
P 8.50694509443527 8.522437567126122 10.081354406361422 0.06393716497359311 -0.017685075984588898 -0.23362380297087507
P 1.2151955500034584 1.4232103357671995 11.582356792959041 1.180555183735199 0.6992786105042086 -0.6159681832103262
P 3.46349341611474 4.688475674476565 10.648071891381653 -3.3897768606216845 2.3566165933651027 -0.1687821239051416
P 8.789106476632236 1.2163291455662035 6.8738382042701724 -0.6407937268944384 -1.4323170910676815 0.13848013048749055
P 4.882093796593443 8.27947025151107 10.45045595558016 -1.3597021958144324 0.6574452194081903 -2.4029913239749
P 4.716192085985685 0.048914648532454696 4.5292640670149416 -0.32402147612884197 0.683667643439829 1.1897800447675768
P 7.7343241453869105 4.724930218448512 3.4625525317976615 -0.06106164319801097 -0.4877056166857858 0.7559588368050723
Ni 8.255494705359009 0.590479537341308 11.592920014277889 -0.15643980028970478 -0.11807045648288698 -2.7592117534337897
Ni 6.218848577441943 8.939071722953734 8.745338351954645 0.3751997987748699 -0.49731202942729835 -1.60617534394415
Ni 7.5048466169685275 0.533566427450717 3.7000436361816846 -1.0482554710268075 -0.9988131572352799 -0.6465632823883639
Ni 5.061268021915009 1.8004331525300388 12.543810201523554 0.24584528473773146 0.9903241459276622 -0.8657058610239285
Ni 8.469356954900578 2.6582438081186983 2.6895905594175096 -0.6916910279649379 0.402226720985675 0.3778197528962203
Ni 2.867590568668666 7.769900152797731 9.194189293675475 -0.4662800998221583 0.17454576586179615 -0.1270757453052908
Ni 4.400202322870465 3.1787719972719084 6.2964186324746585 -0.7306542966020126 0.0918958549700482 -0.5479681610212692
Ni 6.809461312261873 7.176283389736525 10.242525244820659 -1.0478988590183371 0.24426071385943096 0.79062502072869
Ni 5.046502939710253 0.4650660815829324 1.8500704682337434 1.2656484139611173 0.7451170089945619 1.4552973540129388
Ni 1.7747099798854127 3.5782888601020693 9.357364706954831 -0.5261397522922681 -0.440952419690647 0.5629368665159595
Ni 2.561585893135293 2.6827767054224423 13.26471652099948 -1.896204779398263 -1.056905947612954 -2.1242019802109806
Ni 1.6713071713036727 9.462216628530946 7.125237581546109 -2.00632101403108 0.1289066278664425 1.4806813413036823
Ni 2.360145961635473 8.989082180530175 3.952161901976996 -0.49062536143574204 -0.7016640800172497 1.0582066687022484
Ni 8.85209660340211 7.930747916521582 13.850431178325382 -1.0547001982108868 -0.05027252300230697 0.3165665625126935
Ni 4.384199732176379 2.9806289395337395 10.410470261430262 0.8669582453737908 -2.4629813313752873 -0.3965157866438268
Ni 4.96362765744389 6.70034329271796 8.611529676391172 0.4948712811962897 0.3043376245466694 -0.40728099558013087
Ni 1.6634570220316622 5.928723686416692 10.503493113309132 0.690329885951353 -0.1252374065449714 -0.4779719343377898
Ni 3.500165232569547 0.6632355898842317 10.712861601107386 -0.8270588380756916 -0.5404412565166048 -0.10591350940537887
Ni 8.758584416105322 6.17566803313104 9.513558116230644 2.1036200422945703 1.0458643450868117 -1.1891395829701004
Ni 5.4892381333700735 5.738903109435011 4.890622213877163 0.6553896224307423 -1.4191970087459558 1.0091669896657782
Ni 5.796225258391159 8.085615963651954 6.370222316250152 -0.7904028774155549 0.5152511304042223 -0.8185569712522677
Ni 7.832295141897164 3.2241158197817152 7.297289992744728 -0.46803050685436165 0.5279451809321231 0.902279289272588
Ni 1.6399160208453205 3.5585076175321655 4.279730399102689 0.1449909350228148 -0.0561544357043807 0.3881676717894476
Ni 0.7568242948815052 7.226615032722411 2.0443545777437335 -0.4130184122845403 0.3801193475636744 1.306907420610904
P 8.909692704619255 3.830731145295732 9.367651142023774 0.4527733235849751 0.31199565531255946 -0.4580867653780885
P 8.656891447497388 4.490852181371321 13.393049929994891 0.31811668060863274 1.6485172992454706 -0.22947018581381773
P 2.190862357598859 4.203532939363865 6.362977695941241 -0.9086365989491835 -1.7493978742126322 0.4420183990613162
P 1.5361731335947573 8.374002674814328 14.281391148077187 0.6801156644225126 1.0405539886174917 -1.129014592653746
P 7.584245539509138 7.965426494111896 2.680313024399409 0.1429962731902892 -0.5783143774132944 -0.2719131854693769
P 6.998913470685663 6.90652543232193 13.026133386223345 2.725345953924281 -1.4438775422117713 0.15886589323269415
P 6.66414380774763 3.1091975696084226 11.208540430862252 -0.6039446763868889 -1.1050958770546193 0.6904250167683206
P 2.816267029565377 1.5044230112082024 8.651555991048735 0.29556116390562004 0.24264786084635628 -0.39161346424620297
