# total energy = -340866.2859251085 ev
CRYSTAL
PRIMVEC
9.28171655863446 0.00000000000000 0.00000000000000

0.00000000000000 9.28171655863446 0.00000000000000

0.00000000000000 0.00000000000000 13.58473039385138

PRIMCOORD
 96 1
Ni 8.620811760661807 6.510576415904885 3.126947131118266 0.23702871488736602 0.423285084317871 1.2208117172624007
Ni 9.101391189418191 1.6510131453797672 4.967106805477486 0.6099430600621689 -0.6795600490293587 0.5187226338925905
Ni 9.029068055422986 3.0812699484928547 12.10305742559117 0.9809596739936267 -0.12801959727579887 -1.0075716201542002
Ni 0.8653130697080095 1.9394517634540744 10.538802339513246 0.11699856357494688 -1.6296130061418 -0.6216189537382005
Ni 8.149523329996951 1.1946868415116616 8.822005029324572 -0.12668236652161408 0.6848999731850334 -0.22202709927221115
Ni 0.3412552969354876 4.991094473277435 10.711885930133857 -0.8428945195563677 0.3903929615755406 1.2396221651006845
Ni 4.912868167667632 8.220871883772766 0.4826288317320188 1.827822177058807 1.3501443769226682 0.2479330205046956
Ni 0.6137637051951169 6.921617225578611 9.435206262507354 0.5657583951251547 -0.6387155042091709 -1.5469443261969744
Ni 2.2387963982691885 3.2151865523535865 11.889192757733042 1.414252520256487 3.3597587169930394 -0.5155578630113636
Ni 0.9627274675801705 3.306453669470483 3.6585992042289393 -0.34379248810818214 0.5719976911666471 -0.4254399258773447
Ni 1.920349991154006 1.7785532100907677 8.358399075303431 -2.0544942313021974 0.5897467876199521 -1.4926701382344423
Ni 2.5112426190291046 4.35088808630114 9.873640201719073 1.142519054898084 0.03965926626283492 -1.2551588272837026
Ni 6.510808458814265 3.163014024608842 4.015048670870556 -0.20926568584148472 -0.8969211102844682 -0.35455435461037643
Ni 8.732851359026299 1.477194442822245 0.5554578192696702 0.5374415504583324 2.360947873750605 -1.0198126423050824
Ni 4.0775786659183355 4.036265746332521 7.616632147750194 0.13467206959531 -0.5598330307796553 2.2018081580312336
Ni 4.513039671375093 7.769706214209246 10.429037689832306 -0.19273452095568097 -0.4392282379106887 -1.0066817613500791
Ni 5.66605160636231 3.93056556025226 0.08142200055776955 -0.9463228006460476 -0.8894790521841262 0.675111783450018
Ni 7.637209712953912 5.889490364661409 0.11850245747651256 1.974519296139451 -0.7991459137155076 -0.809058287733213
Ni 6.166196893237521 2.628238653937929 7.752384675109932 0.565889007165748 -0.12637640524542107 0.3492689378417211
Ni 4.770737244814888 2.752205257844495 11.347922970114434 0.2945990571026669 0.5885134294334833 -0.525815793293946
Ni 1.8238294225687723 4.213258795890346 6.987903531243416 0.3328997524550783 -0.2645963400929895 0.39789338371764377
Ni 7.35201969561091 8.108813721975523 12.947959072818575 0.09857609520370121 -0.03925174641177111 -0.30884142595429387
Ni 1.5767037240802786 8.174695344806372 7.016784519916347 1.6609902349015009 -1.2911519575488601 1.246343542984918
Ni 6.8601536997423365 4.3252334222402125 11.790581018448485 0.9435480661143878 0.4270905741068903 -1.4719164506268585
P 8.327890073578299 4.423879503875357 3.7536514052836236 0.26708336818090134 -0.36972849124765356 -0.8011122934132591
P 0.41527791319898383 6.95579250527193 1.3027455117228501 0.8031131258933717 -1.9003242008832757 -1.1122756826325102
P 3.746147137594311 2.238490101628808 9.206032331660047 0.9219482284564251 1.415484078670743 1.260341914146539
P 0.1694256661971613 9.294432326588659 12.643824144182243 2.474870112393073 -1.9526037270132823 0.36341386188353536
P 3.6726545073358365 5.009156693343487 12.42728355749316 0.21171851825735152 -0.636632139317581 -0.8179633035323268
P 6.799441992932449 8.756779623841446 8.571584321522899 0.889134524360514 -1.2383741516261961 -0.494461961573013
P 7.350386113528882 7.865474963768092 4.892282248919176 0.8048357650114333 -0.9266957704437395 -0.06185791384706121
P 1.7839830141702333 2.0467855316163632 6.015210284791242 0.13351584450367976 -0.034068145328302615 0.4579813501484758
Ni 1.8167474729745292 8.543727106166147 0.6484002861922817 -1.1213197951126495 0.3730549845177253 -1.8254657610114886
Ni 0.45793111262936975 4.112060242252034 1.382002087850296 -0.4688699720365216 -0.7093578491170816 0.8666751669157331
Ni 2.9713837083273984 9.022543008811251 9.013400518181724 -0.37195969457101746 -0.7409011711410014 -0.6442397764615099
Ni 3.26460241033491 6.444481313597409 8.51793785721778 -0.4699863450291519 -0.45640526391060754 0.7578154303978368
Ni 3.8444497957235746 7.994398004218991 3.3176223587847065 2.9903022484598503 -0.7359844505656744 0.9562071496392952
Ni 1.3262737345622295 8.753391797364516 10.751336009243177 0.4148796338629952 0.16397210411100793 1.7324442770774293
Ni 8.521228225672772 8.78719580840283 1.4571663552279361 0.21415412428203762 -1.1864869758386016 1.140301478421475
Ni 3.2308726530275984 4.25637236845294 1.0831595938910779 2.15169350076303 -1.251754172477528 1.1013487513073614
Ni 0.33931820272799285 5.142080153552077 5.404589368760752 0.208754293422705 0.10980050316461089 -1.374747263073013
Ni 8.143397397189348 2.11558161338901 2.708863355059073 -0.0016002546075843409 1.3982833985217402 -0.1719587218609103
Ni 3.3349392570258325 6.897494044719584 1.3300439677538176 -0.2304055531438935 -1.5758391548544537 -0.5170467888520643
Ni 4.965978148766267 5.345600348510094 10.329217471075705 -0.21227104832671181 0.040455536911885165 0.3352911355053903
Ni 4.144898954787332 1.3063366077883976 7.318419882332849 -1.3816874418362721 -0.7914094643031983 1.2147822232388692
Ni 6.805270910816047 7.222335554417247 1.8113204534099763 -1.4080954995161554 0.051005544513589574 0.34475999422777404
Ni 4.916135331831685 8.273109383532136 7.753362039844236 -0.7225146982140138 -0.387620541036726 0.46106384572854137
Ni 3.4048398630471226 9.145275144439921 5.437519042116525 0.22018850340157564 -0.21168715079878384 0.6654958576268087
Ni 4.2647259131905795 1.5573884723035816 13.486947414552171 0.4080839510974004 0.30952945316025404 0.0593289767776204
Ni 1.9075783494217933 5.762228751441663 2.794949418095358 -1.214694034400437 -1.5305591999707318 -1.220164313486389
Ni 6.937349734834498 4.6396886913140785 1.9937767212262172 0.1269505325813362 -0.6561995199265472 0.1528885926033367
Ni 1.704828536922914 8.074768386311455 2.9872415207543503 -2.0667159701793696 1.0503583763024231 -1.310556330217401
Ni 5.481967325493867 9.212177756072036 11.789534969013006 1.0176842831081698 1.1276341673664516 1.2678623908933002
Ni 5.685636027913886 2.1244920611091587 1.9615533864865928 1.0023337687940284 -1.4117207549735689 -0.6630427681006259
Ni 8.689505743554326 8.67174053841228 6.766540164725801 -1.6086636575836422 0.46958962381136543 0.8497205413392657
Ni 1.8771250379949105 1.530944862350766 12.979897458865484 -1.2953626531960982 -2.880765540479587 2.077407902675577
P 0.4886638037191444 9.059512085133493 8.82924569626883 1.5463105492677174 0.449334215996439 -1.122694049752357
P 6.109392789021573 4.796336218577564 7.4950899281608185 0.23069557358048656 1.192129775946676 1.5219987119952303
P 7.4982067285195955 6.539210510922238 11.186808152759586 0.06630232277166 -1.0241860887824297 1.0667941532609435
P 6.5002273021465875 0.7076018577479309 0.4889849511057248 -0.19661765806017104 -0.7250228093478481 -0.6686719413619452
P 2.2431216781000107 2.3465199985192338 1.4560525492629175 0.36939656182953157 0.08623274314699987 -0.07243337537006235
P 8.088505326546684 3.643602735081602 0.13351377737005024 -2.8606381736020925 1.1092487228807284 2.0632228694244468
P 5.014252355633446 6.054955522481291 2.4916841862833783 -0.002769335215021037 0.1552735478957455 -0.21579371676798964
P 0.5999107435051986 3.5593804406934484 9.154682163986141 -0.21754129558671564 0.2095654764700907 -0.27116165201533304
Ni 5.473372456130474 6.208734999384855 12.906281381779218 -0.5306834057988925 0.3559373510008322 -1.0760516673034692
Ni 4.580137199051086 4.73219027670887 5.504763220911247 -0.7541233262582302 -0.15565921336993838 -0.4519192031147959
Ni 2.3972724236585794 1.4625386126658757 3.927753200190588 0.2591378880815795 -0.566324809151586 -0.5093417068983227
Ni 0.7504202717297945 8.671499213786525 4.95191913297282 -0.32861166660268565 0.3442349749622394 -1.0650745994666753
Ni 7.367724359717671 4.345040604984793 5.800367324027174 0.29402235866359044 1.476534151904528 1.794483196587045
Ni 7.237613259570752 6.739918345818582 6.855507272524934 -0.5272067601042016 -0.11475913272146687 -1.7729694908849851
Ni 3.299715143382121 0.7186322494881647 11.102392798670829 0.24369070028857384 1.468554476133161 0.026859286284689227
Ni 7.561870021136782 4.004717192373371 9.377566803817645 0.3739425293290011 -1.2259438962826437 -0.2976977506326486
Ni 7.423952997518358 6.168814337255314 8.981993046311477 -0.22477715121352257 1.4875317885666124 1.453580371321832
Ni 4.3517605676404045 3.432657167023461 3.107438819640966 -1.2577556414766016 1.042971854030365 1.0816888109845888
Ni 7.043402626137016 0.16060061026766417 3.4770525446174636 -0.7829741890516516 -0.04909701463696706 -0.10609914305362374
Ni 3.4237188741541873 0.3992196156983287 1.882313517448622 0.3918757167686541 1.7533486313302642 -0.06803756029521185
Ni 5.163613735542436 1.8937300285900622 5.546482679674291 0.1948932191698966 1.2706708068763728 -2.1110232767371775
Ni 6.4750460056207935 0.0719342300790864 6.269203525225713 -0.061593861552397156 0.6128594623780155 0.2336034912559009
Ni 2.570088700847585 6.58673289876303 11.105041800524297 1.1456552865342204 -0.8158313447909885 -0.14277927208347668
Ni 7.858114562682594 0.9806504619005942 11.933030304172899 -2.3926223220357503 1.1592811048477711 -0.26092634744057
Ni 8.952698093088213 3.112781375586505 7.306642312424415 0.007514306099174155 -0.792404481226616 -0.8123729539287429
Ni 5.393846710228148 0.8806436806448525 9.571407096768013 0.5230009495529702 -0.06782107340903158 0.13249151700422343
Ni 5.160058838170752 7.165967690870933 5.211496253978583 0.43437399514218095 1.3696870749412862 0.17461261454398957
Ni 2.3348528810356646 6.714050202281026 4.7936305982542065 0.2644940101871703 -0.2722299453788473 1.9275935781221902
Ni 1.740303256908755 5.292035563309076 13.550129914261124 -0.8764088492637293 1.199162257313425 -1.5125727906956403
Ni 6.297087657559953 5.55536713858859 4.225734350870192 0.9415179230582367 1.1738379196160234 -2.260519041608881
Ni 8.25264319892492 8.511473141762483 10.414081132065382 -1.3715976617004377 -0.9584614928911107 -0.34629288593253266
Ni 0.7741332007250398 6.940264193776297 12.384424303959246 -2.5993475008435687 1.7321701974804362 0.25691696917086077
P 3.589174750257695 7.022166059070662 6.537162036118241 -0.8298605691905451 -0.008983434445532915 0.395404555857519
P 3.441743967354738 8.530166518542044 12.604713775892254 -0.4398751274660682 -0.49806921930829706 -0.36964647305680853
P 4.81255137708496 0.7823493760603267 3.746423732742291 -0.4902741487439105 -0.15730009140747103 -0.6851578548321103
P 0.4653509166996684 0.7288272867546347 2.8810085641541545 0.07306046743109998 -0.2177683239958572 1.0668576595090271
P 0.5542576933423626 6.071996753746076 7.260114924579041 -0.3016809036501127 1.3389554501853842 1.1984947989327552
P 2.7017591293455294 4.38266868316967 4.270061043763018 0.5118739864018733 0.6240039090306092 0.8144689172258232
P 7.049036627976734 2.2281781147360116 10.442364378203752 -1.5301156846754098 0.9985858717158221 0.4382237079055743
P 7.3404918038729665 2.295721164798012 5.951171082660861 -0.7040120114241359 -2.2888456564677164 -0.012142291789488766
