# total energy = -381165.05762718624 ev
CRYSTAL
PRIMVEC
9.32549912491629 0.00000000000000 0.00000000000000

0.00000000000000 9.32549912491629 0.00000000000000

0.00000000000000 0.00000000000000 13.64881060522296

PRIMCOORD
 96 1
Ni 3.5073387909894866 4.623069457059742 10.85477628546858 -0.46171896281403707 -1.2406462354898247 0.7318035797151073
Ni 0.475561277306533 5.869207899885232 7.7691897105259455 0.02759513600944925 2.1520791662372227 -0.27458456165395295
Ni 2.1522505444003106 8.758900247078047 2.111853415672765 -1.4900920930946207 -0.5090560573371039 1.1776554935899008
Ni 2.7914015886830783 3.112459865151127 4.994795966754636 0.5474482839620572 -0.313976176077698 0.8406283492300104
Ni 0.17413877134304812 1.520019020308646 9.401273251234166 2.2913159723850796 3.334673748999954 0.5689157098072137
Ni 5.921039022826134 7.705202799756062 5.873328837853491 0.41862778805151774 0.3166406102837385 0.0392453186538679
Ni 4.584685703546832 5.1382846208307065 4.938248939015026 -1.1129426267925477 0.6204233907682024 -0.1080287559761688
Ni 6.632248197185254 0.14765621953887811 1.4579251858174613 0.056896456076727824 -0.30086997771304314 -0.26256414015430907
Ni 5.859397475032077 3.7586330101130057 6.341005405831752 -0.2696809537047485 0.797419160832388 0.24919491793625467
Ni 3.8427863122754222 2.124078212193677 11.736352999411606 -0.5812611187464441 -0.39586581176465374 -0.7002821120680585
Ni 8.530481476780372 1.9155134290750557 11.503749877753084 -0.049155635789044375 0.1290873764186809 1.427734871013638
Ni 5.203413905217044 8.191415661917416 13.421216066299861 -0.44576681036015486 1.8605759744510604 1.302706495155679
Ni 8.756223828890922 0.25347638586842197 7.984131269799117 1.219890748110028 -0.620248555753235 -1.9909686999447258
Ni 0.3781956082886521 0.6309763119383999 3.6145596472552888 0.41367764313509403 0.15517893129941016 0.7337411630574524
Ni 3.806743258988882 6.743156355720006 10.382949870475437 0.7802884146893723 1.8488540580284416 0.400723139856955
Ni 1.6375016555748387 7.441943965531216 11.41732488405623 0.6566201524037336 0.2342552659072869 -0.6519209471558515
Ni 6.051698588051934 2.221511024803709 2.432013646595796 1.2167300909938594 -2.1361586383522244 -0.16742972364230518
Ni 3.2724481244483807 2.525046688820164 0.3587034504672999 0.15199436292384147 -0.7136469634107386 0.7275226929515664
Ni 1.229436474277962 3.666357198400117 11.603017015998681 -0.6395655109142921 -0.7380174218353032 -1.9468876504651118
Ni 5.8913093323015575 6.099090773511753 0.22254370598447526 -1.397129230312639 -0.9357946474212141 0.3572892370430363
Ni 8.589446606387304 8.526639371229516 10.194091731653096 2.210141617597594 0.33029573917332794 0.9127935585403506
Ni 4.000536451834313 3.110576114371339 2.768593283449386 -1.1613189612134065 0.3833442822588753 0.6904728392871204
Ni 7.975922033108782 6.9784293677164175 0.22163633494054763 1.0801543766179333 2.025055871436422 0.669715037914479
Ni 1.9330173905288295 7.921591676460041 7.099947146360898 0.5350465678635946 1.0667653569055369 -1.3640131644849607
P 4.8952714447391275 5.440477413004144 2.270820532839391 0.36660768623048473 0.06036667401351539 2.0668599519564017
Ni 6.967238769024607 6.051493427075918 4.587529048164442 0.15391883364006395 0.6462508933542677 -0.6529486170894174
P 1.566599887363308 1.6918972907159484 12.121084849886167 0.3079525955914374 0.667373791375812 2.84146237200459
Ni 1.4258874343126986 5.634680927801608 10.002052665152606 0.2351458960423563 0.21909424189613236 0.28237731822549433
P 4.461020262503414 4.465142133021564 12.742120179986674 0.7083718310547285 -1.4020366949165854 0.2863548148160036
P 1.3909914173920688 3.9234425523466476 7.478565199750166 0.16427806538720094 -1.934282045885959 0.8896037506874485
P 1.32767127979424 7.040527864957056 0.915715500352177 0.7543349280484042 -0.18864852381176542 -0.9255331175942061
Ni 6.349629627223574 7.133605669576192 2.2681319915036835 0.5051747200048268 1.2151406350195526 0.11477224534758942
Ni 9.175936558326192 8.264620828359678 1.9873626679758263 -1.1710279609710543 -0.37436367602681975 -0.3673232242402706
Ni 8.825493634793231 7.2814055017982815 5.712764262723609 0.4687961813757926 0.43945295232698506 -1.1245429300356375
Ni 2.529131257342675 2.9634663690685774 9.463443554816411 -0.8896024651358678 0.4208991005841977 -0.3341238546701665
Ni 1.9113635820601758 7.309633786998374 4.973066621744813 0.36963901685764083 0.6056668012843183 -1.7090963463801083
Ni 0.6240950262928272 5.238291271139855 1.8491951435777125 0.20336577541728204 0.42475755509833946 -0.4140774496766739
Ni 6.357463046307842 3.8613906826005575 3.8139686555442274 -0.11726364431087546 1.0042507833110834 0.7252012439072414
Ni 7.543116303204094 0.3536247837609998 6.104743890950899 -0.21534583059729365 -0.25673879172178365 -0.8969802456571778
Ni 7.308412146641185 2.5752178729551156 0.3284664528020274 0.8597190473128743 -1.2866692391871581 0.04235506792744318
Ni 1.8728026440679781 0.6799277208159439 10.415257128898697 2.037062923199627 -2.285824353142889 -0.9915251082142987
Ni 6.11757391235106 0.5789223095735515 11.213207431367712 -0.878637481483932 -1.4268915491767362 1.0369220482918593
Ni 7.580427624342374 5.0941190579936935 7.353624030455881 0.44582466018128375 1.562477388835567 2.2036125582298243
Ni 5.618519838190852 6.3598690250265815 7.9554684163498255 -0.3479869858055039 -0.04887667109604485 0.574314512225282
Ni 3.622601957515137 7.061724723979127 1.6655098590006587 0.05474032896567346 1.1508756543928953 -0.7953527652216625
Ni 6.1076236050142585 8.99281173623362 7.972037962812833 -0.9592842459027221 0.09353261924252278 0.32381784475846814
Ni 2.090767530087721 5.239857954956708 6.037824110773871 1.041147656337433 0.30267566346321423 -0.7730255624793719
Ni 7.368701497093315 1.3914297158408315 9.502397096312713 -2.1863267745661834 0.3568223247089468 -0.8023546504607924
Ni 6.647681897881042 3.7171345399642077 9.172150405768797 0.1977890526604529 0.1372485720732346 -0.838652199340246
Ni 6.631763271241941 7.58533283676895 11.86163548196599 1.3312161725595977 0.23300236733679228 -0.4831974444027872
Ni 2.8853186882040993 9.259856723015861 0.0066565411218453925 0.00031058926188333604 0.01746216134050541 -0.9045002081833069
Ni 4.512459714490103 0.30656178841269893 6.253939750359793 -0.10391139137368556 -0.9257040959544316 1.2549845064893677
Ni 1.4299813283341194 5.438276595261422 12.778425279792582 1.1236736400568066 2.033070257100466 2.2836204035130345
Ni 8.23913423983908 2.580402850348988 7.32625835390495 0.3736157421172017 0.31414406911412995 -0.4573475732192188
Ni 2.4181391693177323 1.1186495472290359 7.979913346642196 0.22430149712868466 -0.835295109942555 -0.26231834269209015
Ni 1.0459199812311764 3.304872884157902 0.4366422401561974 -0.4068824745901315 0.4722951956679866 -0.5737321573592505
P 7.808081703729442 4.227435165809685 10.918734287191842 0.5776116949193149 0.05056202921826776 1.7858376050969051
Ni 4.260829777405831 8.961617942380197 9.45436704672746 -0.18765067867487037 0.33529062128475806 0.34681096321953175
P 8.053967133485253 0.4070981270599262 13.587185700597885 1.0924501632661507 0.3169437433464542 -0.7596887361611497
Ni 0.34116498466755957 2.6620848953002962 5.140455596976918 -0.23894984316947881 2.079698755592283 0.2612701039332339
P 1.213946820588714 8.067181365440499 8.932586731723967 -0.889740533375629 0.0065162038519629715 3.185679606355017
P 3.9419536676826845 7.04268205520523 6.384763444366405 -0.3922336143287051 -0.282738558219655 -0.9557389517536251
P 7.8300432536621205 7.998303230492405 3.678927970930584 -0.18362253135208376 0.5888841825093406 1.1814018480062105
Ni 8.82967145830484 6.093989725608068 11.855738969005298 0.02014485037899111 0.4564924243077751 -1.7045766041328838
Ni 5.068371355503619 2.1120483185999808 4.8578985753080435 -1.0821176709918914 1.1119357827945882 0.34628414418178427
Ni 7.821902093113828 7.646060485669842 7.725800029198231 0.27080478289654647 -2.51698118263051 -0.16184425913472772
Ni 5.406318110497392 3.8088228452457766 1.0069328679387988 0.5162973122805495 0.1806819606665211 -1.2186846436170689
Ni 3.861120243132172 6.515632833317676 12.741587693998923 -1.7192115804372394 0.4611432928162251 -0.7086081154352506
Ni 2.4801164350725444 5.420977794783664 3.532789942614228 1.0169790295110293 0.414389581600454 -0.29240667743703835
Ni 3.7774984944076166 3.216224691520942 7.347305072394573 -0.6375065715027344 0.04178968234227641 0.34845981167686435
Ni 4.932731973859963 2.109185390434659 9.506232674014331 -1.051573479656447 -0.289254762071618 -0.17373329726282982
Ni 3.187110483924414 6.291541094514168 8.314978522472826 -0.5171604316117931 -1.1240253669692708 -1.0324961513100217
Ni 3.0428077137935152 0.38608404781648764 4.660672666313899 -1.2468904166273236 0.029230100509710946 -1.6281816730119123
Ni 0.11215031498954478 5.164256135294617 4.315453887270231 -0.295167270901311 -0.11078574989601567 0.1480459197990547
Ni 6.083582468824686 0.38004205707280087 4.053860587150683 0.1999302673731718 -3.309568469291894 -0.5373502762961069
Ni 5.864834240896515 1.778167481130899 7.358005149843726 0.3949258164488876 0.6100253353633301 0.0326057018501632
Ni 4.645459979942273 7.412456737978294 3.802668015965281 -1.0989275434603785 0.09528122650251333 1.1041787645569887
Ni 7.652112734462331 4.855171799426806 13.351239387580186 0.7243494374299074 -2.703378191403938 -0.2990470655716914
Ni 0.3372557355245537 1.3114449116911147 1.3229246008491302 -0.05286085255477348 -0.937731716542927 -0.6733562342114919
Ni 9.109650912075033 4.214575302813013 9.183424933950796 0.4787784893994851 -2.271912885268119 -0.0025482203431504502
Ni 3.244163886254829 4.944435474991815 0.8681638488610004 -1.466832351235732 -1.1448993822048024 0.2356027810741168
Ni 5.955170348836157 5.4825540640853525 11.418649104901428 -0.17818773348975764 -1.2539578649970662 -0.6248929965037819
Ni 7.609047580496679 5.1474236097623525 2.285234023954443 -0.2831363078787059 0.0667016150926077 -0.7979976590436773
Ni 1.059833625604661 0.801866079461259 5.98589040734496 0.01671448454120347 -1.4496103309304904 0.8836531895309685
Ni 6.167670492494732 2.8152748658922744 11.533653955107274 0.28332322707853136 1.629455140407697 0.6076573493517857
Ni 1.5378960017188137 3.367344401354935 3.1140992878594775 0.6097054901300661 -0.8742519508217265 -0.9251739344825743
Ni 7.734512842829696 1.8442386409071312 4.239784924015989 -0.09458728575928226 0.7893371551552019 0.13756893152713082
Ni 7.851631783638405 6.174189016232712 9.607574735767368 -0.5424071219937239 -0.14097204367140884 0.39300006018108447
P 4.814615204667902 0.9547818803852881 13.4440504829305 0.7725830756253146 0.433438370701789 -0.0759079641822241
Ni 8.773308142893754 3.1354378944649786 2.5434011357745154 -1.8211933588883795 -0.27585622927752496 -0.34022842490600763
P 7.7139780942302245 4.321324288833977 5.570134487097136 2.445436894733621 -2.1578914020436257 -3.0152447773378004
Ni 4.332524213024697 0.19788428921717943 2.338683120956204 0.5689437348316718 0.3968608286880714 -0.43095185683450943
P 2.470389939709579 1.4183990586880952 2.670771597534814 0.04038714556779496 1.108018450018053 0.5222599576218877
P 4.6898773312498525 4.5325468391419035 9.042159478814833 -0.8868413574509629 0.3019840367128283 -0.837116993642642
P 6.648539843780747 8.020507243396738 9.788640487700647 -2.335689870514764 0.018887838043438437 -0.23777279214224212
Ni 0.6706675003984705 9.127649124971029 12.542901411875496 -1.4753894967771235 0.5583708444118319 0.9301420771211271
