# total energy = -340875.44094840274 ev
CRYSTAL
PRIMVEC
9.21283984730652 0.00000000000000 0.00000000000000

0.00000000000000 9.21283984730652 0.00000000000000

0.00000000000000 0.00000000000000 13.48392236465476

PRIMCOORD
 96 1
Ni 3.0810499902583883 3.779447731524177 10.008711156226529 1.3045003538313085 0.7874887890925535 -0.0423812931796883
Ni 2.366124414520442 3.3043507995873442 3.22552942800987 -1.4204072270039731 -0.6316778806360992 0.5138462796368957
Ni 4.240283187561957 8.72157426241022 0.22811728193879108 0.7362950398275577 -0.15013057024222531 1.2984693171458799
Ni 3.7421265177857657 9.032148302483181 2.67210861784088 0.016865408296770953 -0.5272147305240017 1.0116051667936254
Ni 0.934808421527788 5.680259249898997 3.345496263096877 0.3958035910681506 0.2368991312880372 0.7026688671326802
Ni 5.248038874056602 6.558860136245831 7.1958027088215575 0.02257479997672241 1.390624853535218 -0.3242359061324932
Ni 0.8873134688776697 4.627351435897083 10.846466917638965 -0.24722313892186454 -1.4014150021721863 -0.0819891373792975
Ni 2.2504940630934382 6.759543424042375 9.364125611812394 -0.35183284191415537 0.3403320403634074 0.37081838187772265
Ni 7.156165387175509 0.3074499661211731 4.633884260548256 -0.35461091887992474 0.9234746924032804 -0.6033620644105415
Ni 7.599302978095668 7.97053435493824 2.7411597728867356 -1.887918371019755 -2.4270452796003106 -0.5290656676898113
Ni -0.3260893834590039 4.851803850192047 0.4594701131900803 -1.5556241133591595 -0.9368212889135156 -0.18415680658899897
Ni 9.360337292116213 8.947500731061677 3.5514225779826663 2.778323020341944 1.117261565882876 0.1533303081264456
Ni 1.0295993294898982 4.809848578070417 8.243247308864726 0.30029456482554734 -0.45965616674773735 0.5052436255695492
Ni 3.015813872143926 3.2268892431537335 7.221557202281376 0.3058386345722281 -0.10163287975215399 0.3717300950587147
Ni 7.9069289094556465 3.939695865754223 6.808908583157292 0.9570525283587259 -1.5256082837233595 0.09775617040556712
Ni 7.791713135816405 6.4749772305217554 12.638453609293904 0.9018931095777629 -0.0060294940235315515 -0.8951282800501035
Ni 3.4675101911714608 1.5641743547111493 11.620268988227085 -0.8047259789064463 -0.2643376871149641 -0.7452453070423101
Ni 2.5207987807150065 7.462980588639418 7.010762822883275 0.2806680488438715 -1.3054025539306033 -1.5338080459253327
Ni 2.8259188196689506 7.2973245174889945 4.325966282168897 0.4566857712655038 -0.8080519579558858 -0.2609829117101183
Ni 9.068787766081716 3.533409633746344 2.4864219905536866 0.13574267695166947 1.4828269268917753 -1.1018462597690701
Ni 5.3180196046310195 6.563770579820892 1.871487049520374 -0.22776168776314323 1.4483281217839572 -0.04687892393972571
Ni 5.199993914874717 4.239481670505615 7.834562974675631 0.3942172204176372 0.8105994069680879 -0.045585659049598916
Ni 5.624420228307166 0.9226935372853762 1.5045221387558703 1.562523154471838 0.013393904808402739 1.4440678038457067
Ni -0.09780350655318916 6.715524475821658 10.465209207320333 -0.6388921389963513 0.7376584958339877 -0.6332997325102383
P 4.623435979012653 1.798613487271342 13.328695223548435 0.8652482046612194 0.4416340191387039 -0.12042070188261843
P 0.40846875373945857 8.418545538074548 8.95108636828384 1.0682072315583861 -1.0843177639670036 0.9069972635735477
P 7.3893607863724124 1.4312146517556457 12.409347789652292 0.8466187624854904 -1.060394934602819 -0.05520312753470493
P 5.34684658014015 2.988820251740681 9.552280358862738 0.266442906383425 -0.06604701222774431 -0.3537598837335391
P 5.820911674027439 7.063244685678197 13.171634731864298 -0.7621050589121262 0.11228855969378726 -0.05695044924311482
P 1.8071814282184469 1.2057211865714088 3.0080741654883743 -0.00565796961672574 -0.8311209239602074 -0.2378915771082935
P 1.9167865824632933 3.6915203891594786 5.369500031747501 -0.425154533426442 -1.2185959405580045 -0.8431351748122641
P 1.4102830798934711 2.6942212757561927 9.28262883157789 -0.9477831872416579 -0.434076261396104 -0.7756701991910706
Ni 5.005851743285102 8.515823912763237 5.5313613342139325 -0.4032006548631701 -0.2937264246897264 -0.004302484030095816
Ni 2.3291256501725144 0.28058716804206707 5.025780958184863 0.4745767926133118 0.5027774234172439 -0.9312900746826412
Ni 3.0141924123517856 4.017387743181036 12.593201061833598 0.03666804484499492 -0.3347504325105719 -0.9772020067234074
Ni 0.7377457797443746 2.4830537763491045 6.884756050070545 -0.729157400341512 1.0690492678437074 -0.026716075838605597
Ni 1.314865698829852 6.141573773602637 12.581982586896729 -0.1805032689968117 1.1777735072250037 -0.13651529345163588
Ni 0.3796076907233343 7.043262036308014 1.198475288125282 -0.009914945120866795 0.32836329803730546 0.1398908947920881
Ni 6.48173024204243 7.344300787262424 10.764134532841123 0.8246350591255477 -0.6941158353563465 -0.7716335672278517
Ni 4.477228212528185 3.888076324757848 0.9277292754807391 -0.6385257567958681 -0.371270896034109 0.6730515584868796
Ni 5.851562791802727 2.0772834633659976 7.494943614791985 -0.7185665121995432 -1.571934420483409 -1.3139550714863049
Ni 1.8348567987615687 4.795863487363207 1.1140672505367064 1.3132248781884996 -0.09097360026609494 1.0721610739998115
Ni 5.52177998089674 9.023488233138796 11.99547202027643 1.1395854261910567 1.2127603077128342 -1.6666528325039167
Ni 7.2494177509030315 9.18961415911535 7.096534360751605 -1.3226142898231998 -0.48408987431006956 -0.03627363762005366
Ni 0.5923625624155688 1.6219112212869629 1.0433752887352812 -0.14992359643774178 -0.16795088625309787 1.2912455457039311
Ni 7.5239327362803285 3.594057757676228 12.25603600245351 0.39579870597214417 1.5949396231293307 -0.6383673768411328
Ni 9.367615435501387 9.43938345698305 5.984124500081977 -1.1817142370403066 0.9544819394180724 -0.19216682137766905
Ni 2.013834636158781 0.5467811165769707 7.378779839944724 -0.07226676788521103 0.132192754816882 1.701348327003573
Ni 3.571117786753334 6.456376507110782 13.606220964948863 0.41102863554802116 -1.274486323967721 -0.09572911267320933
Ni 6.1488150656289 4.575473935388321 2.6482289372657224 0.42030568997457296 -0.7268058693902 1.3973801699811805
Ni 2.1906382433801688 8.79493610516484 0.9311481603038259 -2.916729874389338 0.37194941015837235 -0.5520315324573655
Ni 7.7734164361164595 7.378802872044044 5.327511593402851 -0.286387724936468 -1.122270589061693 -0.39206494996132474
Ni 7.783347877343318 -0.6774864376510156 0.47140442577382186 -0.4614551676296891 1.623646761256036 -1.2183054059007794
Ni 3.3092520303226776 1.7751299588044918 1.3950874220459928 -1.9862234719502565 0.6067767465190453 0.6932378036267675
Ni 4.204813754608888 8.73674780944235 7.852766624694325 1.5569600585617638 0.4276073658423087 1.2825107369340945
Ni 7.977563751650758 4.458249762688361 4.519823777010915 1.3539861192662617 2.8240068955323046 -0.2836093908603825
P 4.032312543540509 9.0286750619057 10.215689577409261 0.4437852611537519 -1.096929024973111 0.2571239429753443
P 3.1176894538569218 5.824790279552956 11.263578236327325 0.15360027395838063 0.13156334876299922 -0.05016736488301037
P 5.595473485881571 8.213182127696143 3.4157340318997083 -0.737027290007892 0.18464248797616586 1.1153633204188984
P 4.503890170701219 2.93928281252285 2.942312915509412 1.1913152504651807 1.0891766347212017 0.027571996080997675
P 6.552447999795095 7.77837294389016 8.62702657341693 -0.7150045058798977 -0.072426690501843 0.10989923352600428
P 0.8063731441627394 7.570991921611309 5.047827283654134 0.729095436755325 -1.356547966456167 0.6706108102558709
P 3.8546613550641387 1.2431253158673723 6.462412759700614 0.5788723067992935 -0.2263709780632037 0.6330652479019291
P 7.983294137961617 0.8701619251559221 2.3454747555539472 -1.039420903454313 1.6260828815013546 -0.54747399499367
Ni 8.740976502877535 9.26498440093069 10.890586285812718 -1.0518133635813949 -1.3549608244747051 0.3591553437174975
Ni 6.672325470336739 0.7259505810405268 9.680768149414236 -1.1217381135969908 -0.7390296651499014 -0.026504216938115648
Ni 9.036395421597822 2.2950105046594715 10.927923161378665 0.342548588398752 1.2940724736297649 -0.7610280237978635
Ni 4.744787503910788 1.5295248644938788 4.5284405460085795 0.4020752830094753 -0.34067579685607136 -0.41235866721335435
Ni 3.4926612436290916 5.2600155657030925 3.1997887538096434 0.9980281994401392 0.42533888152310617 -1.126795216404924
Ni 5.60650125503607 3.866048424968033 5.325246156113717 -0.47163673614838125 -0.6893672649277676 -0.03577252961391904
Ni 5.35319422671279 6.2049949622906695 4.4154450667438025 0.6092182660810024 0.6990340985935702 0.3286114094923695
Ni 7.554841813568003 2.874267802561861 8.891527202009815 -0.17988389024525794 2.367463820492252 1.3775806187567499
Ni 1.863702199950155 0.44565361744989396 10.17483247578322 -0.9214895436524517 0.41509689208012385 -1.6380971323534113
Ni 5.628768688658815 2.284894806638051 11.551581740350489 0.7960765307615644 1.3355173710381127 -0.7375340544409814
Ni 6.374437510569329 4.936626465568386 0.44579365261376064 1.1523766644184539 0.6893042729003162 -1.063857953450755
Ni 3.7171505092829684 1.584580794708824 9.077147496850966 0.11379368348440402 0.7574372211228116 -0.9687752161122928
Ni 7.622473270011763 5.7711715523355895 7.897843206915825 0.17381634389493936 2.286983663558313 3.3667400334068787
Ni 5.256072470299479 5.150106387747219 11.743552445616197 0.5157617514920536 -0.07359448555769905 0.7581195919018169
Ni 7.436705569734963 2.5377780443338396 0.9659680880560657 -0.16044557901498818 -0.08699970322001145 -0.11356125575862377
Ni 4.697018929920746 6.0107883008229575 9.634437699705746 -0.43857363504582536 0.33641496469718835 -0.9926368532212387
Ni 0.9331040461780951 5.394707282527473 5.973727810448851 -0.80755624926639 0.8653014264966582 -0.7640891792216905
Ni 7.04938857472718 2.663229282910966 3.7644814733859273 -1.8932670369261781 -2.811789527530506 -1.6627257295353688
Ni 8.768670299100112 1.0391530442879067 8.43052591485693 1.5151724331020164 0.2465384541500141 0.5035873209130488
Ni 3.5014134413707576 5.14680819112457 5.678713335392628 -0.07869272601621286 0.5644856990603181 -0.6284694010011306
Ni 1.3331071214914303 1.1768942110622784 12.362208452615679 -0.05833113164072535 -0.21823137967520478 0.695400615606041
Ni 9.315747147832354 2.2740236557589286 4.281670948756338 1.7373756529407756 -1.0511947561607895 1.4936425294500404
Ni 9.391108176807965 7.322097843517775 7.128626366660363 -0.8363616035338565 -0.10537537751372175 1.5364393129005927
Ni 2.7446247219084627 8.141497021772032 11.842915685935349 -0.23878889211158227 -0.5557691451229267 -0.2036964192838234
P 0.5251079111166864 8.343377978733226 12.603044981083043 0.18783914053659262 -1.3071701873539874 0.9072865126791922
P 3.37606354403064 5.52989649269717 7.766590643161932 -1.0376365578603806 0.13693798281135125 1.6384295759921652
P 7.674249429283516 2.1450438995659513 5.84921720280796 -0.16983473353937203 -2.0313746145655984 0.022419248235464616
P 1.0027899658812152 3.337913174716703 13.062697508499738 -0.3867833898474113 -0.5387147607438012 -0.5841996325494777
P 6.754955429857796 5.5317114221236 6.039677923642239 -0.5703910088011596 0.5934427484143006 -1.52987991451552
P 8.180301502706662 5.790665921200185 2.3956745979482266 -0.8708632368551519 -1.0489434982327677 0.11407521928056483
P 7.661996352445183 4.911281943476466 10.367639706896236 0.7226612510942071 0.28087605108961944 0.3062674945795306
P 2.464480691457316 7.004651025007673 2.0590079531974257 0.5864421487267513 -0.9174292575401489 0.7066867300428217
