# total energy = -381171.23838908016 ev
CRYSTAL
PRIMVEC
9.22886789775293 0.00000000000000 0.00000000000000
0.00000000000000 9.22886789775293 0.00000000000000
0.00000000000000 0.00000000000000 13.50738103662055
PRIMCOORD
 96 1
Ni 6.956914486938561 0.2844604747538986 8.387259819149604 0.14727998816730764 0.025657809777420326 0.04797472810706577
Ni 2.1507599953272343 0.776639695489628 9.72274807763744 1.0361046945968864 0.25420805488012993 -0.5163875580015107
Ni 0.2529918807275142 6.506351923456212 6.234075400204934 0.633280963457161 -0.012153604643398423 0.17294576836452796
Ni 3.880886646020018 4.241772299374389 8.185621974277511 0.325723032200981 -0.13494486364072242 0.2000714209367264
Ni 7.229516789229413 3.867587847265833 4.489880263168722 -0.6411215425475022 1.6990122226712288 -3.2472441573313753
Ni 8.174718989650035 6.432382546624296 3.846739834506844 0.5584706032144897 0.4226006566563367 0.22994841100181687
Ni 0.8780501883629701 6.195154495287499 2.1685698647483487 -1.4398465666755074 0.5120783891031955 -0.5252383235239212
Ni 2.047645853425424 0.006879198189708172 13.325180396182688 -0.17348724269029478 0.8008605824137691 -1.1263504155580215
Ni 6.104573156097821 -0.17162464332560773 6.2266729252009565 -1.6567610273115014 0.46732216793342746 0.032455806535860235
Ni 5.9107023265147784 6.290636363372715 3.5728371847180997 0.2935274213050429 -0.31574766615582395 1.0811979873910993
Ni 8.209908663244557 0.09102247907895594 5.63195636681195 2.035464982584888 -1.341165827573142 0.3630297390712393
Ni 5.830808016441927 4.412091057881318 2.1289254165815534 -1.3200835529815458 0.20120193499674383 -0.09506293984412015
Ni 7.421781795784537 4.87792739786483 6.517135855686792 0.11109993870232478 -1.3850532729847114 -0.04654082387401662
Ni 3.900027318203349 0.3618233063407871 5.393307992693565 -0.16319640228724797 0.6293147797205614 -0.19327008174417684
Ni 5.497747400036805 5.932021011540572 13.367850067272192 0.24025802045794106 -1.8261982683021387 1.3622177631474346
Ni 4.2487216369607195 8.580493856842265 7.820571332805329 0.6642964380020687 0.7612236847484374 -0.7552196446462025
Ni 3.7811225831936897 7.822933000120526 0.2678420521885545 0.6041827605396239 -1.1500816977366903 0.11799306627773228
Ni 3.7311851785726664 2.6877509074098205 6.247717512847846 -2.5292083208243215 0.40301013611891884 0.3593448340204844
Ni 5.0357502691315315 5.2146426459886595 10.24841516871282 0.21381730976790916 0.0753628903120315 0.3843392991822929
Ni 7.900243227159947 6.077864812173733 12.698519034179707 -0.12952394973546724 -1.2015338428693951 0.29858092456855034
Ni 7.952967749909884 1.7414412428320143 13.412343362673857 0.8128979731942774 -0.15201236064597046 -1.5785758370593266
Ni 4.152769096608699 0.5353121809976547 1.6906243270928272 -1.1598182082981638 0.07113316850140007 -0.5602315517696544
Ni 5.6482056346582326 6.230325711146069 7.953996768689268 -1.4317388499667085 -0.5916715154464907 -2.032679192309635
Ni 1.1932372561579399 3.0575701049654764 6.058533102423288 1.4398049148042946 0.18270181931002727 0.2722772536770149
P 8.508351795869702 7.951767997072935 7.456398356677718 -1.2211665294986582 1.6174668576975693 0.055248121840027434
Ni 1.2131716109872523 2.8696795818312277 10.82070926946604 1.3197277123040239 0.6308512709697458 1.0290840403046793
P 7.214722913863029 2.8732050093982635 2.0316586854296745 2.1457977041038854 -0.3532965709438754 0.38838107335183436
Ni 6.266752053049447 7.436114227752094 9.564819997275805 1.6339016062148248 1.374481411006136 0.8360944659153988
P 7.372850337772956 5.595665689267827 10.512645964862156 -0.48886646976310644 0.5599764983360549 -0.09089003941335314
P 0.777286639134783 1.1068273652936553 4.549866982129393 -1.2965127076401413 1.0319420785787647 0.8924630745131146
P 4.837994086130369 4.935746255737812 6.442426323643158 0.33751076886452835 -0.11546284365671082 -1.203485053058495
Ni 1.981770193808927 8.161161782592506 1.8032349741424907 0.8843810688359286 -0.9499215737408995 -1.0131647979712615
Ni 7.4558547763539 5.859722059812407 1.6104983724337647 0.6949285610656291 0.15802051451326335 0.05901530219194352
Ni 2.511276493962544 5.080833289196899 9.901153170265406 -1.0912674558119593 0.4864390912685364 0.1656276374365599
Ni 1.8179670160934311 7.962067413734746 10.967642076520432 0.8837969141976844 -0.1260349627456023 0.41037763222758356
Ni 6.3692201741928995 3.5085941118466515 12.984158958261007 -1.0314543403090686 1.0217605100600724 0.18753266503976734
Ni 4.575442021065963 7.191872236753131 5.35670353363824 0.18485486109728808 -0.9126488054323703 1.4847429129675656
Ni 0.1819471321573606 1.0016921013049842 7.477969912686067 -0.44539245773987163 1.1040743777686404 0.3453081534217602
Ni 6.996118718102877 6.924493473736999 5.9202311327005495 0.15443125450010825 1.261233572722873 -0.5948067186413627
Ni 8.385257154798696 8.25577613708793 12.366777223008432 -0.7964328856597186 2.1007581473657435 -0.6361266604360721
Ni 9.356687798008625 8.568191775829545 3.13302348376802 -0.8082375916041307 -0.14065065577624808 0.4861056191885176
Ni 4.203131029156643 4.303624172553118 4.450006939076109 1.1002457480511696 0.24124146741713293 -0.3968407740834133
Ni 4.014899037907263 3.045111133197156 2.268739997765645 -0.4780642369412799 -0.5758353197451824 0.041445668739296365
Ni 8.621377741978309 4.056078246818556 0.6895893211877722 -0.08999838083701919 -0.5807947206329868 -0.283270519463725
Ni 5.926428317546793 7.33026834092923 11.830926076120948 -0.15930323788042886 0.5397966809540704 -1.7626827642469967
Ni 2.2758757584851006 0.425122266018236 3.30358126995554 1.2523828072004626 0.5768002547616131 0.7338535202656006
Ni 2.414622559644307 2.666819834839042 3.965983268971242 -0.15723915626254856 0.7910811344295021 0.5640025887763126
Ni 6.011038579155652 2.902091366164814 10.562407098104828 0.5154802156958929 -0.3534150987996107 -0.18323943698105216
Ni 5.947064066342322 8.945449440974288 -0.10084937770036896 1.3501402631576103 0.008951295656016841 -0.1937519064766018
Ni 2.357246687434198 7.367156126231435 4.4176837518750975 0.3444571182753745 -0.47065791717487976 -3.9886734330617046
Ni 1.471662974141983 4.975171979733565 12.46631333279574 -0.3118475597704694 -1.7800839904425794 -0.03499734201079134
Ni 8.417456675168822 6.048701589367886 8.51922709389325 0.009393268289441889 2.4887031616214235 -0.8293332359321653
Ni 8.292064045971658 2.5034965582583264 5.852491241752793 -0.4314074563146892 -0.20795725144270635 1.5676661321253582
Ni 3.5737960641008617 2.925800327996529 10.3719131113144 0.5326055625222699 -0.2679248902455902 0.47173186696534886
Ni 8.864290775988652 8.482907806858398 9.674432185119894 -0.9035141901209537 0.1245871745554822 1.1730863861619798
Ni 9.297992197677873 4.185254711886097 9.380592411841443 0.4025059427889907 -0.4759567036799738 -0.530614243123854
P 4.952109038660207 1.663678801261742 3.6582448205201326 -0.4963193264967259 -0.8390314370565357 0.873239193286496
Ni 4.928455450036351 1.294911694655411 12.180281181825439 -1.0082483345062505 3.0081505894951803 0.581298656852599
P 7.496655601678155 2.360264527262524 7.902236662642879 -0.17950336697738764 0.1890951244308808 -0.212703250768124
Ni 8.259421539938659 3.9697237291621312 11.625195228301264 0.6759450779845908 -0.868354354390369 -0.22176536097039226
P 6.850680987660684 0.8519195715742128 11.2412207930432 1.6205452395125768 -0.19137723559683817 -0.10468889296965841
P 0.9055005332723718 2.7075376003515084 12.99422211590262 -0.3288474367625756 -0.16988692693354615 0.1900934837884081
P 2.0549366591268856 5.006097916322929 3.383977630446315 -0.018008006541646405 -1.695180250519648 2.189403356608978
Ni 3.4347170236944993 6.224308489225368 11.970294902981772 0.09052519987476668 -0.005310099359003758 -0.3109417601267484
Ni 2.8703809757974446 2.140340603381728 0.3883073887730457 0.21934852399878352 0.8100455913471469 -0.6750241088322182
Ni 7.636694444354076 1.4508057325150172 3.8968931946385186 -1.0905678586417733 1.9584599286837434 -0.8712252481802609
Ni 4.3663989325295 8.306562597562793 3.3049046896233754 0.3687782115192423 -0.04007218543053744 1.0430420451466682
Ni 6.90015694888288 4.374797202388145 8.684287243427148 -0.9989651094321119 -2.270896271078147 1.1307809405255493
Ni 5.79877461569538 2.4857402162714752 5.574374690845963 0.8354923135550256 -1.1039630490017567 0.09709693955501342
Ni 3.602442470300022 4.855122865094815 0.7140255178160378 0.26558184393471035 0.0179360156531304 -1.2531060585197322
Ni 1.6300211197513237 4.05279276981891 1.505329884520378 -0.04813567916496226 -1.4585030054344301 0.06792957396243784
Ni 4.8181981643207035 1.7626214948381589 8.127607464403425 0.29793017835842883 0.7156747924740449 -0.27907345066324196
Ni 0.09470387451479521 2.9141165811382375 3.1979531844169222 -0.2818152750744372 0.287769178665027 -0.29611909329161906
Ni 1.6050662607427768 8.58961197840308 5.838160655558832 -1.264504530164661 2.7842221594351986 1.6977798929260244
Ni 5.823609499420232 7.536016723598071 1.6011375316451664 -0.07689115403109983 0.2346617573170862 0.8105847516800685
Ni 0.7374188523629553 0.7121179108052883 11.490229494352041 -1.271281186766862 0.5088997342648978 1.1978340254203048
Ni 0.9817208310037654 7.0570384756159745 13.215527601319502 0.8148949490196481 0.29325385592868203 0.3968045215288392
Ni 2.798811104639426 6.6807406127407925 7.669356331009826 0.14162613231563997 -1.2030816469724894 0.13973560016114644
Ni 5.785688080904655 1.7309295622067424 0.9094652549550907 0.0652175743479135 1.7165756854762888 0.5194258306072022
Ni 1.3116344034288898 8.354082038773965 8.170439563569316 0.9559379551383085 -1.9472123807943822 1.112361300367781
Ni 0.29146703132168295 6.261759235474142 10.648273408645295 -0.22298020721409983 -0.15281634460450455 1.0132182769170164
Ni 1.84118684792239 2.775572815074514 8.355409149988992 0.5650783383389946 -0.0011891352120947263 0.011794935752399042
Ni 7.585991043691 0.44551344981238705 1.8471883807675298 0.31707409827673133 -1.448065869261506 -1.2422580600616349
Ni 9.446300106060768 4.748114140906907 4.748141827510836 0.7706200383616728 -0.2877460387365754 -0.5113834199186998
Ni 2.5523449564581187 5.607534013485649 5.620164642198333 -0.28427916323389746 -2.509696476043639 0.8093616779062448
Ni 3.727604377797771 6.103594896092309 2.7790354863393096 0.37475474081765137 0.2225696020392425 -1.065129363964011
Ni 8.586954064425838 1.920204415537471 9.866710112090185 -1.3283000273540673 -0.808186426651221 -0.418402302304273
Ni 0.6884790883701951 1.4237466916078203 1.386370699189657 0.4086925312156768 -0.21541884992707416 -0.1167262837501667
P 2.544657309433666 0.7091323720148798 7.493773426209083 0.9868585559765648 1.5614044674863625 -0.7891402086530472
Ni 3.8607677138311747 7.397048429607427 9.713293102395482 -0.23899509458511745 -0.350564516724693 1.3362899875380794
P 8.469129106969433 7.573356723431126 0.992411551667782 0.2254374105053408 1.4139817830936035 0.38442054604218956
Ni 5.064701227973917 0.441354921902161 9.996150522781857 -0.06577678928549317 -0.7637778186288587 -0.024854597149834613
P 1.354594783859654 4.906896814443169 7.62247183591544 0.1011500265784645 -0.0016192807709778565 -0.022776374464567227
P 4.058440837020549 8.704695962070454 11.751029920274503 -1.6711075258411607 -2.1071283125581455 -0.310961043400458
P 4.326733257966358 4.081605295641649 12.210766901412322 0.049553128337779175 0.08280340575047675 -0.3421138148541785
Ni 6.9468457919761635 8.62089784084353 3.80873074174549 -1.7837753232512377 -2.5690740466710076 0.07042971467647226
