# total energy = -340854.4801926116 ev
CRYSTAL
PRIMVEC
9.41944561390908 0.00000000000000 0.00000000000000

0.00000000000000 9.41944561390908 0.00000000000000

0.00000000000000 0.00000000000000 13.78631078810602

PRIMCOORD
 96 1
Ni 7.296151639302872 5.769099421197587 1.626798492452849 1.2711613733595462 -0.5339859878095642 0.5657979901138385
Ni 5.535958729904731 0.1809324736224674 12.600232825533121 -0.15375788258216744 0.179957938016303 -0.6746047619066123
Ni 7.635995807261942 0.9963229905910562 13.560683742484704 -1.1518580729108225 -0.48887726839638396 3.16205708184007
Ni 8.402361879080727 6.976587537133205 3.4752666756791224 0.6625758557665363 0.2232897680347187 1.2683017924235642
Ni 4.262515657788249 5.744476991112357 10.214195013596026 -0.3881314192348735 0.9489810642045012 0.20964286667524537
Ni 0.5032206793807527 2.9358338806825865 13.176762222061663 -2.4713250753542924 -0.6171352069352339 0.5919471377053805
Ni 0.8507077852782907 3.2750186874687546 6.057442771830339 -0.11254387023770294 1.1438539716594236 -0.038121489462069835
Ni 1.5242923206244228 5.017917495246206 4.690695384025546 -0.6301676146391598 1.2661531215116775 -0.7016198570428755
Ni 0.976372605388104 7.360495870332789 5.86717751177771 -0.5748973813119455 0.10787114735238197 1.0912646275984819
Ni 1.066771022192982 0.49514727279083276 9.006459166248304 -1.9425512278732868 1.3286622957894925 -0.5698824445958572
Ni 6.052426917193619 4.194789845885876 12.702030655072942 0.42558827852975095 -0.07934630043981174 0.6939795668887984
Ni 3.7282070410496955 5.42081543022537 3.582442066556228 -1.1963440711383397 2.108085791375408 -0.16183680293556
Ni 3.4722147753931183 4.106303576482414 5.469360425608022 1.495113457568612 0.07688704026604178 -1.0418482819488832
Ni 5.712045840850901 0.8747433839196377 2.239131200669974 0.12509265343699102 -0.15081422657281124 -0.27230322181894395
Ni 3.2136321622715682 7.920811575619667 12.856658385674749 -1.491837615030818 -0.7947706674659474 -0.5003297332076997
Ni 0.5916852840599621 7.677488463928138 11.403181455020011 1.74342288757612 0.4297946033016147 0.8480004733243653
Ni 2.570048560292482 1.8916789467201462 10.267092734664363 1.5701058519151023 -1.1263619855222473 -1.6329042752985619
Ni 8.748630108752929 1.434346037195249 11.916583612854904 2.5009506115302087 -0.2594194238777403 -3.1740960152824758
Ni 4.402140095872933 1.6854307718363692 8.154892327556176 -2.6208758618336474 1.0142947978106467 0.4965324709487965
Ni 6.484553391023002 2.2998517710825284 8.466062761994799 1.5575012757772144 0.39150830612690635 -0.11466708722829283
Ni 5.510224805270894 5.394101883277508 5.406453601935029 -0.39481397346137165 1.1257207523938226 1.6049759243194102
Ni 7.418839914689298 8.661151719999474 5.5558554242693186 0.8702546567368754 2.0203939471843784 -0.45641966208831075
Ni 2.6784381176722603 8.567221011196906 9.643923896542859 1.358717206193344 0.8002034084457444 1.6014080044624937
Ni 5.100544869656165 3.941557477710161 7.412595764381915 -2.244654049552166 1.1097228343036696 0.22505791567873498
P 7.792735377506098 3.320222605593857 13.563137507992433 0.5176042040174311 -1.3988176737586553 0.8491340727081764
P 4.095009661535134 3.7843375157543186 0.42742428672205796 -1.8523595000785387 -0.9122574835312225 -2.3093471188551775
P 7.820014091173591 5.245745619374535 9.687929661222347 0.5278929875379489 -0.4662924411173325 -0.5676715529874675
P 6.055563592487569 6.65618510432942 3.327546224335734 0.8771585829455603 -0.6842474272026989 0.7140531977102218
P 5.155912369289288 1.553294792786788 10.401936804245508 -0.9238984102042604 -1.6722334119154878 -0.7535373718477731
P 6.025826403589684 0.7109335780129052 6.928862033494017 1.0050133725087207 -2.221309718399271 0.2456833052385704
P 2.2439191047297755 2.1693641949652025 4.379138752328509 -1.1560600268073122 1.3802921041506422 0.23367496792378464
P 7.977629669833175 2.9481639346158555 5.825060345886321 -0.4089596688341344 0.4325256290795325 -2.0637638295295813
Ni 2.0540042480433165 1.822182279096265 0.13366663891524663 2.256613278796572 -1.3224140008869356 0.5271972470225049
Ni 7.566593334091332 1.6206249879854198 4.000938602997191 0.22225412768135272 0.45879896095376466 1.0907079837640636
Ni 7.7446302702202265 8.327562063737647 12.360047331080072 0.14449934009837695 -0.3025501936289435 -0.4888644128805774
Ni 3.78559972142816 0.17403084603124783 0.49234498780599883 0.8985108233690913 2.8426000851534594 0.5358366678650577
Ni 0.6372254763832448 1.0698794391509492 6.190356797063945 0.013422444053493012 -2.886309610226268 -0.37320925070740246
Ni 5.078418592582636 7.721665662512579 4.9621345980741545 0.9388144080841445 1.0815183468449954 -0.7397115217082744
Ni 8.306584958994033 2.98849799950681 10.061924970159613 0.02615274713596786 0.4753638072909813 -0.8951125963208196
Ni -0.10803727012454196 3.3195444055303005 3.776249979996408 -0.02013996528298467 -1.2117658050100486 0.3780174707293232
Ni 7.031512322835949 4.840351531383669 7.503199525094926 2.1326323703665206 0.365004603409423 0.15437906110593413
Ni 1.9802028939049168 1.294090496273645 2.5220677896849293 0.09155441247022941 -0.42445390781499154 -0.6866359820395336
Ni 5.313763434082051 7.885846594565202 1.780267631279411 -0.20497220067245345 0.7096540402012617 0.47163313660395545
Ni 1.7817822780880204 4.066365128295201 2.4545972447509223 0.10929682405531498 -0.860100599022009 -0.1338709138502533
Ni 8.00019866083708 0.3262151725151836 8.160530807529021 -0.5474092031940057 -1.4843230518213277 -0.8722932844334591
Ni 1.5128665334425622 7.218262245892479 3.611558514007052 0.4349103272616252 -1.5805519869490907 -1.7658953576470235
Ni -0.08887058277281061 7.661776829122414 8.539971497809928 0.30693598140146494 -0.7528714561290001 -0.7822162278397045
Ni 0.4837695247801406 8.704952140770828 1.9875170932014667 -0.3289171136582464 0.6583793011866854 1.5059989941328644
Ni 6.31027481357965 7.089875206083113 9.25632219883049 0.8693632552708576 -0.23370093606571365 0.49223332935281033
Ni 1.7484562805204829 3.6115660495633137 11.26163733397765 0.2572296153152731 1.1601732776447375 0.2787592618569328
Ni 5.057865362878745 9.057408946022981 8.68923579624244 0.5432162481585806 -1.109464181325644 0.4195839813171999
Ni 5.5264450901242865 2.398030649727651 5.811715817691316 0.06645427496849199 0.21393840872680572 -1.7940363388576133
Ni 6.080572219831213 6.764951439522284 13.723775786657507 -0.9378456164129718 0.9110745189667149 -1.1964281462117137
Ni -0.040374568505861075 6.719625068607928 0.8066097100345981 0.7254277580957507 -0.5473248710103154 0.4358099562577591
Ni 2.328807146018258 6.762643675417128 8.504678720058076 0.4255797938893187 -0.5263027602326936 -0.4026854057896484
Ni 5.202425590314867 4.8177260237078 1.798589394385295 0.43221915358270724 0.816958002196264 -0.18334922308603907
P 2.232926612032965 5.728115414579058 11.672068941329487 0.5762250989844333 0.2659420554876065 0.17346898785784964
P 4.263099663398534 0.4683527186131568 3.803491015882592 0.47876974764873675 -0.012633629603610499 -0.16707799672984128
P 7.52215239103773 8.581783473672715 0.9839769236007306 0.3940025333036698 -0.007778358393838216 -0.060925888951095075
P 9.313712053375356 9.042903000219136 4.396398943946021 0.08960294517081342 -0.18466639923556585 -0.6956993777933824
P 4.671715201691293 6.243933660140372 8.155677909296461 -0.4212045476397585 -0.5387345582381432 -0.7639266855018972
P 9.220092186268586 5.153830671871982 2.7180120333253117 0.7861060498124139 -0.13115197225719347 -0.84302718847949
P 3.165658927220277 7.899956923665307 1.3425704974835382 -1.55194949272105 -0.5691571363940585 0.7556479904328729
P 5.292418970970678 4.033557200220658 3.8145070571927207 0.1301582408853565 -2.635005102146178 0.009855809748157219
Ni 5.774741668948564 2.25683316427333 0.3293028666934309 -0.7252007296866092 0.48363401771957354 -0.28618280801451357
Ni 7.164599665863576 0.8393667731043746 10.227815531539118 -0.2924766114430253 -0.6458623996665974 1.2627636362141543
Ni 6.629876593530625 6.042545919045415 11.37315414720605 -0.14913375354659478 0.29655258128461187 -0.048281974934839426
Ni 4.311930067974598 5.664166800252881 12.56123161215596 -1.7744275634877504 -0.3165670767333258 0.8710020764258611
Ni 1.0221793680141458 8.604503175801856 -0.2802040079255423 0.11513759910680817 1.655942388064948 -0.06189648039448051
Ni 0.6197646505802644 5.760621920403131 10.27573695964111 0.029731208515845573 -0.4186565844069241 -2.5261710766598946
Ni 2.937642414185403 2.254054427901814 6.359569596810344 0.10660745014860995 -2.2434363750949813 1.9625898916917168
Ni 7.245343151208101 8.964665087331637 3.1856300352029487 0.3866733466321083 -1.3033050479716264 -0.5719125876520086
Ni 8.722745472993857 2.4164645042329282 7.659384290009312 0.9365114709825807 0.5918108692378324 1.6110015616881996
Ni 7.369632732300147 4.799697205351591 4.171020817547289 1.0804888771392165 -0.40819965073965825 -0.14787622699040984
Ni 6.579783983280721 7.1704962386383855 6.870118604655637 -0.7557968573059113 -1.1638090746251117 1.3893362166307814
Ni 3.838320356924346 9.311018092011784 6.423566250307689 0.7585808478089515 0.27334580415084536 -0.25110653313667075
Ni 9.461644442238606 4.76444964093731 7.973657489738706 -0.6024956026451881 0.8451612041033573 0.5893716636687205
Ni 2.151778090539371 5.095373594171548 7.02342196124444 0.37923643073808877 -0.18607562087826665 -0.14628522835420613
Ni 2.2967527735698883 9.169707573213538 4.464048458341244 -0.27323936047996816 1.3486181700861288 0.7562282884163751
Ni 9.064624241143598 4.371244315199806 11.745715816564521 -2.7731275921839336 1.5589395508856378 1.1929574140542938
Ni 2.6629242912184066 5.916315932215972 1.408368148927439 0.7101289229551512 0.6449162337032442 0.33315480588867785
Ni 5.663629891869232 3.550151266030147 10.384193395082711 1.4454649413035494 2.283904253302041 -1.185513813292055
Ni 4.143387932735494 2.468572875782849 2.205795783657109 -0.8913248471436133 1.3051906950301135 0.5836337327436787
Ni 9.177478615608454 1.5089763025224396 1.5786839657216498 0.2679691132199643 0.3374467483958124 -0.26211239732887115
Ni 3.415142356155778 3.912394874977234 8.949259584499046 -0.6368239436134129 -0.09494184088522359 0.2505488608609878
Ni 7.4538519929703995 3.0491121301871673 2.0552494987155687 -0.5292659566260756 0.8474194040099148 -0.44855568595920164
Ni 4.283944895907568 2.6924071550924578 11.935208682100324 -1.7763314653786828 -0.1080657798616913 2.2329527019548383
Ni 1.729391323178285 4.700755351634967 13.594377098420003 1.048616453910652 0.33668750163228467 -0.6327042650180845
P 4.918843769295001 7.681152628160408 11.745150649844891 2.1336659538373577 -0.7766891273738882 -1.3804635967315
P 8.665578859303245 8.673877390636484 10.27034621108037 -1.403521506992228 1.2942797045445644 -0.6881737588402987
P 8.468589999176078 6.253145877670346 6.0243145826146725 -1.2522460245122822 -0.16640308215000374 0.4440002053780353
P 1.4520922721916427 3.106580166128249 8.507807859795763 -0.2771806045159033 -0.2021974661407937 -0.22517978596857993
P 3.147074361589765 7.199508130246078 5.42314862683291 -1.340267998349221 -1.470375331391984 -0.5601395062764805
P 1.779144833396412 0.5543965258432828 11.642993939438103 -0.7266426043394583 -1.0703265918942342 1.3728377047551261
P 7.979598333906554 6.175341259267899 13.108216918415826 1.018966235144387 -0.7879919539812171 -0.5910269398839564
P 1.9103671262492572 8.81292724255621 7.289250011711652 -0.36890702378762275 -0.06141928364774584 1.408482193431613
