# total energy = -381167.5200615041 ev
CRYSTAL
PRIMVEC
9.23908826491746 0.00000000000000 0.00000000000000
0.00000000000000 9.23908826491746 0.00000000000000
0.00000000000000 0.00000000000000 13.52233957705549
PRIMCOORD
 96 1
Ni 8.182182506948788 3.5336739781648734 9.49237110545789 -0.77109440689493 -0.350652448452809 -0.5245631518337676
Ni 2.9085572857115167 5.8278781089150264 9.716990888420597 0.6972466676758443 0.8849189436172696 0.08669502749539909
Ni 2.6597763637828806 7.159267642602559 13.180156766696943 1.4122923112063226 0.9927214425152452 -0.0858265088475167
Ni 5.317557084562954 8.06224990593287 1.6226536299472227 0.3555056627800522 -1.8030704240354236 -1.6598046992338318
Ni 7.847228611468386 6.95488977748638 12.781680445746634 0.08560642241691063 -0.008848451529565406 -1.4074198136053697
Ni 3.768060401026967 2.772992147840277 2.289481108976842 -0.4164343799446248 -0.7031427214453052 -0.7671467351010918
Ni 7.114190132367857 6.66453295966593 7.844025419667122 -0.12691762246087177 -0.446109024190922 -0.6653449338712413
Ni 7.050662163445166 2.3636358768894805 2.793079772917606 -1.9465536641644605 -2.494024573834337 0.6669922396666771
Ni 0.46512340597368224 1.1740848218088629 12.959810061923118 2.021860761537892 -0.6076869170381405 -0.471874048970168
Ni 2.0958686291702495 8.000311060142044 8.848180315878167 0.22548574724477297 -0.7216693194945829 -2.7411980904651885
Ni 3.7640413977574245 -0.026488465227073217 2.3225699786539398 -1.5465018393429173 2.803007667572818 -0.3989254245265839
Ni 7.750338295864509 2.571838724427707 12.363664377635972 1.2226608546559976 -0.6532260391205202 -1.9925949226942394
Ni 4.922502921798942 3.1653392578273336 6.193812514196412 -0.11425031140584839 -0.9470419382002592 0.7155673203619032
Ni 5.7897206755743165 8.778011290518357 3.716858299373002 0.03422421129019267 1.641950187550914 0.6780528683562129
Ni 7.872164909915498 4.365413634112568 2.6595740277562068 1.5704881749551856 2.463936753310021 0.8788387988614605
Ni 6.924169809966317 6.521133075191077 3.744443444342821 -1.4747477494280665 -0.7318413749315783 1.272956003366124
Ni 8.384324512774786 4.875291182241793 0.372095953052553 -0.004612301961030766 1.0773009663295383 -0.7877826661838884
Ni 6.860734231923386 7.965026983161858 5.559587928816355 3.64638735429572 -1.2836121975283894 1.1925064425598044
Ni 6.101207287595784 3.7987988467229807 4.462737262942518 0.8763815955702198 0.13211690727362407 -1.4668264376984608
Ni -0.08209299230158226 0.6372790278649085 2.608364534831862 -0.09372982285499341 -0.8373077694972096 -0.6063291174586655
Ni 1.8599577567921233 6.563947008871669 4.669601366633028 0.5067556913387015 -0.28478978432172886 -0.1397055182541594
Ni 0.3621029554977562 7.501104658625051 0.4811911038726718 0.5928028008374565 1.1767885176039152 -0.3580312574153834
Ni 8.522476595279294 -0.18109259169037112 8.835807329260764 0.11294496233086355 0.8698723336967922 -0.16102536277785817
Ni 8.514558696883897 2.7701557478316574 1.2006850800004452 2.1654447889108512 -1.3923462071016988 -1.212308821997712
P 8.15038156613554 0.5032087744281786 6.883289617399094 -0.7044596404845158 0.3099721971246275 -1.5536245664306276
Ni 8.865477736386756 4.804833897337134 6.96124627001384 0.5322247821440834 0.43382892127198835 0.2504277619020913
P 4.252456544518498 6.203641055985237 2.680695506778046 1.2382790208092287 0.6584644047013241 -1.1696732467153725
Ni 2.8435510627126726 2.933096303375663 7.5868304603187795 -0.536195079645741 -0.6997684056564336 -0.7224522204071945
P 6.080077493394766 5.540847362765921 5.702654282215277 0.15942716505280285 1.3621084912630799 0.8799384596835428
P 1.6711754721793617 4.698455038381947 7.843659551783274 -0.3951253340542034 0.6652444037376349 0.9784880725246827
P 4.197567122853329 5.982558919808524 11.739973276457306 1.0054908263657716 3.1608214096607568 -1.0946291731953406
Ni 1.8942624904468572 3.8925571115030086 10.079253680140337 -2.3982707785707795 -1.6271899985226042 -1.3526627724691478
Ni 8.511592949643616 3.4544857551229327 4.809531049664111 -0.0005882684033022127 -0.26698232382666276 0.15190411720288033
Ni 4.854789646023141 0.9144535149612608 10.316327753694637 -1.3318900586981706 0.045852796668056514 1.0199291132782886
Ni 3.2054461387309696 8.166864099084648 10.826200682279874 0.16153984052043147 -0.5785550326691907 0.7154094546278001
Ni 5.6593571442335415 4.3795309605398325 2.049148409093422 -1.9250075625625687 1.5940927017480029 1.5112216759843844
Ni 2.532535644177979 2.053165564545369 11.434787722435443 -0.06951774438516416 0.4005529328276779 0.10313954620466755
Ni 6.501638599561804 3.4277663126964604 0.3166050667601482 -1.430800140202523 -0.13854466517683883 1.019408464888128
Ni 5.844379120040088 7.709741743298148 10.51522776354987 -1.0646925335369084 0.06963652935121556 0.5953024273308586
Ni 7.813533657620066 9.01207434530129 11.428242752513274 1.4010707314588904 -0.7811841870307643 -0.10093713923671004
Ni 7.833416174944329 0.5489441077267687 0.3671770626141526 -1.8822200350833969 -1.1046261365070524 1.1701404161597784
Ni 7.871000784830528 1.0077812382416087 4.566696404756802 2.1665819878390877 0.0015431761174037938 -0.019097640061399367
Ni 9.0348209798981 5.753420298916776 4.743745047640095 -1.505584018082633 -0.877855866122901 0.7034746508634272
Ni 3.967162746908874 2.719913587418395 13.488154699098688 -0.9149455718863468 -0.037605726167915875 -1.1680207987136142
Ni 5.453824393120367 3.465471030726347 11.813683644238301 0.31550598245866307 -0.4403271274018223 -0.5966939083617466
Ni 0.47625465916711707 2.630784105714323 8.004075064583448 0.31855839613174175 -0.6817850817051355 -0.31376380295657574
Ni 3.924524355899825 4.956724503661893 5.15763678687829 1.0713604324753871 1.4233169444516003 -0.31395097926671733
Ni 2.918627891605312 4.526598762941141 12.0896875388881 -2.094599069742883 -3.2809711172701754 -1.7891815818684738
Ni 4.839785367150185 1.714201904883401 8.036569860903693 -0.8038489756181317 -0.8496464935682205 -0.428219802615327
Ni 7.112028185781483 1.473375837702065 10.030276350870984 -0.5818470731569012 0.9916356656502341 -0.5815652802504243
Ni 1.0821189400961715 2.035269451135937 5.478034499252569 0.051581985842349874 -0.5902142141746738 1.2428630406354853
Ni 8.024258776175728 4.905262783635803 11.296007381948568 -0.2457900060197638 1.4456500607311618 1.1773487609827593
Ni 4.811070281720906 7.898357724327341 6.106823729176369 -1.6034409757321224 -0.36977631376645353 1.7701201943616482
Ni 2.840714662704053 6.344638777586341 6.845102618976862 -0.04400931570141453 0.5202457554053362 0.8740100100142497
Ni 1.6221713495548777 2.9336691268301722 0.4901807364732795 1.0256025095139822 -0.4331856312610346 1.1639296593633761
Ni 2.1363912690328037 0.5486789459018587 3.8149764897688843 -0.7010881529091216 0.03873109802161071 1.1887595739228625
P 7.409378993199733 8.578936661900377 2.2826792924089414 0.2235371081588344 0.6349208130534291 -0.04583222784276623
Ni 3.6637418586904187 0.42288599138279 12.60567304807823 0.46755253877667863 -0.22459434577875514 0.9662465361531681
P 4.033517876752208 8.894211299991987 8.663560240398574 0.18100052034820438 0.43598530549335884 0.6264459428131985
Ni 1.0058964642945132 2.692066976258856 3.344399250162994 0.26903972057632375 1.0162699192591464 -1.8516732726447915
P 0.8576469825410796 5.002652009990382 2.950912036719704 -2.485769018693764 0.099493464811648 -0.3641782508533857
P 4.647972661681309 1.8126166700033117 3.86298094307437 1.407412614516518 -0.7690514083229724 1.0704878000624467
P 2.642314487508319 8.56672258759616 5.85569977453703 -1.5418638263502735 -1.166730362036965 0.18533720005034532
Ni 6.9862010466369036 6.61234135168974 1.4789784206506862 0.028988931033182334 -2.0487856109531943 -2.2035757914546177
Ni 1.94363617659038 7.50371008143427 2.2730244454740647 0.9452303389128173 0.009087821233881122 -0.04439626672718806
Ni 1.0855189244713241 0.24888624753156233 7.126218501003758 0.19346394292253777 -0.03199557906999005 -0.3848884868175436
Ni 0.04956863089981532 5.6301893434934405 9.293038706285381 0.9688878304307572 -0.8959119522936634 -0.6595429824774834
Ni 6.257523417061027 5.182666400113958 9.81224218981754 -1.045925023121418 0.1832998579053424 -0.024241903266500185
Ni 5.980119800582871 5.568823321157123 12.818852992309107 0.6476097213750073 0.5147032283205524 -0.02710482663659203
Ni 6.242546855451998 9.083187605452244 8.250046379858597 -0.05960794147061992 -1.051445438719015 -0.6275929119334482
Ni 5.8829892686916185 8.308388448700383 12.888520335191822 -0.6947717237727905 -0.6631461264477095 0.2013024651303501
Ni 1.7733505461054877 4.350289247095924 5.703059878177421 -0.9040875461259203 -0.7521898566809432 -0.3872778129853266
Ni 0.5687785817935566 3.8581784651444666 12.162464758783523 0.46585895312433967 -1.400781996573878 -0.1959049482638626
Ni 3.6815917766599706 7.699708093756256 4.147071811429525 0.7460253797414442 0.03505699160413317 -1.195728549041528
Ni 4.190767154103023 3.3997903543052583 9.9275469316663 -0.8508022044392186 -0.8040037560284412 0.45264116888248496
Ni 2.8212756216026365 4.730329891899003 2.995170963759736 0.9344196214505586 -0.5339813598238738 -0.021051935574292774
Ni 4.480865277460146 4.583271328585671 8.016691963123419 0.02845414157563487 1.4684799141414837 -0.9654901176031179
Ni 5.3802165792159045 1.2189775502840456 0.7260537285907042 0.961537303602957 -0.7339429946556134 0.5995316349208578
Ni 3.927693363075579 4.988220554571935 0.3211876543962237 1.0788863085387872 1.4831318597267038 3.8833872728276804
Ni 7.472167835084348 3.0930526335034334 6.933998351755142 -1.658209843942886 -1.6885318919651953 0.27657973770711075
Ni 3.7564930628810664 1.1182807304340734 5.754985400419903 -0.45772269717045033 0.7021451334187263 0.06813397666376007
Ni 4.815200154046159 6.89551939815287 8.545226001602497 -0.5236051587958724 0.36095254482723643 -0.6081638566745591
Ni 0.13345862581272153 1.6810612963136375 10.568844038891953 1.1916847179894574 0.2142662243798697 -0.32037668028740307
Ni 2.2424929553487116 1.1037846013997943 9.169133297439801 0.4258672432227505 0.514138614066334 0.3776706289128657
Ni 6.1490380460473215 0.8339136133484373 5.821867158277867 -1.8384066374428727 1.6887347520046205 1.7415218138986652
Ni 1.2291405470576 6.094878512332253 11.713320355464262 -1.1269165724741366 0.17820110322619634 -0.6958760125805628
Ni 8.905584617290392 6.912066604717812 2.651717107341452 1.3161662202050108 0.13853129544040013 0.061054186998843234
Ni 0.1745171327778814 7.07691965147284 7.195818398544248 0.5487549185886227 0.7127604470407273 -0.23322682464277253
P 6.051371647053463 3.2469019264790955 8.76612705165488 1.738585871198793 0.356063077945419 0.10460790322007792
Ni 1.4315689646108523 5.336857539344732 0.5234035729260289 0.06448815238105668 -0.5271519956068663 1.4497180601529485
P 7.688445645513562 6.964729406180775 9.967883865860538 -0.6727993332667574 -0.5884900323947154 -0.10164162150290239
Ni 0.380837978095405 7.703348294418784 10.164742037273085 0.7234346389251218 -0.1757513561341231 0.4275682850742572
P 0.9146558509879343 8.436534598926928 11.944809400337093 1.0497168860636825 0.9163779334574992 2.7249276354399394
P 6.187112327596247 1.0142855561766837 12.105779258415827 -0.9183602539948507 0.97300853746735 0.31117573051442543
P 1.8273530153249653 0.713439601777128 1.557110615936975 0.12734005471027102 0.3610332774665008 -0.4313071832913991
Ni 0.09250174881529719 8.03820055993145 4.778388855823547 -0.19964487492226907 1.9191205076541722 0.5044913207845569
