# total energy = -340871.3242346021 ev
CRYSTAL
PRIMVEC
9.17320019395619 0.00000000000000 0.00000000000000

0.00000000000000 9.17320019395619 0.00000000000000

0.00000000000000 0.00000000000000 13.42590572514094

PRIMCOORD
 96 1
Ni 2.886540055510083 4.660728691057067 12.794820809212522 -0.49759176545124634 -0.6244037155721891 0.5174699924324121
Ni 9.447937465392775 7.321617196772309 8.51327276642793 -1.5094337308460262 0.9580830265057693 0.2104771896510827
Ni 6.214650445280676 6.174169113143409 1.0351846258989428 0.6157002742609203 -0.08688966000470842 -1.0187057823941488
Ni 6.903704545625784 2.7438142348158294 4.217009993328045 1.4358215046765144 0.24948056749747355 -0.7307278301524255
Ni 2.679179866758004 7.5435077345172346 9.353828688023766 -0.7783883694531821 0.35215165870615484 -0.6233022549778943
Ni 0.22170799106250255 4.529267560112319 3.338888899913645 -0.4996023681233719 -0.8959836860718634 0.9232381509124423
Ni 1.679016684283865 6.258819403866885 4.264107954713127 -0.6712276179042634 -1.6005202025409015 -0.11816944395459648
Ni 5.100354306891767 4.29107624575105 4.363970163198496 -0.5480067275686885 -1.3772435471323055 0.023202920479024555
Ni 0.7356420318034215 4.3775795228991194 8.01161338476992 -0.06524971313742955 -0.48002496021207647 -0.17478847800022157
Ni 3.8705584057699483 7.793449918234461 12.299875292723618 1.4944938217067423 -0.6277695467206286 -1.4729567189659147
Ni 5.470217735800585 5.487857799634703 8.578455691853037 0.129739408180383 -2.6697036819696276 0.9639371712937013
Ni 8.400302972288598 6.951790460663978 12.690501342787996 -1.754721600418391 0.6374646625212054 -0.15052626301874722
Ni 8.024110035295775 0.14492096748338723 3.606949988511344 0.1485136034640926 1.3784249690349164 -0.6679672019854367
Ni 4.296332489420811 7.171745453183216 7.469972610381278 -0.6070685667278513 -0.1784679837343378 0.2678277025460936
Ni 7.144904669626985 4.764330813232072 2.4961442527687603 -0.29708994184532056 -1.0467698876202165 1.8148411914181068
Ni 0.3576942616273087 2.1857442590091396 4.037773918829228 -0.9065758597654129 -0.8768896455548899 -1.2639448010064491
Ni 7.228784411540235 6.4547773048676325 10.41903994988122 -0.5818499013703785 -0.7385887209577409 0.36630712427093043
Ni 3.435491870395757 4.822387996802605 6.011354901502543 -0.020840590894435077 0.11343681436561755 0.4009288281098579
Ni 7.201521660778404 8.310699153499378 5.6131297724573095 -0.10100501636016798 1.5947385628621178 -0.14782686180971316
Ni 2.3789318535731203 3.6872595209372103 3.9724029428016263 1.5224483979381394 -0.26136446341925307 0.9376748951630626
Ni 2.6032991553509173 2.7373379555298767 8.891426933606782 -0.7833819660130314 -0.49350062610100814 -0.4019585549259529
Ni 2.1912573522823093 2.3932787385635317 11.857880239297472 1.7960914216144295 -0.006890813582562326 -0.14802637941502894
Ni 7.039100979422761 8.606791707029112 0.2739649601960557 -1.0057530788882227 0.581622872961237 0.11637378550675442
Ni 5.536595011881542 0.9343271252003648 4.594654130580128 0.921136274078091 -2.329286538091582 1.6133482075435055
P 0.1518834263757928 2.663080900544339 11.533859877997081 -1.297212047700011 0.9490682246016688 0.2375010265380942
P 4.870198715837149 3.919910222424944 13.00094903718825 0.4815586232477836 0.05609041523566469 0.9632200906220185
P 6.364797384873422 8.831755266814822 9.625743437992611 -0.31973878959308805 1.8746995583366357 0.1338696282986727
P 6.97800746661193 1.6312426580498094 6.257291148726602 3.240622795360116 2.2318586975597112 -2.125051472695469
P 7.437392155508872 7.741960745951097 2.288955602858958 -0.12617045988220207 -0.45642506140494943 -0.7241900290339076
P 0.42881866877127 7.916324933865254 5.3913199588734555 1.7036430365750206 0.8746808108290292 0.706801401243815
P 2.0183792227878756 6.6293524763845895 2.0650249454069565 -0.6877006758586222 0.3258058217227744 -0.1366353639692679
P 6.143704915539089 7.017626517937752 12.454984016262216 -0.6455569526110366 0.44604294683967693 -1.3752954222669993
Ni 1.7301114089619927 6.647625491027108 13.2335933174359 -0.7560956194932528 1.4054359504061213 -0.33232691067074377
Ni 8.241835940185428 6.583431436575127 6.4969162342669 1.4978349702648333 -2.151998176487642 -0.7342003620820582
Ni 7.819877907785211 3.7338226847551956 0.42582820553158063 -0.13096016796136156 0.9919015177171111 -0.9366929908657675
Ni 8.330063778956385 0.4992789362264168 8.362459852506344 -0.9732268241257431 -0.7225020998085234 -0.06037695842616053
Ni 5.018226646201771 0.5480987072743515 1.5178921761054245 0.3206926688659251 -1.8562554926988357 -1.8129912826935617
Ni 6.288127778255865 5.134744634148195 6.562421139016279 0.16005117179004694 -0.30347321966384505 -0.42030389020236003
Ni 2.478617019296139 3.2492392151238167 1.7315387589009363 1.3751946350230768 -1.526798704487035 0.14066736794679643
Ni 3.5590090100350733 1.3291875244409415 6.977053453799268 -0.20799658932107404 -0.29176698697051046 0.9393311998195628
Ni 6.641497793345782 4.236789247430554 11.759428868990828 0.2355588152100588 0.836068754883786 0.722955128185542
Ni -0.10934729741125443 0.7185083286160235 6.087855721237859 -0.45386269999441187 0.42347920260654814 -0.5443596177344044
Ni 8.560659683616848 4.262098106566453 10.232338725123327 -0.3698141089829244 -0.5167997058382647 -1.117783756934933
Ni 2.949844309550256 8.455929257826869 0.9123343779084777 -0.9423946692362352 1.775000148161769 1.5335900163772556
Ni 1.6789524718830127 9.076000893256442 7.6065945837145215 -0.013437870672460729 0.0781319684167364 0.06016329975345768
Ni 7.50813587484778 2.8830909322643063 8.068942216250788 -0.4545797806660945 0.5488014555558419 0.3314699619870872
Ni 1.4794904084357576 2.4639123795009796 5.8418130648923885 2.279442103765629 -0.5851684242206503 3.358921822914041
Ni 2.1815521065535015 -0.04287278540900647 11.272215442884544 0.7498324121923602 -1.0366687946304727 0.7521479476994143
Ni 0.06862929671084621 8.405109729152393 1.0956855499819096 0.4513903271945194 0.051269596808253645 2.5087251132693056
Ni 4.53878016863857 3.393524479838767 7.687204079784369 1.093362390667775 0.7833729671519669 -0.24526524386454532
Ni 1.1351926882662473 8.28575722236835 3.2267015797446974 0.6317920376164603 1.343649513226944 0.0380528410076635
Ni 4.344198247656084 4.807123791800019 10.742174180049851 1.0534064191001276 -0.37057515551866504 -0.050640190754370845
Ni 2.0039039129957597 4.258740715321894 10.517961905354111 -1.4524807104997501 0.6904085617080884 -0.8559732071171967
Ni 1.623216107943281 6.562626618699006 6.890551093971212 0.7933215937242466 -0.8006091285245954 -0.6431018062023247
Ni 0.5467704278967226 6.53165789508799 10.543095556367685 1.260375338487636 0.49847236828398667 -0.26326245177291435
Ni 8.985901721660648 2.4116067924067814 1.7717228793542592 0.55420025797391 -1.128140931799541 0.6150536418158569
P 0.5934436701161687 2.035065273809332 8.034626191915345 0.16686716627061587 0.6703655270142842 -1.1877275331139223
P 1.879561185345486 1.2054685743989468 2.8234541236328083 0.7058670623550037 0.26812980716754464 -0.7194309170823675
P 6.161748600178564 3.4412893328727003 9.84011470359774 -1.0311643198724758 1.4891909214365902 -1.572106427284899
P 7.24908470340966 5.005787786836683 4.674591231081052 0.8615571289628776 -0.39965176116964723 -0.400355214994575
P 2.9973798325811454 0.6506257303950874 9.227960457193246 0.28258686313313913 -0.991673460866705 0.37162802226321157
P 3.7933567535453303 0.8340677171497246 12.7688019443872 0.43761101402223984 -0.03624766947812467 -0.0011526255472044666
P 4.134810781677099 2.4165419740722807 5.283778864566172 -1.1241850324755864 1.9193668193370235 -0.36484313813089425
P 5.128543550865894 8.151681729388903 5.794849032229083 -1.0369140778720594 -0.6125475875645515 -1.3693872843126802
Ni 4.270445718677242 1.828191264663706 3.076156523266668 -2.742821999221857 2.504739903369312 0.7508117453864941
Ni 5.028876731543118 1.5571048546658544 9.27644173715669 0.08071901241762228 -0.9314047458836346 -1.195025352326916
Ni 2.3735013191010466 0.29637692273350663 5.241057436959175 -1.077760679574776 -0.21683064267293625 -0.6108133784822641
Ni 5.776905335470934 0.4000579344295583 7.1263234354603755 -1.4535513178561095 -1.0223570059934908 3.4559971652024997
Ni 4.908405094344222 2.4130561580260173 11.406287266583941 -1.3695479782602606 0.5605416268109057 0.6507536663206276
Ni 8.440646706424038 6.8611408970608805 3.9866214029903335 -1.189290763835984 -1.4913565616293412 -1.035637525152481
Ni 6.866011866325527 7.536664527226412 8.119356289479882 -0.015692985255224588 -0.7435998010190872 -0.5797860768628144
Ni 3.310809734340979 7.215446578563216 5.302655475776702 1.11428268576021 0.5498437807774273 0.3213267029054982
Ni 3.7289884082910354 5.434855049331252 2.7795924672506773 -0.11613570135401936 -0.17537288974878185 1.1855318110141841
Ni 5.016933224984604 3.638577347891102 1.8334016423328579 0.7997416383179775 0.3638604625026508 -1.3015415283133003
Ni 4.965214722698199 7.211401197309526 9.76718501066982 -0.5804306524253487 1.2775317956622645 2.3709553785852777
Ni 9.028813951830179 5.859913623372618 1.4889599029214362 0.33632831852065304 1.247977479043915 -0.5183606225674815
Ni 3.865971805709075 6.504367624725794 0.7950577663119855 1.516683213319588 -1.9207942958121695 -0.4434823852013523
Ni 3.676774553198054 8.709907649597662 3.4331114249641637 -0.049791726711146504 0.03605740784418952 -0.3509339842489698
Ni 8.31023132029317 8.548083226249933 10.501515274855834 1.1727881381952705 0.3549824432867306 1.2304790651488358
Ni 1.6728431206019294 1.1131219687733251 0.2959999042085029 -0.503659826022197 0.22638177669648107 1.104921042039652
Ni 0.2444621139644947 5.1691257882045 12.207316786175184 0.46560801345579816 -4.706553460717184 1.7853964037944285
Ni 8.521655236699182 3.480376338591462 5.977656233535296 -0.8428898915706773 0.5195996371809052 -0.31505938183954774
Ni 8.428794931866742 1.3001176532551268 13.016657225076727 0.1577423211512122 0.6897076789863219 -0.3649359549550167
Ni 0.8498740582795059 1.2479129713622679 10.065696537071657 -1.041546177327432 0.1970390618683058 -1.259402433051405
Ni 6.189203988142951 1.9303073284189876 -0.12546827930521168 -0.4514908573281257 0.6080283595379593 1.4472454302427398
Ni 7.3282310740600884 1.7266714589163379 10.325809965083877 1.0309213506237342 -0.016975194401757862 0.9310062248936354
Ni 5.612383991287412 6.56805715317108 4.351497362992958 0.5663201811658957 0.1812028661669976 0.46449678266949035
Ni 5.855207771710162 0.2647890081142727 11.654666337000423 -0.3457984627946174 -1.6051631006295517 0.2392547760044073
P 0.9791290345949746 4.144635279007489 0.8021009493654626 -2.288655651944097 0.9710845809717599 -1.499538068998869
P 8.048987754025951 5.523624106909392 8.355880833379029 -1.2750573659798428 -0.20321767987519193 0.7404435147782925
P 1.2375289088244508 4.547788251158125 5.706345080134461 0.09741087125100643 1.608436886284817 -0.8811944435778308
P 6.680016060656996 1.7819950288505906 2.186945948225089 0.3748344450156512 0.595530998401897 -0.06544588830863567
P 5.106692988175894 7.446308506027209 2.479321521065489 -0.5897300754494038 0.3207057814920477 -1.1982680276339297
P 0.43598293806635396 8.702926844305013 12.58718909373684 0.7688521478279726 0.25263351130415845 -2.807948556517861
P 2.851764453848542 4.920843953709311 8.324504819682607 1.6658105391082794 0.4252249816530612 -0.21112999274373315
P 2.7260182265796415 6.206633068374269 11.030200738712532 0.03637442486397607 1.227420223717854 1.3025116055360535
