# total energy = -340870.8853186539 ev
CRYSTAL
PRIMVEC
9.27378872659352 0.00000000000000 0.00000000000000
0.00000000000000 9.27378872659352 0.00000000000000
0.00000000000000 0.00000000000000 13.57312721029950
PRIMCOORD
 96 1
Ni 0.4753373172666914 3.5427449650825196 5.276403730827142 -1.3863789337746704 -0.48702170324488386 -0.8618785168580382
Ni 7.253345506927314 3.782528047555744 5.494225554110822 -0.8758295797214916 0.10785340674056909 -0.7043989624499094
Ni 1.7582639821128914 2.482825098822088 11.103577776787514 0.305704422987209 -0.27909221971631937 -0.2994327310458843
Ni 6.030494445742219 6.554370773438399 8.640964900592683 0.9334063496946956 0.9034051753469151 0.814656607756597
Ni 8.334057207613217 2.3212293294805066 3.7082598375588933 -0.918380822820141 -0.3238240154060552 -1.9515963687946905
Ni 1.2597792880727945 7.800415580340756 9.846625139532241 -1.3995571230278412 -0.49547780443203693 0.16928914544854717
Ni 5.583256708452859 5.959939460769436 3.575487931097689 1.0732525072917776 -1.36805442443387 0.13379815163078893
Ni 2.908111778089553 4.9667074095641155 11.120666587356565 -0.31895820267332164 -0.6881812150394664 -0.086250997979445
Ni 4.66328758854157 3.28744683399475 6.820564678953684 1.7205621809278626 0.17373175460093307 -0.11251327411008365
Ni 4.186837416622311 4.224767212697322 2.273431294773853 0.10352161213443462 -0.4122244556283352 1.1157255888543236
Ni 3.7726792838805205 1.0834752897397786 7.392956832607423 0.12826410918643716 0.34388427649104 -1.0505437528403518
Ni 7.975013201539835 5.645511652475243 10.998494621461067 -0.338169742604766 -0.08850585545189273 0.522114690293275
Ni 3.705583422119468 0.528333310579713 9.647887846161217 -1.4966394072948355 -0.6474803948859946 0.653235552202217
Ni 5.757900698595795 0.21517972086270953 10.955074742433391 -0.1497932415074646 -0.05868877209046021 1.1846730625583146
Ni 7.983776931928804 4.942419356771828 3.519566057427292 0.16872221720148362 1.058917321616028 -0.052023958475774915
Ni 5.3244159900544155 2.7887859379679965 13.762065127759636 -1.0914266070976428 0.05469070667466065 -0.9058793479190206
Ni 3.0065808672642396 3.1734997913606025 5.0692504741460755 -0.21281406531437544 1.2830699518716742 0.8753014751321636
Ni 1.1045267902508482 1.9554896479141772 6.852243941396773 0.48453621781886874 -0.9676084494977012 0.9073831861580566
Ni 6.628013930072058 4.382811120939459 9.4240797922256 0.0624757499367182 -1.750748474703256 1.2132069083319492
Ni 1.8985671324353464 0.025680975865750775 -0.06091302678716265 -0.7810726011535645 1.8681427310547245 -1.2794688647839771
Ni 2.5775939462769877 3.871732621747805 7.648144605608813 -0.7619842170635458 1.3425405964334813 0.42170642697684146
Ni 3.0042067773387626 6.2785590215883005 9.107500464936443 1.1083735193646267 0.2311375462139116 -0.06059138842981178
Ni 2.0696499876900667 7.415608989060435 4.3948021298208735 -1.0481587975479434 2.9603620092569916 -1.5988309877639366
Ni 7.869978269914999 8.523019927619188 9.80616359912264 -0.570305905286521 -0.7538435902342824 0.6429154012231314
P 3.1422563969897688 3.1453074734955577 12.730263389054079 -0.4444812587795119 -0.12751951771092876 0.9052674253666345
P 6.224733951559116 1.7141949378712158 7.186265410607172 -1.8731851785746385 -1.056901833847896 -1.2066369684239155
P 1.95145554979862 4.213814868158303 3.3467666238709866 -0.0073608112404453885 0.8967190215759913 1.197008701305532
P -0.006203237309187019 4.168067268149004 12.033147122834952 0.14485003856957632 -0.4425277345975669 0.20998996560201902
P 6.747478877025185 0.47780043556437424 3.659776469862033 0.5703223603467532 -0.0654983388131259 -0.07725470801810566
P 3.1115416085789036 0.9846630703805503 5.326977410513075 -2.2994992795268203 -0.8117108948647117 -0.23275477010236045
P 0.12681627931221368 7.154041776763201 2.92017697728114 -0.37144778793160543 0.2225212652998103 -0.023359500661546868
P 8.63208895735958 6.6601661557424885 9.219832013566613 0.4812400635661003 -0.6998663646868786 -0.9988401538184734
Ni 0.87376803163107 5.217739597817044 9.758385966751282 0.09856555368073992 -1.1294444811023128 -1.0508355730491579
Ni 5.497335055485872 7.607882451657796 12.743809612312457 1.4049695522926642 0.3354004073897449 0.4365090392073127
Ni 4.484470393451505 7.846905083451765 4.5972452291849475 0.3087385818278425 1.4045607468900196 -0.07968337206425631
Ni 8.81897434868076 3.0501398531234885 10.080042693392778 -0.37321336447246045 0.8290858958080496 0.4807165869624624
Ni 5.9682024065647505 9.314129752551926 8.539655249917319 0.920302465322886 -1.0301659605149485 -0.4990277265668244
Ni 4.567062756249561 8.048804738793836 7.235847722273443 -0.9963479835242389 -0.17007487457463613 -0.06425778153780545
Ni 7.1617112000771455 7.534981198125849 3.6064206535446814 1.0085262707579856 0.7408574623872596 0.238554407503273
Ni 1.7375370642088204 8.816757913164395 7.808932627948406 0.6833166878583136 0.004814647779823966 -0.7626318779498737
Ni 3.841657724762167 1.0585102503671795 12.488878723260036 -0.6687485602361515 0.8815739384044367 -2.227874258990666
Ni 1.0615056841403405 6.2578135561066865 7.544365344983626 -0.19481480052347738 -0.11062685572064818 -0.18415757791994736
Ni 2.1835228400140423 2.9642738428891295 1.7218328303033377 -0.5816416420143145 -0.7527642411271745 -1.5116752185820352
Ni 7.906591187984473 2.7370103752572907 7.794721474035119 0.44119127517433043 -0.5547468745059995 1.7996089478493846
Ni 3.0399572330524953 4.993017148308567 0.28335226950012127 -0.2990128698996463 -0.08915788721359483 -0.22470953120038076
Ni 4.959130724137884 6.3214039257121515 1.436470930776455 0.018780108820980558 -0.605506364447054 -0.7407060244110598
Ni 4.470151663588469 3.2562498085677722 11.101135060825127 0.8465745395111163 -0.7172652768896163 1.2818743889016764
Ni 2.954202508283393 8.328548577083007 11.314409945474193 0.510213825090631 -1.1436092026384692 1.5060727847935933
Ni 9.040070746779621 8.953305179034436 4.407248481730965 -0.15187609217842232 0.010362831291562798 0.31122586702607047
Ni 6.557755706339958 8.774858935495228 5.919756134022975 0.12841400450074011 0.04597440984758534 -0.6106822522210386
Ni 5.127449990338728 1.2709820249086414 5.070730570833991 2.022983819398742 0.8791077362521312 0.5416766715856026
Ni 7.961835147695681 1.6030949483898873 5.734469543885985 0.49955763092836547 -1.8402897133981984 0.957060755888842
Ni 2.4244836936612337 6.302105171278876 2.3820700207152523 -0.507808558083248 -1.1314162601167028 0.0059022244170479
Ni 7.310156736940887 6.656085688683074 1.2652230020816042 1.176623967001593 -0.7992744688735718 -0.29666133894833424
Ni 7.859007377798437 -0.012386999661954105 12.378936102617377 0.09130707234611371 -0.3739294167028786 0.021423459981098587
Ni 9.192541107970147 2.02378182842674 12.847874505631804 0.36630198206460785 0.5647986023150467 -0.3778390361699299
P 7.942007787302435 7.060209581974213 12.706089403863679 -0.823288315289666 -0.6440842247202521 -0.009398924716396717
P 3.843595946615389 6.370026400240582 12.30276398378576 -0.8750358801756026 0.2785432891913848 0.7816253883332409
P 6.303913560089298 6.634542677367121 6.462871863904294 -0.025335650551311206 0.5458385162727761 -1.1435492959348112
P 0.46225942034126827 1.5805781892529371 1.3597015799479586 0.010150201060124455 -0.011690806074366962 0.32210214761894207
P 9.18240485684301 9.3006827588334 6.717870451614749 1.066605434288905 1.697671392372618 -1.655086467822556
P 0.23469919146874454 4.018916923338637 7.386047859972733 1.298030172725932 1.5494917752091766 0.3333342688893356
P 5.1879614620720895 3.9550761614363443 4.640095697582062 0.1246823053724498 -0.2809724674581677 -0.2591533147005472
P 0.8100589575293313 9.431164966846946 11.438006365324977 0.7388023796304437 -0.5104028011729854 2.18369705025282
Ni 6.43934797130677 4.8159341517187535 12.870962530157072 0.6701706373946587 1.0300096374427423 1.134983151532355
Ni 5.78191053772494 2.264139885803791 2.4633872375572414 0.40235990412942957 -0.2191945149194225 1.5968288697322435
Ni 8.500540263637323 9.150159893284867 1.7666780906651791 -0.3467297163596351 -1.704970754247509 1.3948872283559977
Ni 4.045356495125888 0.736131095580391 1.1263582163975923 -0.554667941638948 0.03209765186549311 1.6098718189591308
Ni 3.628471868485308 1.8865668497651598 3.316810431381622 -0.531788208827297 -0.8765615727915098 -1.1594618534000096
Ni 3.1925667010745933 7.442085656002773 0.4937893747851387 -0.7304622351958645 1.112789131933819 -1.0408157269193108
Ni 4.40188730444222 5.68792996231561 7.133546703578416 -0.24592550315636358 -0.9961649209791553 -0.19904657921663785
Ni 1.352517175786758 5.5193417562403955 5.2095156019345685 0.7733693189720359 -0.506028840475006 0.4034505660904471
Ni 0.30782672544671336 0.7855668813840735 9.572773866628415 1.0386958523628305 1.6292821051649424 -2.063190216414298
Ni 7.353150021685082 1.562559217670114 0.8980087881006229 -0.46627932849120984 0.3848805163977436 -1.5178597501261923
Ni 5.506460463636926 5.873238809545652 11.00137227811683 -0.8339432239003509 -0.3647621483813137 -1.0234188715991017
Ni 0.5432279427254526 5.223081300149367 0.6143523383287999 0.27468894844230113 -0.28716342676022805 -0.3687370738686617
Ni 7.420180966924733 4.985653760024078 7.451334405544486 1.0908460520038246 1.976732501740686 -0.7851179748675318
Ni 8.540241353367671 6.5647574168623635 5.533139299174479 -0.5146942294594877 -0.9504334803803116 -2.304717590502966
Ni 8.138918144285494 7.693989580400211 7.304826163155089 -0.542589413207859 -0.7214410055338607 3.6599509519127675
Ni 6.783665200811174 2.8549265994855952 11.719404647530965 0.8892327405012751 -1.0692552132069262 -0.6330652479019291
Ni 5.364951720774188 2.0410588969078516 9.414565812325025 1.2866090753731843 2.0413558941480265 -1.4727600295740766
Ni 0.9780415851977734 6.183892185809887 11.812665576931636 0.1150182999201245 0.6008251569213008 1.3321713373840154
Ni 8.552862979885541 3.564167417144445 1.746494616783112 -0.0929849742691689 -0.33717215457818706 -1.277479088047458
Ni 1.5837127298576692 9.026549562750924 2.3203399731373295 -0.09344108796998102 0.01035177554796927 0.36619502417309835
Ni 1.2204491498933026 1.5476191439593945 4.195494498440409 1.268615467009241 -0.3858955879258193 -0.19299497370591923
Ni 0.4054352070234142 7.605814396761775 0.21861195008700332 -0.2684637934681957 -0.2605651074464093 0.6977711727207466
Ni 5.8378964005378595 8.515637991757156 1.7435770828356307 0.1232507151322458 1.078386228973917 0.07499650811154826
Ni 3.748020279537378 5.60743347577989 4.777753963346915 -1.5986510105426468 -0.8722927702128268 0.15747081265738042
P 7.409738680768141 1.3781684755284402 10.068898381426191 0.1228262260003175 0.9035180467756956 0.04343133171075746
P 4.521027668788349 4.2783233428521354 9.272889213885525 -0.9530958577038231 1.433427550523041 -1.5066397130406568
P 2.429871764937415 2.149960998450359 8.889516350349263 -1.098342874601502 -1.0999953226032606 0.34773527480601407
P 4.837718281542763 7.774291317371732 9.949509479540989 -0.8905586584015501 0.2803834277239171 -0.12322911786569102
P 6.331039392245632 4.339697276941236 1.4674861899435128 0.6541038137397832 0.41472665322489866 0.25277826441213885
P 5.738017695469922 0.4343147126364196 13.204942267318001 1.086825875100838 1.1883548822852759 1.5488315159173585
P 2.8208732471170275 7.1902095529716465 6.290995172330743 -0.32607090245870296 -0.838264219873208 1.6684338356637394
P 3.604536219666334 8.329179194719462 2.5433866490148147 1.0847733634471834 -0.4218187841849897 0.4112754614515046
