# total energy = -381161.6753981608 ev
CRYSTAL
PRIMVEC
9.26786508497203 0.00000000000000 0.00000000000000
0.00000000000000 9.26786508497203 0.00000000000000
0.00000000000000 0.00000000000000 13.56445736202064
PRIMCOORD
 96 1
Ni 8.586334161328194 4.329992942884215 8.550952232500272 -0.06648949908180161 -1.249468461767145 -0.08803817178685483
Ni 6.737478472350303 6.866255458772487 11.011219180848906 1.3344094826859147 1.4755959563609748 -0.6526778799265339
Ni 4.830744965437435 1.9357975320600416 5.2156292109522395 -1.3569742553603081 1.235062313644144 1.2064217670893158
Ni 4.849855303400914 6.08615144451452 9.191750965512334 -1.314223237546027 0.19316878027962214 0.2520925511990239
Ni 5.36621441088648 8.664415925315735 1.5641987712545713 -0.3330743303597296 1.0534686397966309 1.2559831229572112
Ni 5.1707922060863245 6.4403321795350434 1.1546286400949932 -1.7342638467846714 -1.4968121854272738 -0.0061881310885828905
Ni 3.276255209726288 6.315327214233682 5.219942475398506 -1.0051190448486496 0.30121424842633926 0.5164052986133236
Ni 6.511926437909377 0.6802585225111428 4.767893084270158 1.4823530725791503 -1.7260149765123178 -0.3008429811298496
Ni 1.6215612958865586 5.517521577516819 12.566059261863165 0.325557196047078 -0.673134605118989 0.7995377498372875
Ni 0.11623663807185183 6.34103627219231 8.08790281221147 0.48095878488025556 1.5587935122260768 -0.35119340855794356
Ni 8.936233142643998 8.700597670907113 12.856433525604755 -0.6676072475428566 3.1316730702315745 -0.1934228052719572
Ni 8.82612163665753 8.767947247037377 4.945628495195675 -0.0694030731841708 -0.6259376357182124 0.2050030539103889
Ni 5.441339725887431 2.0792084775725903 3.076907137243625 1.5547921043761674 -3.4582378816075603 -0.3784807835189869
Ni 3.6253756903685077 0.31457173289233764 2.6852879341157943 -0.17594701708469698 0.8956026485833608 -1.2384605406924156
Ni 2.531285672296425 6.591611542569898 7.474870603223939 -0.15997429580552447 0.23407863112010655 0.9644089687237971
Ni 2.7452806788806794 3.438035063989377 6.381588742993959 -0.33886368334799705 -0.15892477149508757 -0.4813997290724161
Ni 8.457195728164702 3.8266366502205504 5.9695144346676825 4.666809605160343 2.6349675640400236 -1.616976291214396
Ni 1.6237485120647257 0.7554144214671279 9.681889428882345 0.3103982289184525 0.11878882270615027 -0.6382478205441331
Ni 6.7725202705267895 3.28131546410459 12.973331889249152 -1.4521760347751378 -0.99794978079372 0.8674428983196932
Ni 1.1947297658632656 2.6684593445551323 8.167308954130622 -0.865868868964354 -0.5904340434949638 0.05677612844877965
Ni 1.3718850084296588 0.3501371654504613 0.4448603081223985 0.6627116100134522 0.1443921250965513 0.8407414777691069
Ni 4.53771360475398 8.852312623604568 4.965975166371728 0.8849012030054566 0.1626562135130618 -0.8788452266193638
Ni 8.324646720621697 1.1012633457072585 1.7805385477247424 1.489336445875519 0.703746159357259 0.5998926178047024
Ni 1.9332210655450819 4.621698998849542 8.923161745619899 -0.8059207705454959 2.815980168573086 -1.5638791542791002
P 2.7098681660977237 4.501309430398721 4.178571781512386 0.19401030234431105 -1.5621025219946516 1.1252571824938427
Ni 7.348128839991271 0.8767446782318644 11.106807942126949 0.1584725144490174 -0.17902539889970456 0.8274948971718459
P 7.182132107079596 5.550357623784815 6.001377355093696 -1.3779068917479174 0.5699896595976829 0.5771555812185029
Ni 3.0590627896612377 5.535881218402198 10.76795440251089 -0.4869929068894775 1.414346365521874 -0.7068463955491375
P 5.88388028735985 7.6901037965938 13.203344547192417 -0.47217692492256746 1.0727084618628493 -2.515439034954371
P 4.8695773204650665 2.219069830728198 12.841350075054045 0.12741024582657412 -1.72669888995322 1.2251833639675351
P 3.730510352763128 8.79583425330901 9.685348196160701 -0.32984631034073514 0.6369766671411933 -0.28783731289880105
Ni 5.227428130089633 5.517326952348424 11.813557730416369 2.0167717770507587 -1.1364705347111588 -0.06177589565621618
Ni 2.8846415673175536 8.90235909547789 6.239501248626504 -1.8616537808962712 -1.6140969127840716 1.1102769070349268
Ni 0.9523380204234828 0.7858871621188831 3.5856832774538674 -1.6396953300784662 1.3732897046908799 -1.7905398956685805
Ni 8.831413587664876 2.0227764466028404 13.03268978525046 -1.2485999431192625 -1.6039379699731988 -0.7325198890558416
Ni 6.6723346481285315 3.36459650044786 4.712414716625549 -2.580558136051207 2.1094219936883287 -1.5033839251075207
Ni 8.449994596934042 4.64954893366053 2.693236982065007 -0.3091268184051967 0.18295198764762038 -0.06291875101140777
Ni 8.517900244974008 0.6330424566582133 9.039463258747883 -0.6835401167230293 2.2425182341560865 -1.9345173018252166
Ni 4.890068570337643 1.198066197321487 10.910069700473828 -0.794488103228522 -0.5199223106276465 -0.06640053891242113
Ni 1.0593911309065804 8.800329167912448 7.9774882470342146 -0.4726062991505022 -1.3904677591320633 -2.6491669954688564
Ni 3.8930594398346408 3.6456908508030113 11.609194816094698 -0.32794729354580937 -1.6900483286097217 0.5068446515080819
Ni 6.2652714744952 1.961423179232214 9.070633869646317 -0.9070000917870251 0.39139312070528076 -1.3286576678038022
Ni 4.260085435969316 7.404384781522947 3.3719069924874296 1.2422724582393379 -1.545261796288229 -2.183965216312542
Ni 6.169024694790675 8.877901199316094 9.251868826456901 -0.4073337031949372 -1.2791942709663517 0.6666934774793356
Ni 6.797932756800242 3.450555949822869 7.135596302529536 -3.0549181846680225 -0.2495319895606993 2.694149987937451
Ni 8.796381057353553 6.723483995956098 12.298568283992397 -0.5787679200109452 -1.6176527484561303 -0.8110809745901968
Ni 1.4359074209668623 5.934028705749949 3.3448188761927367 -0.41922325554367157 0.2933461585321722 -0.6290057331205747
Ni 3.2402310178426585 2.0089487917815454 0.7759130856318335 0.4089951500577601 -0.5610316790734466 -0.3502927511205451
Ni 7.510900355826665 7.834460064352845 1.0154484750287724 2.070425300710157 2.4421060305881745 -0.2871372015079829
Ni 2.7491268429227955 1.358214907316113 4.695038396233829 -0.30879488898707463 0.02556653561519468 1.0287767934769056
Ni 0.5532526251213654 6.848989425976191 0.6820805848019382 -0.18032740554057974 -0.45815181428806906 1.1522511945841833
Ni 2.2749365219230824 8.2985669480566 3.871241958457422 -1.5976351676836225 -1.8540042347708137 1.0907959154921796
Ni 5.244666359290443 5.523675439984205 4.479824665380808 2.020076930164592 1.0425779610260562 -2.7786657483933435
Ni 1.5121170761917357 2.908821427524497 12.969697032532723 1.988563432937343 -0.09251009151527939 0.4301859252027624
Ni 6.755865916831168 0.7808167130889028 0.21546025606632319 -1.1473660985777403 0.5691915891764198 -1.9408684408542252
Ni 3.0007864535243045 2.846986231165461 9.610594522552734 1.7329147889559444 -1.1403642133386103 0.34515542989397974
P 1.2551933181783663 7.510399891107932 5.736544400951311 -0.5394490678066645 -0.06111100837870765 0.5538888973810783
Ni 0.979835776358324 5.3388464050639035 5.9849639658922795 0.5472222839941802 0.07209527530435327 -0.3766337030079191
P 7.122530466224535 2.981657579830502 2.538669380470772 1.9363666963291297 1.078294440591059 -1.0403187326782342
Ni -0.05689357065480382 5.727132883879577 10.408727314909806 0.13047294391229788 -1.2183899951947856 -0.8194609711237757
P 1.2671581321021546 2.210385841071661 1.8211503328634258 -0.3652902529706419 0.23005048379731996 -0.05139506664252439
P 5.502350082247074 4.2244782980179645 9.962131135642617 -0.8600630609158543 -0.613356199508776 -0.1200250091060965
P 4.821782939826045 2.536929802179916 7.181335997462202 -0.560656555122215 -0.5928881614624112 2.175789622480285
Ni 0.7337127884044302 3.286968861853243 3.9585424679213324 1.6956433061989962 0.5714310200298998 -0.2970652592549723
Ni 2.3352703241259194 0.9250284021514247 11.687841919857105 0.7341124303539421 0.6164374095372609 2.068923776463966
Ni 6.842001455644249 6.651954612637896 8.435682232764787 1.7638204773958657 -0.01653604998181023 -1.0274375058401917
Ni 4.427351866408148 7.573476981398639 11.35010052406045 -0.4753054432492201 1.5248135557362064 -0.12892925357426185
Ni 9.125825860257429 4.131336253142617 0.5901869213638761 -0.9006247843883005 0.16635397407962316 -0.24137953565689393
Ni 0.0055653530296164875 7.774181869340978 2.728978504061203 0.0346579563935016 1.3110494678037357 -0.1279010694200636
Ni 5.485788407203069 0.29019076001138494 7.095296844446803 -0.6542632221357829 1.0643850295988186 -0.2587391099812641
Ni 4.792135039173684 7.298490154185066 6.975752505298732 0.4727587655679664 -0.4583184217729204 0.1704595116075645
Ni 3.4798146001384382 2.6544648681609258 3.0362684752959725 -3.3336486501695495 2.83445585877977 -0.3562646524332639
Ni 7.59103958588011 8.634443649382712 6.963734864543521 0.8244728225160705 0.2168645812346652 1.4362439369259137
Ni 8.262097898645207 1.978513122590437 4.793408443846905 2.7979793611202908 -2.5610295790999764 -0.745255077234323
Ni 1.9843426097771626 7.806396968643138 12.16607024970778 -0.33393487858781196 0.19972817866469472 0.39023689561365055
Ni 2.699312067678518 7.313420684960607 1.0995404495736936 1.136816862306984 -0.0417742557233087 0.5916360342228649
Ni 7.1479244167676645 5.865974771867395 13.845648381506745 0.5224234797829455 -3.1763770980071686 -1.0217078024452664
Ni 5.158947874409638 3.47880440283581 1.3105382285646456 0.4222954667110921 0.9792036105344686 -1.3533402581521465
Ni 3.1815654313689326 1.1533209443206738 7.79046087449755 0.25997349660899743 0.9506638512235628 0.9482650119740831
Ni 2.0016271783037816 4.434256425953633 1.1548519956453909 0.9357769068094013 -0.003853055197503042 0.6942287067851269
Ni 6.570749578090852 7.5701498178055795 5.190589292858288 -0.7082221928507416 -0.49252257845845493 0.09550979757355163
Ni 3.798202839904375 9.050654205930668 13.30326047471447 0.5753316406358866 0.5453147825588223 -0.10586928643100478
Ni 4.881996259781779 4.467463186828097 6.212833893410155 -0.7295541215592984 0.21104257523624945 2.3254093145243626
Ni 3.83334658459764 5.099235019172638 2.4262881743061984 -0.35357476430592655 0.16827895901647794 0.9595994631502958
Ni 7.357758151894305 3.3385259957479247 10.493803536734902 1.4995617231479528 0.7650831677038435 1.1915695325678317
Ni 8.339308483307548 6.320498682993926 4.261857451788238 2.289525199033244 -1.05771378822623 2.71725829182014
Ni 0.9577504536779309 1.4089379333462395 6.2044233057758875 -0.1457452966903361 -0.446458951331173 -0.38008000968530675
Ni 8.688030445747813 8.072866627773085 10.130574584956989 -0.3907099785953271 -1.2839245865624855 0.8724490932850328
P 7.132456349812744 8.975899605536187 2.913373802891937 0.08745993068588163 -0.5794253510892861 0.826923598049408
Ni 1.6742213057354858 7.453272770251052 9.806532947442399 1.292313324846813 -0.4725551341975926 -0.1416760117169689
P 8.509457219811676 2.200784332764113 7.317238118620721 0.13404754863743368 -1.5546756334029612 0.8366413395578043
Ni 6.783372940631171 6.751315395036761 2.8829492551390223 -1.55243363144632 0.06354815706529054 -0.46728128739316294
P 0.04082679961043555 1.864611059752824 10.67530911520821 0.23970214795447106 0.37069111227123897 1.1861329349332927
P 8.160855739618512 4.564432860015237 12.31080279279239 1.68852160755255 1.792808122877467 -1.9441445405023354
P 3.894950084327633 5.21925387301699 -0.28666155695779966 -2.8161169512612663 -0.34817776166007136 2.660450795912792
Ni 1.2613101091851056 3.7599821639774165 10.961885407806522 -0.9213931272839034 -0.5816922927465917 -1.0319670182794292
