# total energy = -340887.1099004296 ev
CRYSTAL
PRIMVEC
9.11400971213681 0.00000000000000 0.00000000000000

0.00000000000000 9.11400971213681 0.00000000000000

0.00000000000000 0.00000000000000 13.33927447193002

PRIMCOORD
 96 1
Ni -0.10942462127051204 7.8151355795144415 11.662687616488407 1.1793367379470656 -0.05017147864806844 -0.15012028582958017
Ni 5.023359521001387 5.698826109615725 11.372811986245761 -0.5904996066255765 -1.8398703664725926 0.13996237145997187
Ni 1.937811593169779 3.035448217421653 8.390523963635674 -0.738717019005489 -1.7156567732064454 0.4706206361790411
Ni 2.074038693678711 2.8514363649244734 13.008340136592919 1.0630984495769111 -0.7689382797838757 -0.3471477777336602
Ni 2.889460012701503 6.923384430642028 8.341901634171226 -0.06316840512836863 -0.13649986683266815 0.6749732009896247
Ni 8.718625572667012 5.168235816558354 6.610050251259088 -1.4044833566848651 0.1167694782832763 -0.5669642425077978
Ni 4.810893730738175 5.799982501436735 7.341789468940952 0.07077604227229746 -1.2779115475991862 -1.815629491647357
Ni 2.8139231016813633 6.624745680232167 12.776610064377092 2.095557062780778 1.77115146383964 0.0016236516463520425
Ni 1.8119106654631898 6.11184567968084 10.681917202291787 -0.31111685225203195 1.9334747194933153 -1.3316200928662358
Ni 5.195842151437699 0.691077064144658 1.990259983836719 1.1418503109658333 0.4597682668455695 -1.2050382564782278
Ni 2.7076993205592914 1.4253217230474953 6.10758670302547 -0.9459695310716871 0.2928622769172182 0.7193980069619029
Ni 3.354092218759265 4.705991480998574 0.8041409094222093 0.9201502560157377 -0.866892682243178 -0.4663225230243195
Ni 0.6259483520126695 1.1475175984330062 7.451878501506513 -0.7562259744235299 0.5857011567956687 -1.5800058846376337
Ni 8.456816534785192 5.443570044589053 2.069095254907316 -2.090913907581812 -1.2587591430404514 0.8520972691015584
Ni 5.529032111992026 8.371235985258272 3.894934861141751 0.4848390937712682 -0.8899775890870995 0.37915184144408254
Ni 1.4752026972286278 8.349890974928979 0.4916014716706598 -0.9318598311431822 0.5533916460296856 -0.35489219756576945
Ni 6.581053118524813 1.6965364187686975 3.89716232507193 0.09639785660545978 0.9266716020740233 0.47458836257753756
Ni 4.013846254936499 3.14344923040291 7.449130627631926 1.8201970564133811 0.43959539144212034 -1.3953554262416679
Ni 3.7444999311698246 0.586693401547558 4.021738075792234 -0.8614049196557295 1.0967822149826014 -0.6122732508572424
Ni 7.101845851332829 6.296832731198188 12.444688773949936 -0.06161880125306163 -0.25043958897663327 1.3483227503328972
Ni 5.938077973900196 4.131672170195713 0.8282538444470626 -0.4243929726700691 0.25825060038061975 -0.22269712875604228
Ni 0.8519365982218978 5.510749408866255 12.841492698251654 -1.9018244395778858 -0.6201369698760353 0.21434927101197923
Ni 4.061840629144034 7.639654439941351 1.5496504841094207 -1.2595263602237794 1.0464243313553399 0.5020091777926515
Ni 6.643502311853722 1.9036613994448195 13.157019708328543 -0.8009207462277431 1.03602807572268 -0.9459859861319192
P 5.105093958504839 6.374757512716311 9.312760562999314 -0.3116087042867859 0.22744081408861472 1.238945193638318
P 2.7510728919329455 4.618059517011809 11.905142143723225 0.7567227115542903 -0.43287915576420927 -0.8889465767194238
P 0.45555465256161604 1.9274307363102303 0.799980364069809 0.34455379175423884 -2.0567444607889547 -0.3214092353169755
P 6.743619706587824 4.132073186615221 7.173128342702365 1.0285317673456351 0.5442817133086175 1.2885068066165293
P 4.217070439531947 2.3116318082279426 0.5053399296426385 0.6495015390810814 0.2662320759241995 1.373525731961086
P 2.186305063122013 8.622226693822899 11.61170475855458 -1.894428404224131 -1.1212357200392755 -1.4760651826879094
P 2.6713891065747064 4.688601950807161 2.8780155509293035 0.949556734202313 -0.06920844067486145 0.4082760125035485
P 7.205672647947384 0.11763360965804101 11.494545988793275 1.038190887701954 1.888262127512419 0.5012432461609045
Ni 8.741210088292966 3.427058979090737 12.889673909654643 -1.797596031184414 1.2619244281423108 -0.8974790396704673
Ni 1.674972672210583 6.184037749201899 1.712349225310679 0.5231331042554603 1.148563461319951 0.27447554687991443
Ni 4.613219977949104 2.9868523185848543 2.8795621983472715 0.11533634538117556 0.43377235700244005 -0.413769431517952
Ni 1.244053187420135 3.7339550221386584 5.939085071953734 0.9470905320500077 -0.31226125026912027 0.42480280651397806
Ni 0.8329584961686596 3.904806244868333 1.5597077936305024 1.9704505253867162 -0.6257933968308641 1.0134566181800673
Ni 7.752823096328547 2.748921985682855 1.7896105069347052 -0.8916202668968451 0.038765293693655827 -0.549609296169118
Ni 1.5041579055190457 8.960228851411328 4.750862484138711 1.0567671080422445 -1.6306285918905077 0.021020825226041217
Ni 2.826755627105634 1.0325443681580226 1.7813668853109461 -1.2910349723550216 0.5020207477568773 0.14148549297271762
Ni 1.2576786316738884 9.038053378824575 9.26347199943791 0.5886898071103475 -1.4961221013387846 1.7963516172543517
Ni 2.6623388951071636 1.7684824100323298 10.70762235478228 -0.5626147072898504 -0.6523271814553346 -0.1561533793975375
Ni 6.6837680059761855 7.3154964628354975 6.31185079610878 0.9578313155062794 0.6952162675093768 -1.323758687840288
Ni 6.240818028600483 1.9301467111514468 8.156098878800561 -1.068640719551379 0.9866369268840622 -0.6232701161883782
Ni 0.9206334450865581 3.919944614704778 10.86949445531878 0.07453139554967164 -1.2602465262192553 -0.30280807527602044
Ni 3.594720298483413 4.949317307544869 5.216403356947041 -0.5123689237604209 -1.4139321608025908 0.23898481017247228
Ni 6.066230061961753 4.1712543136031055 9.18503774478682 -1.1459057119821299 -0.5243698048760389 1.331240855149946
Ni 8.329603189705665 8.889695531625511 4.735709531887012 -1.6032936515209808 -0.2487858554232941 1.2205561496081687
Ni -0.044439910489165325 1.3523640767255574 11.84879751398038 0.9202477008255506 -1.2153285826606424 0.21715357322999376
Ni 6.5013237631189025 7.203166295325456 1.3941809752707561 0.7012858707422245 0.18908149758412598 0.871041671414545
Ni 6.838432747772973 6.3025107591380465 3.699260722044502 0.4922189311751071 -0.3291256301246267 1.1769129589969214
Ni 7.827457720404793 9.143538925174369 0.5024033957706924 1.9365050216792068 -0.22672039098282243 0.9778758928619804
Ni 5.213614470029551 1.093398609818432 6.028231022010465 1.3601302844907868 0.3000060870508511 0.20162513857709147
Ni 4.016070073262863 8.238171446057734 5.976395092784229 -0.40810040615763266 -0.66179526884677 0.7817004645455505
Ni 2.217383835633919 2.7544906455083016 3.8157523463078977 0.44508186847798825 0.15029023574854117 -0.6721802116255199
Ni 7.539145142797276 2.4377332441442863 10.435941021772923 -0.9148959495953339 0.680018733833332 1.0543435862024164
P 6.751011168320128 4.043475899932454 3.1081579626842584 -0.8846253236362506 0.9051810363004151 0.4862395736632206
P 4.404591185699826 2.378346358018896 9.498563318369978 0.2476136894920639 0.6573248917802421 -0.3253993303129751
P 8.625216088950143 6.670005851579417 5.040524846558256 -0.13472683409264538 1.0019990111624293 0.5117006940488027
P 4.977734789272764 6.575019644213118 0.01296558996347141 0.3773315004058921 -0.4503395173325018 0.016903974844190244
P 8.630237908203533 6.879919719173031 0.5930950818444386 0.16608812201274623 1.0369917251875302 -2.272969094446776
P 2.1676942556530063 8.508183092520412 7.103576601743389 -0.8763299163966779 0.7926093981485705 0.037276367852955156
P 2.0702108096743124 8.2032830175605 2.7085396322383524 0.14726276177612702 1.2966590034100185 -0.8547457624679989
P 5.048860519678311 6.544141379910966 5.104193494362852 0.5228492544664544 -0.6649659532652678 -0.5850583810053471
Ni 7.116838397016725 6.142705715963923 8.3584563210893 0.40740055187713065 -0.19091160881432928 -0.9189017283206175
Ni 5.511068399199955 8.189876309535569 8.263093705129233 0.43969335047256536 0.4349069848275155 -0.21958892214436376
Ni 9.034635625249217 7.697701566665202 2.472794838822674 -0.37611562572092 1.5946616868775958 1.9775477985531296
Ni 0.948914216671439 5.447242990431369 4.03122211411361 0.5117860546737573 -0.06782570139472191 -0.42225895704620175
Ni 3.1964289678256987 6.89983383000544 3.903071848853959 -0.2693785919729812 -0.09029842857594127 0.038957869320436135
Ni 1.6760207833070258 6.456810940553463 6.0703969871208265 0.7267225656477743 0.4722450591563416 0.5010550414094983
Ni 4.810766134604695 5.547570007384759 2.6254891317581492 0.1123222411452001 -0.6222524735571412 0.16211756740077243
Ni 7.7649447290091445 0.5369145042732095 8.998394677737094 1.389276052816807 -1.6593539848496583 0.4514967708653965
Ni 5.916222579036984 3.68612470010274 5.3824369142368935 -0.9859941510937406 0.10899086277912198 -2.056959147902922
Ni 4.703175252052481 2.7844939648951623 11.7790325051983 0.15220467916243466 0.9829728477689136 -0.47969508767648356
Ni 4.076413930389354 7.809576033698529 10.694096253232452 -1.010042707402512 0.08970090420125842 -0.026515015571393043
Ni 3.8280936266182706 0.6773586569936547 8.19063459512882 -0.6762042451832483 -0.10052062052458172 0.36443150451477235
Ni 8.85816105863689 3.4644173041717647 3.935966132065094 -0.9698782193684846 0.2805443787818136 -1.0389053972704754
Ni 9.100876246544388 7.827257212195039 7.2907674207661275 -0.7590881264626733 -0.1594922139627834 -0.095580502910487
Ni 8.021175993055984 2.62245598938514 5.95549211191735 -0.4879701832010822 -1.193951659646763 1.0774567751811122
Ni 3.49734622061913 0.4394410837050032 12.854138386480473 0.7566574055339936 0.7943610907323545 0.5093756454600517
Ni 0.008118759693139556 1.2480268955770824 2.8280862724976394 1.211002958702095 -1.542256433803002 0.4724983128177282
Ni 5.4196731115901615 0.5627900887419932 10.25427329252796 0.35065116290122833 0.7835308328860701 0.32640566009030236
Ni 5.685255349419177 8.797534667214839 12.877108424709728 -0.8230558875638856 -1.2834106230405444 0.05340669775591447
Ni 8.46013403425567 3.2275897664234128 8.371914978968576 -0.29275326214317965 -0.06886854083693945 -0.4935916431529176
Ni 6.874177893166432 7.495653089299676 10.380316398783286 -0.7489152996947296 -0.19922552799666335 -0.6618060674800473
Ni 3.45519392652307 4.585568073022089 9.456024590269665 0.8715659193491312 0.32145191562945286 1.3936708394503934
Ni 0.6908455683024872 5.0760840661572155 8.665806241812028 0.5960593601015413 1.6858170641371932 0.5229688107634543
Ni 8.0184417901957 5.266493953347462 10.501797031865747 0.14842310063281536 -1.1195238795544913 0.4563150181896463
P 7.320381571945874 0.44028868659169146 6.826600029194613 -0.05118140796982154 -0.32429941238057697 0.0163028509250816
P 2.5402840794240418 4.826433116994128 7.4633102036653645 0.14625668910911585 1.715520247628581 -1.4340808678363237
P 7.246321130470287 0.00533989818613658 2.8369970396193085 -0.18083468419430146 -0.572871094910536 -1.8375437752219452
P 0.6865692750290014 1.7801847982743495 4.983993379619958 -0.6215536477179037 -0.0024032101248539256 0.6803738031799056
P -0.2882187033093145 6.974258831862397 9.381138419530274 1.2248928293103098 1.023108796557851 0.47371238773048735
P 0.621236409083445 2.0192817243967376 9.73208064785548 -1.1302608063560213 -0.8618466351788383 0.4248472865986683
P 4.057757552872675 2.652286142590849 5.003934832480969 0.3220895492134518 -0.15012799913906402 -0.05529311614534994
P 6.7137622113535125 4.065085216538239 12.05616948431488 0.26695018503714674 -0.5304576629413317 -0.8872892436216591
