# total energy = -340897.5294189087 ev
CRYSTAL
PRIMVEC
9.00951484353727 0.00000000000000 0.00000000000000
0.00000000000000 9.00951484353727 0.00000000000000
0.00000000000000 0.00000000000000 13.18633566924040
PRIMCOORD
 96 1
Ni 6.415783765375986 1.955848588809312 11.467853100008469 0.408270870297226 0.09179532483644191 -0.2151519694189327
Ni 4.526578559226265 0.2877891366254916 5.981374682141882 -0.16521446115854127 -0.33297894243244586 -0.7819285213959566
Ni 2.6066869448923384 1.5547179512328702 4.675400431307637 0.16304779252452564 0.05752380524808158 1.0264167778851612
Ni 3.247452663174442 4.379345064644268 4.776591700292287 0.13903060367432188 -0.0057171049894353156 -0.21931741365053198
Ni 4.862867717148648 4.610493182193876 2.4826835838576566 0.678010959374684 0.6243628350319247 0.14283043703638626
Ni 7.154365788313378 6.159625234109598 2.6788441507488554 -0.7946367129912444 -0.3856541613389745 -1.2712477624257654
Ni 5.270629357785447 4.511811964095932 11.491522897889134 0.23718889461431408 0.1294848689674157 0.04940066192031493
Ni 5.641731281774702 8.012711294513437 12.381415220958537 -0.5865138825049512 -1.1064336220294364 -0.8785148398631386
Ni 1.725439251491972 6.5703510051904965 0.31454379245162645 0.5869286014448666 0.15121094779059763 0.11383867778972653
Ni 2.528484354452262 1.686446070452266 0.29877624020172117 1.1204386780592768 -1.3504241129466161 0.7264325452111813
Ni 0.4422843003197804 -0.029371919941669645 4.703869597843536 0.8154107123138021 -0.38608867777323186 0.29479806048735036
Ni 8.433807017391171 2.3451407236394104 1.3630324104559097 0.7591560035861312 0.028274678574977112 0.2989249381715303
Ni 6.989203358826342 0.609693702854715 4.9176194409232314 -1.017750360459415 -0.2885945027797997 -1.0770379424761387
Ni 0.8722219612456575 7.303473262021129 2.4774751832201676 -0.6127496762730286 0.42819332025276574 0.1744346942052286
Ni 7.668673953667268 3.803303702320864 3.7500619732649154 -0.8532810049970143 -0.3483212292164711 -0.3026286122753627
Ni 7.609544506540745 3.7849693392395785 12.67063146476441 -0.3283234459383055 0.17167255807905918 -0.4772695089541264
Ni 7.842791841091796 8.71584988533202 6.975268341933064 0.08411132592862289 0.22348800008845382 0.42523140941096443
Ni 6.837852515876707 0.6651887116190807 0.2426577729974416 0.5838635893662977 0.663361070671993 1.2606671586964415
Ni 1.9437758386722495 6.5184381796011275 9.109002597351472 0.604057033595037 -0.1809418991961271 0.436213619454081
Ni -0.052060581635822174 4.863615506895943 1.3544085026714348 0.22160132458870224 -0.009572731290099641 0.3497003689521848
Ni 6.393205920716674 1.9287299485760596 6.834359526900482 0.325874984397813 0.17151186413147881 0.9162324090185703
Ni 3.3150420449119364 4.451961755767197 0.3953041842080549 0.15523035336263588 -0.5026372982949537 0.1308652942547101
Ni 5.833633951863829 5.372896362864399 4.708128395597109 -0.012246935688153101 1.0119869756130764 0.026607575285199338
Ni 5.2732240981134115 2.863268923365026 9.446243160060774 0.49947586984783654 -0.9518290751762575 -0.678778690778644
P 0.15600605936442719 5.594971898781154 12.337003717581197 0.7099582017052418 -0.42358127540205115 0.1498634326237677
P 3.9766197429079315 6.134587791847735 12.470040919334112 0.5597839227092747 0.7831248556969029 -0.35192900117238746
P 2.416640234898909 8.591779853886134 1.3458900062127839 -0.23072874081126712 -0.7276880148848371 -0.7289170021959318
P 6.148660654320938 7.61052654367876 5.858201097441248 0.5034194278766169 0.28484814836349004 0.13243418140372676
P 4.637395594066465 1.1006474033539069 12.617951929446189 0.34477902039116753 -0.11955732544105863 -0.770794359156008
P 4.038163740061867 5.9885795913095015 8.076367121989856 -0.5687151637606335 0.6952972572589574 -0.08223570617246483
P 4.625917471921228 1.1013951931012025 3.773956108069769 -0.0881358737069837 -0.3439225859281432 0.7337473337050395
P 0.01315028813437042 5.5981432480708895 3.579285714964145 1.280586266217872 -0.3104704769172847 0.16542374895586995
Ni 1.4900476523643371 1.0825923352384792 2.5713885659654747 -0.7437419830239063 1.0343103217006249 -0.5163626183008462
Ni 1.7405211796482725 6.4704084549886804 4.793233175499875 0.33239453068388564 0.36379901313709606 -0.2764018173683498
Ni 5.903205426907408 5.543239263492338 9.21478331329121 1.0183298871119688 -0.5032515348401849 0.28906578598926347
Ni 8.67341506955175 2.206295087548164 10.081283331542801 0.5548821145322831 0.7720837673913928 0.7202631831756756
Ni 2.2198003505746247 5.116638726932706 6.927718824471589 0.42545021028998986 0.696064217331969 0.4314169693963861
Ni 0.5573988738281738 9.123485392758433 9.324848954578103 0.9293231807642576 0.1594770444541318 -0.6924695580021751
Ni 1.725889727243355 1.1022240684837472 11.360093894568655 -1.371360091768335 0.721423522032364 -0.20156008966711092
Ni 3.9432935468206223 6.8752780413016 1.4921126332086765 0.5742312084828561 0.8360029346428569 -0.1924622411309008
Ni 5.628676494499625 7.694179890710569 8.015222246351646 -0.44478104940811786 0.7477073954295574 0.3193235564325404
Ni 5.123918415075054 2.949201677698833 4.809702568970434 0.1097043439063788 -0.5861899235066291 -0.12631161344575664
Ni 0.8706498008733312 7.49405153340119 7.1307878874859965 -0.3750511890121476 0.05433795132093223 -0.4351003317852442
Ni 5.136621831264053 4.19775828926181 7.274386943705835 0.23810754977384155 0.8065437488414754 -0.668979445300035
Ni 8.453303607911023 7.119931421877668 9.386798379908285 -1.0290200198359634 -0.6535592540902229 -0.6697343211881885
Ni 4.732292815852793 0.5690481767589363 10.36109724546581 -0.11891583520231779 -1.2784365668647208 0.3077831598931086
Ni 7.911921849899021 7.1761237671051745 4.673290402888159 0.42941099470995076 0.092133424902151 0.7593179830852923
Ni 7.339592407767011 6.18043721382349 7.081629270640583 -0.1670384017411575 -0.2602887138565711 -0.46756925094722707
Ni 2.2963722187946947 5.171164311880096 2.5060497610818895 -0.4854139924381318 0.07490369128742583 0.20594073523330986
Ni 2.274136735706433 5.335101447323371 11.320271838146406 0.3846820272336923 -0.32832755970336364 0.17493785909389228
Ni 1.0141380400583295 3.390415647633328 3.713904987555916 0.26086027008932494 -0.2328301034249861 -0.1679719692990204
Ni 3.5587314073800447 2.739090777738808 2.594846640242989 -0.6397640000783433 -0.35374857087962946 0.07601209386025619
Ni 1.3423636820309581 3.2370466733174963 8.168802944270627 -1.236302356698832 0.12624990696988578 0.25518841651552826
Ni 3.532865089735637 2.5706308657516486 7.013772306306767 -0.13193127362537924 0.028923882123201797 -0.542435147018182
Ni 4.114564427496411 6.632859020452392 5.910036441201379 -0.37141230670797964 0.897574427597751 0.45073623855028827
Ni 0.9126999103619219 7.467077045408379 11.319190696343085 0.6063286032380333 -0.1851921898320488 0.08154433653239504
P 0.23043996966843383 5.612999938351499 8.003077420094362 0.3914358010177581 -1.0970102718330077 -0.32421842263099643
P 8.508847268056538 1.657678688968952 7.948986994722808 -0.11265108523952858 -0.6459793848604358 -0.15369926143009016
P 1.9332256965748613 3.2240099050724744 10.39995798663461 -0.8317894107821416 -0.15970715818706688 -0.4153005234504976
P 3.89828200974244 6.28771350925782 3.669902516160832 -0.4538971527767731 -0.8724105267376137 0.21434592857786958
P 7.086614235305387 3.7076226527271303 10.269478586198048 -0.560332596123893 1.7151348392647043 0.1840058828334315
P 6.457569896074267 7.6050037109668045 10.255382298985772 -1.0030305377507371 0.06779896192184452 -0.7937111158531814
P 2.314958848296754 8.413868960634963 5.817139331751192 0.5374176391989325 0.2768165363082652 -0.36226946386644704
P 6.795201471735771 3.8992820659105107 1.631360994621659 0.19031331310869803 0.4678279039252524 0.28641909239503577
Ni 5.228834217572138 2.8401955553791924 0.5755161075972923 -0.15374374151478037 0.26274540292717974 -0.1563007036086792
Ni 1.554907151048451 0.979586549927259 7.196798802190645 -0.8110555206689 0.4593964853284475 -1.1842573151771347
Ni 6.940452873011682 0.6050979492391064 9.282573607213822 -0.7094792051862943 0.06726880044998737 -1.2571501466821187
Ni 2.8852701590625682 1.5747911507144936 9.233335706636165 -0.04666757925986801 0.28189652193433384 -0.42088393107554617
Ni 6.404206538565445 1.7679101053323547 2.704569919958832 0.05270967168888987 0.8311800593329168 -0.20921657777110422
Ni 4.1993619829367335 6.881035121404274 10.242143717604131 -0.1062518665814041 0.5090280323126459 0.546710120244452
Ni 8.101986578922507 7.212486169756804 0.3047621619860975 -0.27711581271623886 -0.4899890134033239 0.0018671351157258165
Ni 7.613085245946614 3.9594295882351584 8.000611515831292 0.8135111812982442 -0.8107971248011907 0.46146622337328275
Ni 3.1758450377346117 8.372758543563757 12.224722636549004 0.3258927250096258 -0.7555698288967698 1.1845751035278695
Ni 0.2739712434275717 4.691813064833522 10.06116148068003 -0.9016408843576408 0.019415685522450432 0.2628073665133667
Ni 8.61007817890731 2.160301513331967 5.767294189860671 0.8227612391416024 1.1607713162400526 -0.12682531985738157
Ni 3.628041606487822 2.8841709982291936 11.64544685833067 0.2256456698614049 -0.4567677894563488 -0.3397748823083568
Ni 1.04626597064696 3.4386075435162735 12.544227067974859 -0.07323093157069324 0.38326329250929475 -0.7414755555872327
Ni 3.193098259012578 8.386462015920825 8.002220615215231 0.666530212428594 -0.6111820746755926 -0.3029921662623685
Ni 5.527391526558687 7.897515635369794 3.7623653669866863 -0.5347280081819114 0.1874190222800385 -0.7154217959229744
Ni 2.9179296510378303 8.40483241706222 3.5682751866488434 1.08222334333182 -0.8065036396321593 0.18215468855730566
Ni 3.5003407404857896 4.270311913779545 9.277075100192441 -0.4353985797519534 0.41061777326284765 0.03647521210789847
Ni 7.311284511550108 5.912151875329873 11.365896022246469 -0.2617629844092524 0.004568336096972778 -0.3140090861981624
Ni 0.5008542565630859 9.027984533465252 0.28240685234796836 0.5941464593495446 0.5089606694098202 0.03861334149682383
Ni 4.483080620672729 0.5706185352282571 1.6586562213494531 0.04667400701777123 -1.1713521770796922 -0.7362081365407063
Ni 5.997715239547547 5.642172748011057 0.4362208967061662 -0.2244673332825876 0.3561970324201221 -0.20694346546621134
Ni 8.025540843912824 8.761555155067333 11.213738827701857 -0.33820985181408203 0.968305475564726 1.4994843329427985
Ni 0.05443008408809637 4.8890313487889685 5.721590722028365 -0.6902576379525209 -0.7048926142568764 0.22748580839393723
Ni 7.805816791418286 8.73375179169198 2.506669615715792 0.5930894788399399 -0.30482099194099116 0.0754960734557861
P 8.564625175592772 1.538708043028721 3.4800062650683645 -0.865099080677865 0.6746417857921349 0.8124395455006201
P 1.674364310800176 3.234127590448535 1.4413980731179865 -0.010884508122987706 0.6927222974429296 1.6083643811756687
P 4.815567763253441 1.0505995473752636 8.028289646947762 0.024067582472165006 -0.15502723621289433 1.4333943832922604
P 8.623646508538963 1.71367282486585 12.348673742396524 -0.6274304182136549 -0.922253932622302 0.013649472462634557
P 6.239557651434985 7.808060160660173 1.3442286516416835 -0.6314665359562416 -0.714733254496382 0.548375937982649
P 1.6957168614157265 3.2041619434665427 5.887514455535238 0.08268076412968342 -0.17132854447607915 0.13144893467232202
P 6.822193978758636 3.8752987369068834 5.8690269306984835 0.9098871835268331 0.017013760949177153 0.3256279013840134
P 2.619192151750728 8.521893045816586 10.12156757608597 -0.9692958645024532 -0.24409822013963764 -0.14703341937414033
