# total energy = -381163.77224984945 ev
CRYSTAL
PRIMVEC
9.35845583608608 0.00000000000000 0.00000000000000
0.00000000000000 9.35845583608608 0.00000000000000
0.00000000000000 0.00000000000000 13.69704608332374
PRIMCOORD
 96 1
Ni 8.69508141644678 1.4186389164288067 9.92379702866696 0.05773797814141669 -0.07464015321339404 -0.2364059937017025
Ni 2.9743698480220755 0.5886917738765398 3.682354790476874 -0.1016886726907539 -0.20449886058046074 0.4090895095437793
Ni 1.2803303020445087 5.609252362976636 5.267705233845384 -1.0845859300267258 -0.05215354207510372 0.28600154524164295
Ni 3.0934655531884987 2.923375623799865 8.381482378931825 0.18457975305903052 0.19160246423376678 0.11821238137738996
Ni 1.7736987195102238 7.359938640320882 7.365421759420128 -1.6199014352809908 -0.8062092483201921 1.4516893249467064
Ni 5.112571052250752 8.711973428691428 11.304884206407195 -0.3384188825010946 -0.6963838054549168 -2.71224875442069
Ni 6.172303840372352 6.76865270256943 1.3586306278331646 -0.635132414843603 0.4627839137434417 -1.036799406671066
Ni 8.83438202711802 5.7438082366905165 2.6888808034042126 -1.1470691361626117 -1.8089345961256849 1.030975343790121
Ni 3.896495905924667 2.246937099115419 5.8168200992551 -0.5722486308351887 -0.4933959822023439 -0.6986589746423387
Ni 0.25628036904070367 3.4360973273165127 6.296737608577195 -0.9594498249463088 -0.7175936067633125 -1.3902229901111087
Ni 9.093143322721636 1.631347252333855 12.198369646983737 0.24342304844948395 -0.02427969848297109 0.5644247639153956
Ni 7.586815677909254 8.701622976867283 1.2803284303534015 1.1127641922331546 0.7000337435026783 -1.0302284383217677
Ni 1.7820651787604818 5.114498894091415 2.9621776521482093 0.2301489570483972 -1.3354597783273001 -1.0657263741180614
Ni 6.980041496243733 7.741136609717703 8.528451308070249 -2.4253673776772553 1.4458477785642647 -0.06142802539849421
Ni 8.660193094204091 8.46605193408485 12.764701263045241 0.10408262684422721 0.23822324941609938 -0.4944861299427291
Ni 0.7730205933650252 2.4472267645226005 8.344651241319616 -0.5423713836597821 -0.4159818657882385 0.8310389057693623
Ni 0.15933519228528178 1.3269915613529946 4.6825678013818735 -0.029637620360774768 -0.48003678728661847 -0.47240472466265737
Ni 8.583098137488628 6.1850781321806325 10.734798913829717 -0.7767351501204752 -0.8696674167748378 0.8141385304695978
Ni 7.19733547536201 3.0070495747579824 8.583171133441818 0.21595775314967966 0.9484617013659213 0.4809747257198555
Ni 1.4974277535965046 2.2431282077117776 2.2625741424725283 -1.8616021017227296 0.061940960479170734 3.977909252566665
Ni 3.70842838344907 2.2822559103128164 1.9160932355820637 -0.16595005377298516 1.6129651131724738 -0.048147249129188045
Ni 1.612424455237634 6.208128008168759 0.386555685191868 0.0896152864659876 -1.4279814398068054 1.386325969049548
Ni 3.470723612804157 0.5775776720805597 10.410754904089695 -1.4538655066624186 0.8777548217686625 0.6653858144115057
Ni 5.319364844256289 3.2015463561876367 13.30277595845772 -0.833541617586558 -0.28241537055228133 -0.9560132884609341
P 7.872660343837529 0.18359792411102985 5.636909406625727 0.3565392462508892 0.3168439845437963 -0.7248837126668226
Ni 8.001769596428758 8.412764888256028 10.616319930883195 -0.7148039598333172 1.2723389386074153 -0.5001489846554612
P 1.9372283715672791 7.710721629221798 9.819110537491166 0.39422390528585655 -0.2925306046094123 -0.11633110519427707
Ni 2.1882876582637785 8.876270474102533 12.331313058808558 -0.8635764733857514 1.840898550626791 -0.6397727418290918
P 7.4913313560631885 2.658784010396573 13.189323401980229 0.09130707234611371 0.4890109657607707 0.26073582869631867
P 3.7031034222484025 2.846860891327707 11.659870077689867 1.8000195530242418 -0.4877475256673148 -0.027242637766036953
P 1.8210712214395366 1.89138129789053 6.471950356526893 0.15528871740439706 -0.40555784224143704 -0.1886834908147589
Ni 9.140637484572933 3.9207155888549443 10.097270039732294 -2.1870837073368654 -1.0307303176588507 -0.947165094041685
Ni 7.481617279215573 4.91769993259961 6.787694352050973 -0.9286130420711103 -1.0412787825986582 1.5740553234811536
Ni 2.7943693142195456 4.703859223574559 12.577818521040653 -0.8591822009727977 -0.5655992438394711 -0.5143371032303852
Ni 0.94075874287716 4.804780808087739 7.870486374616237 -0.8219531414180102 0.9456586846994874 0.8860648842962546
Ni 5.066836280040449 2.5619801463197627 3.852828416542532 0.6977009816044435 0.9881716183610336 -0.9974527865526435
Ni 2.6957499097685185 0.6778834702193904 8.197065589961289 -0.182475305121518 -0.25688945836703503 0.496129836193739
Ni 3.7559599791225153 6.80085514807294 6.41232670045383 0.5333722654849653 -1.060367423798993 -0.3101855986870142
Ni 7.040384817547607 4.705599896304479 0.4235973880536644 0.8040927161978216 -1.365649928757435 -0.542093190297731
Ni 8.624612246251653 1.5236875798338911 1.27763132346758 -0.46191410954397877 -1.0595701247086784 -0.5032690183416816
Ni 4.083945770334809 0.9624890766345413 12.870374135434655 0.19924326860847622 0.4156404232884197 0.4021279906242817
Ni 6.078270079134554 7.030773683710901 6.065174792301348 0.8500154468718651 -0.7457147904795608 -1.0223243529833426
Ni 4.536277360269897 4.96842276161124 10.084627702147088 -1.1677359204833435 -1.4473251344407398 1.3016433439984874
Ni 4.036339307017067 8.119892022219313 8.927501467249835 -0.3352595109365065 -1.0453593804259351 0.7082826137750318
Ni 2.739940536815183 7.079269200304679 4.2067464880484104 0.5211258440174443 0.9199887907372092 0.8513120541961015
Ni 4.926730842193009 2.297547626660603 9.66573106630976 0.3501572539839453 0.6219940776894319 1.2625803165587546
Ni 7.845249427569066 0.9291486429377079 7.708410090704109 -1.4335959577801052 -0.387818515980145 0.07951522191750822
Ni 5.232836564359326 8.729277212979712 7.1175462192973855 -0.44996336494000566 1.0953588522725135 0.25543961329438586
Ni 9.260631601470926 3.6426477994780826 1.3030835149921065 -0.9022404656148526 2.540110312448806 0.12772263486067034
Ni 9.218499834642447 4.36051620682572 12.531700987998878 -0.06012884697109644 -0.10692498138902876 0.23982530379589662
Ni 7.008949765398148 2.714363877832012 5.582080087324372 0.41989868434414135 0.6689912723745769 0.29145948303242064
Ni 2.556533525197112 0.48361784264150487 1.2287932874011414 0.36851133101110084 -2.287737768115518 -0.9860160054706115
Ni 1.5855656878458662 2.5242374951382303 13.933593884089419 0.6316583402520733 0.022175250545458585 -4.964268243198992
Ni 3.466933438311591 7.530739812330343 13.5041090916573 0.34976618919311375 0.477696569189216 1.0820209975130268
Ni 7.587667297363138 5.912372737826586 4.680020429784648 0.3875187253515391 -0.22131824613064463 -0.8063827977835789
Ni 5.738857613711336 0.7563232369955506 5.206904284065741 -0.0783109171967619 -1.1586259877622758 -0.15232115013564088
P 4.830900257492067 8.882409620934936 0.7846241423856011 0.2775091914999156 0.5001291871611192 1.3618986892451188
Ni 4.704954162872412 5.673713404716879 13.296201643442837 1.8217767421956754 -0.4126525443046893 -0.034161733483373424
P 7.038803238561821 4.276177805524461 3.266444437801466 -0.355379164504517 -0.3191934586125793 -0.04311945689729348
Ni 1.0737985467940134 6.97707486583844 12.009528180235211 -0.5163088822447753 -0.1645169208708844 -0.17973810869601303
P 4.859874035835243 4.29657923859556 6.564322991906838 1.2363751189182965 -0.11494913724508592 -0.02678575273427645
P 2.7152810064746573 4.1293904304234585 1.1062733233536557 0.5595252697312493 1.3084351701093404 0.1500989456733415
P 8.866303718955415 6.434059841747873 6.318598024866544 1.850965962165122 0.9962119721670069 -0.38200602306342596
Ni 6.018432114429689 8.810358871754024 2.802717056558729 -3.3841638853102816 0.45375625632353467 0.3869353420442433
Ni 3.034198454271403 5.1900590640987785 8.452090990114455 0.44274473570437944 1.9728051416618217 -0.24548198786104178
Ni 2.0384213512910367 2.778506732083989 4.428925580957107 0.7219464844153696 0.9209156734268528 0.40373287321755635
Ni 3.7167199750550304 4.712094664447297 4.21607406068234 1.060417046090006 0.16068263472645877 -0.13112189035020644
Ni 6.682985400581889 1.4140626316711153 11.257711039580823 -0.0039227320931738896 0.040059329914731004 0.42074637705641726
Ni 5.319374202711826 5.905119934785255 8.091009020894848 0.4010026187705868 -0.06816508701201163 -0.32500235198487254
Ni 0.5526561049849926 0.2063810841163464 7.013914426060633 0.08366755352298492 -0.4190929006133944 -0.28486768874751583
Ni 3.532685946915967 6.929917608386482 11.203416088090643 -0.30193390020118327 -0.48614290018435624 -0.6572971238661003
Ni 5.760587947468719 1.920008813378829 1.505702499982498 2.5138776040045223 -1.5639655433453192 0.006160620284757131
Ni 5.238620089881317 1.7040718103134462 7.398869815355639 1.7495626819252705 0.18490834004304282 1.5624822739315736
Ni 0.5130043288738707 8.150007532138027 4.938743355720561 -0.04937546510933432 -0.2880262889811555 0.8293427490138621
Ni 9.276831088005823 3.7068000121855973 3.987113830891387 -1.3652791756815779 0.3080011894411857 -1.1020838297011728
Ni 6.373950481832428 4.072631397590333 11.248329187904778 1.1074836605605056 -0.6724077542552935 -0.013167133509577324
Ni 6.1437231171617395 6.413780068598757 10.742195837086323 0.22506151522316079 1.4632729160192477 0.47360851516277147
Ni 6.3660332284479555 8.76780597442637 12.946186983741525 0.862332059455689 -0.35461503264498284 1.5962112907529027
Ni 1.403496935369615 5.34440807127384 10.4388059387169 1.9958136867418528 0.9826864268767462 -0.6578807642837121
Ni 8.051406844598073 7.969267680348058 3.3940731827267103 0.5132425846146257 -0.11402688254113265 0.8634594881919129
Ni 1.80835308036448 3.0191594162231206 10.8628394307986 -0.7770827632678811 -0.8456926511267951 -0.3050518770048746
Ni 8.495830539604226 6.484941764503636 0.7036005060356196 0.9842812821676921 0.7471260690047907 -1.751806740764441
Ni 3.646643859992467 6.617719531665448 2.211113867164566 -0.17808026137761587 -0.4708198966740407 -1.7847754823809778
Ni 1.033744357094792 7.282141799440128 2.644036956161051 0.8979901749789309 0.8693406295630381 1.519469003594841
Ni 0.6183562062383605 8.297403206848948 0.8144851023137029 0.9365176416301677 1.6798449057141585 -1.6195327390876624
Ni 5.222111774313693 4.429853003900844 1.7936827654643634 -0.9442373788719286 0.020464952722571206 1.3044491888783987
Ni 8.833586558397357 6.724256189500947 8.418656036016696 2.0153502141128836 -0.8513789028782951 0.3221036902808388
Ni 2.809689105933944 4.206747423893964 6.309571794500913 -1.5542022933109685 0.5364912707299212 0.5058761169472256
P 0.6723460720780284 0.2680102572110318 2.5225305128482445 -0.3214619429317819 -0.5584574905883672 1.0678143669953415
Ni 2.824952746915119 8.982872641126793 6.1954070595570405 0.31300301353115123 0.9671366520676051 -1.783244390448432
P 7.1913554222737375 5.249232578460502 9.10209749297963 0.5124514561718981 -0.4897319030871953 0.7179075384593055
Ni 7.2364257441409 1.2918131269886548 3.4862680074514487 1.3649883839140362 0.7216898883198732 -0.18059814270346317
P 4.37693093783797 8.500444258184066 4.681951079161972 0.5669642425077978 -1.1865581953961692 -0.1065151475451198
P 6.040162448187069 0.3702569990282782 9.267722503231465 0.15987145167907307 -0.4162975972564444 -0.14589853443874876
P 7.032439488796523 6.416007381016611 12.82314668956617 -0.6370301460869481 0.7064280770647963 -1.1167455454784059
Ni 5.544856830425155 6.475302555300318 3.5044028225914374 0.05938939770191061 -0.24180968121577712 1.6951527397158224
