# total energy = -340872.42091473355 ev
CRYSTAL
PRIMVEC
9.22476999064109 0.00000000000000 0.00000000000000
0.00000000000000 9.22476999064109 0.00000000000000
0.00000000000000 0.00000000000000 13.50138333534345
PRIMCOORD
 96 1
Ni 9.110668847752944 5.148270354596136 7.985865886377516 0.509935888838896 -0.7885735375163 0.07659393450565519
Ni 2.7453930328721974 5.260102241648394 11.897688655377538 -0.0012325868555204578 -2.0475864484387705 0.6769786614554276
Ni 7.8309441760463825 2.8807388587264193 8.141550485189985 0.4562808225176012 -0.4875608635778055 -0.4016477085537534
Ni 7.683799869326052 5.639664629230034 4.88080368248956 0.8354917993343932 -2.416005991067013 0.7337817864874008
Ni 1.8510331290950344 0.23322063585376512 1.9081104711677181 -0.11176148354572366 1.2571146654584928 -0.24074318762447575
Ni 4.491558976286289 1.0305913075540953 4.948094689937503 -0.839193930776329 0.26426569622644813 -1.271462706650049
Ni 6.201333201939004 3.2411229494193647 13.435510400272998 -0.25950709849554016 -0.7941849701658065 -0.8140076613186884
Ni 3.1872502924544888 2.381761823129314 2.2264452926409724 -0.6352704830833639 0.6370548286772963 0.4350905615932313
Ni 8.978016654746964 0.3397030787666516 3.467898238454404 -1.5106804587689338 0.5740198638029985 -1.0066344530519116
Ni 7.4411146194233195 8.28758874198393 0.7454425962574059 -1.779863132681025 -0.18601802816745383 0.19495826807987715
Ni 8.388563074712959 3.0367297199038252 12.531497697138292 0.30090623026761726 -1.3587958819500792 -0.19571262974739842
Ni 7.314440077395636 0.5405253998042626 12.279197469435136 -1.195768658250844 1.188545143919211 -0.7944492795707866
Ni 3.58726399518872 7.637205555913451 4.4080665052377626 0.5833339421150727 0.07117456326229678 -1.0536979821986174
Ni 0.5756883781978779 6.974479627545197 11.217934724014171 -0.8877114187607421 -1.1978389105163114 -0.6328554458839681
Ni 6.356761352144687 5.1235387461504445 2.840744868269019 2.0006213925431418 0.4870731253081096 -1.099770608186964
Ni 6.903384324937612 4.202796000092538 9.954137540238355 -1.7230628358625293 0.5282483139948386 -0.135093987624077
Ni 5.66759723287552 6.2121630819521485 10.639846060654946 -0.7377723957040326 -0.29377758964263595 -0.19297106244651926
Ni 5.341741456398249 2.5633883202151773 8.448193833129457 -0.27075644615711436 0.8888043947146047 0.2743179382561276
Ni 1.5187661374481407 3.1924715122904685 12.017743502432962 1.0188749609821612 -0.5089652973955106 -0.6070014609353417
Ni 5.406028878724999 8.462425808329014 6.076810798758907 1.545451800811848 1.4998494295917009 0.6396858385422403
Ni 1.2581756089206109 4.189558455102024 5.870185174896536 0.072900544814468 -0.16189568119795344 -1.174168563482565
Ni 0.21582179710351648 7.169841807203097 0.9862284660113243 0.4378020469871235 -1.051863242982724 -0.15175319344731286
Ni 1.8117725078548783 8.034036712987941 12.683861378740596 0.15003646786652222 1.6902316482651212 2.0084349750502897
Ni 5.252307310974538 1.5919554628521346 1.4656563689645996 0.33225929065760196 -0.36857252326633944 -1.0774981699420088
P 7.8562477202338235 0.9527711475959291 1.430985070813489 -0.3381304047263983 2.6930140745607947 1.7048514550608251
P 0.5772934881827904 4.95288050062815 12.65210603039541 -2.2071758501010503 1.3238432771342943 -0.8093166836009222
P 0.5866243430663471 7.34082291967638 3.3346390555805683 -1.1106965110708487 -0.39162426287948043 -0.8373571346779063
P 5.74686568172812 6.877112179897206 8.485605810455956 -0.2649362399309115 -0.5732320777943806 0.17385953842804897
P 7.911937656894261 2.4028957712639945 10.21397163762357 0.34056395386855537 -2.136928169528397 2.2559198522739727
P 8.280780861703095 3.8389157215588927 6.314583858621605 0.21330000381185843 0.4975501135800334 -1.1399862611739011
P 1.4884074192852286 4.07071574282831 3.0218796851123773 -0.08958957543437474 -1.5145294002013787 0.41232087199688344
P 4.376692139894742 3.9544928652426132 6.950944471772169 0.4257718552954668 0.18874699706284268 -0.9743408831255284
Ni 0.38402994370631277 8.815872871960728 6.866263850344006 0.3331823166925036 -0.6813497939399298 1.2456107785839514
Ni 9.231688605753321 8.46562680352881 9.215950225608154 0.9038301786994757 -0.1091718684416765 0.4697516033105265
Ni 3.340648993253961 1.0217447530970207 11.522917613348563 -1.5726581860233109 -0.21495528002709433 0.9102543370582645
Ni 3.54055898453578 3.34170061703718 4.595465863407293 -0.48436163991421743 -0.2612492779976275 0.40313020663655086
Ni 7.471168920175301 5.111260577242868 12.185079908268092 -0.5377991909080674 1.4652395528273152 0.7840856769482754
Ni 2.1212819918421233 5.437559142681495 9.735887783663408 -1.386385875753206 -0.1434359318308691 -1.2500233058293504
Ni 1.4040007735269044 1.1480226300134908 8.901921526784077 -2.361782196726442 0.8974399589024158 0.19808987173032336
Ni 8.57791992908248 3.1884956364083004 4.210176738592127 0.0018686777776225883 0.1451986801582467 0.09902346715376495
Ni 3.519692554731919 3.2039379014355607 -0.06400329940988028 0.5244975887031548 -0.740490565966144 -0.3782588973161679
Ni 8.802958193921203 5.130300502581139 2.500968913819144 1.4916807777379795 -0.826505536675383 -0.1992306702029859
Ni 7.919584991247665 7.989471848981552 5.221349905236793 0.3706412328699101 2.3152966515703937 -0.43690576042509915
Ni 0.5002325267979475 2.4086612525316395 1.8244556441666948 0.5746914359487264 -0.3480697753272973 -0.5281539545088194
Ni 0.513942380013906 6.477255298253456 5.480724609074603 1.2697878900507875 -0.07193946645277934 0.8767022121344321
Ni 5.300266890351316 4.898066917120395 4.753742622597695 0.8776265237209144 -0.6437633510457236 2.6646470933823267
Ni 3.4779873694342816 0.6103034052518163 8.869180050522875 0.8879225063302837 -0.4060993165672038 0.4283043919093333
Ni 5.866575522384489 7.459351989769135 12.737812446250715 -0.12937482575211265 0.1602928554872078 -0.6334475709420123
Ni 0.36305927400113264 1.9307074678288754 6.257594151864189 -0.03135306038998471 -0.27934958714276403 0.18930055557346753
Ni 7.593350999199235 7.116365815349436 7.365220591447048 0.28472139297763865 0.5086341393083369 0.43325710792891836
Ni 5.999043219989901 2.8300948712714247 6.010545585738105 0.9945106732051839 -0.30753684821025745 0.6559506371405348
Ni 6.254080436960435 9.244603283792847 2.888135279335056 0.315151941553354 -0.2210696204549483 1.1880962293072506
Ni 4.05521812918088 5.4252717490038895 2.9708851563963097 -2.4892492639328805 0.2131665635577877 -1.8722420979350787
Ni 5.298661780366404 7.105572834416404 1.786503095316542 -0.18059685715188253 0.3801540574563517 -0.30142559310619704
Ni 4.934034295460472 5.1764612518024125 13.450645480458318 -0.26418367803560305 1.3052169202823587 -0.2909732874246215
Ni 4.987851603805178 8.792312809308623 10.518779256327425 1.0934037854286718 0.28897888270241195 -0.13175438172788276
P 1.2607031959083463 3.368203381328291 9.017317864975245 0.0875918282780556 0.5479774169926499 0.017109920207409243
P 6.814642037266018 1.0090606943082017 4.941249910576555 0.3275652276160423 -0.5331853462851398 -0.01037517258673697
P 1.0745104376585086 6.935956987907299 8.141483144368777 0.6506549359592343 0.3658656658581377 -0.6354322054722089
P 6.192495872251958 7.035141715250851 4.535141402284672 -2.2389264030397698 0.17580740618303914 -0.7747993665503431
P 5.044547040398693 0.6315960194309816 12.588135940157633 2.2155244791760613 0.07533460817725735 0.8261170429877128
P 5.305331289096816 0.5548422428880789 7.941931996641057 1.790356061792549 -1.1136062285184756 -0.4356646889291465
P 1.8653499721788507 1.670264535621797 13.455964482856597 -0.12738607745685804 -1.0464893802653203 1.1982855111354265
P 3.9529707781879546 8.995626740730861 2.6682379788330666 0.2637908134725586 0.6346351634922103 -0.10251168281268151
Ni 6.473288647141317 4.931294538762087 7.438087972377057 -0.00993602816678934 -0.29079716685807333 -0.06001186177725794
Ni 7.143357492452043 0.10021697910971121 9.566513626129044 -0.5935700180207842 0.6365609197600134 0.8865145702391635
Ni 1.5787363674016777 1.9388806140738892 4.079699746358806 0.16617219708612024 -0.11883895921779533 0.37947142956703034
Ni 2.715025089939257 2.5896327909454975 7.351043964867661 -0.2610024520941441 0.23950802966579393 -0.03804049971248932
Ni 2.706067838241844 5.530637072266358 7.272236754516474 -1.551473838636212 -0.21525995575170667 -0.4538740128483216
Ni 2.71887181904103 7.94053444398178 6.6505250761707435 0.1326702086739328 0.19007857139007264 1.4326225381232425
Ni 3.6488393351271693 7.213936207938047 11.517760044425778 0.28634401618272615 0.8696974986818247 0.471152340312795
Ni 7.639050509919097 7.059430534735187 2.7776400614598886 0.08898408063989191 1.9563390256859987 1.0063966260094925
Ni 4.634238494312955 6.4528188824486685 6.31791861298681 0.016670261566829353 -1.380543558039816 1.385022933967408
Ni 5.689395364452233 2.041884396209129 10.835386278374392 -0.022128713578239312 0.42470870413827505 0.7735158718522291
Ni 9.247001724000187 0.19509466132708167 0.013670186704837217 1.7581941323480235 1.2071334484443599 0.4863650434974914
Ni 3.8699386231638373 8.626488343281123 0.4709549516823443 0.0849829299002988 0.3786594751886962 -0.13838782788400036
Ni 7.874466641039581 6.494985306247718 9.769425357578049 -0.30639399285506586 -0.19252754715119744 -0.5887826239344698
Ni 7.460154544761592 3.1513659370446656 2.009775739171862 0.49180035558044977 -1.0299911254999807 -1.425713726818551
Ni 6.003055994952183 2.735531753712017 3.674644706804146 -0.9604396996634039 -0.2985097050109827 0.0899047926819484
Ni 3.1288113743256383 2.740485455217178 10.141644828217215 0.07902285566212197 1.8291586364820434 -1.287224597469996
Ni 9.25428929232249 4.5217331990486365 10.609872937879215 -0.285575770558134 -0.4971860453723954 -1.1562304909469054
Ni 0.7969989134681925 1.0217078540169078 11.503394310060811 -0.40468469560786435 -0.2039699846601842 -1.364842088144159
Ni 1.3239205449118212 8.60656284002014 4.841973858009723 0.5215984127784888 0.7894903929036146 -0.9272002208839838
Ni 4.2102219399652645 4.880881170557798 8.870503805021926 1.9791555093598816 0.21194014734985434 1.2353158244158466
Ni 1.76360075876745 4.859129162831227 0.8084117989471213 0.4160782821567866 -0.47477193934325335 2.1231133751324918
Ni 3.5218972747686665 7.336302782362546 9.16461714783205 0.01665149251375197 -0.0705767817772978 -1.0488452820920064
Ni 2.3241439095329763 7.217663015029452 1.9881593355647051 1.4741281135661966 -0.7917879306885396 1.3259664941248843
Ni 7.579476945076775 0.6198178330589349 7.3513548396176125 -0.7219079178679503 -0.09423350196428933 -1.3634624341878132
P 2.496859278771567 0.7865407916871858 5.96805721746507 -0.19765304130322087 1.248249501758379 0.08242313959292256
P 7.71115131245976 7.890859057379751 11.417971094645376 0.16760995797391134 -0.37874843535807673 -0.6277759744785317
P 3.0388145179302057 6.507005181594505 0.1403742479966114 1.6420728291717073 0.07807694680908489 -0.19526962867270886
P 4.670556413914106 4.141764921585754 10.988505468642009 0.6850557820366072 0.12758688061375445 0.5605814789099055
P 5.087885009991328 3.839958120572083 1.8909357943291552 -1.1443921035510807 -2.3282005041162552 -1.9184345373307412
P 2.131770555364223 8.63391428315385 10.59109315105574 -0.3300735958601928 -0.21770070398271538 -1.355458332936414
P 3.078010565780164 5.494392950825433 4.879940244014919 -1.2384384292052286 0.4790350854949814 1.5247464499436967
P 7.348876143911027 6.165070630958024 0.6674222587896269 -0.6948869091944162 -1.1251353122039978 0.6035980916807476
