# total energy = -340875.3853612599 ev
CRYSTAL
PRIMVEC
9.18650466372502 0.00000000000000 0.00000000000000
0.00000000000000 9.18650466372502 0.00000000000000
0.00000000000000 0.00000000000000 13.44537816148231
PRIMCOORD
 96 1
Ni 5.780047702617162 2.5159815328897728 4.028584544814105 0.6131438263876537 -0.00038052326787031243 -0.20207662429221326
Ni 9.073428008826676 8.282065748370355 12.024981231282226 0.6427518790620738 0.6547902982838465 -0.9681046724078295
Ni 7.573345284151322 6.575718433775496 12.723105980985908 0.9386514001437191 -1.0107510463234464 0.519831293575737
Ni 4.727292637565927 7.834425747586601 8.07689435250957 0.4282342007930302 -0.5662494758289602 -0.30308524019680705
Ni 1.129848212452673 3.258462401863367 5.030601625783729 1.5243661837861424 0.06607683702441523 0.7702670258976282
Ni 5.978999834799353 2.9486842770392627 1.5498221356966064 -1.2331524982159408 -0.9946698244908675 -0.5279289829822069
Ni 7.3578850030320035 7.020060479373702 2.782803561759501 0.5900234383201065 -0.36721549501781275 0.8228800241076538
Ni 2.3885555262637785 5.269755739812697 6.27401708387934 0.4384283677172126 1.164515099553201 -2.1602493607528412
Ni 0.44919619467910665 3.418059547931668 2.418944483795232 1.8375795135558868 0.6764258742757512 -0.06512192931031366
Ni 9.21479912957986 7.107846718240258 8.710009883087773 -0.5785223796590423 -0.5517188863129531 0.37168330098117924
Ni 5.169135953887061 5.462488608316292 6.881895448759113 -0.839148165140058 1.874752008841126 0.21965088573055075
Ni 1.8460189319794467 7.547016761695111 10.501431580363189 -0.7263178740101879 0.34580849009694636 1.1319826741431345
Ni 9.229038211857295 3.33861465532828 7.241116260502817 -0.10415538906369158 0.23698423480267572 -0.04157602366957356
Ni 3.991150456831965 8.436941031025363 11.381042160872232 -0.5763389988544784 -1.6892330317972777 -0.33981447729704056
Ni 7.423026507825091 4.470998343076805 2.5816338073439096 0.23697369327971446 1.4605452326754396 1.1146120440751708
Ni 2.074625101317481 0.036107556704164816 6.227132838517331 1.3819944315537296 -0.3295822580460711 1.0906223660287928
Ni 6.524163769426488 2.6551111464973483 10.631676925280114 0.9536373320295899 -0.8419969474427629 -0.3891459765423169
Ni 2.4204694435746217 4.936019210743724 9.890568520107973 -0.24283992225250436 0.2167887336914073 -1.0085041592707986
Ni 0.6544576182859043 6.4998103454797285 2.5538556544468087 0.8728278167806903 -0.33846619079926227 1.8282669779057095
Ni 5.8188790579634295 0.43715176837333625 9.56703176720199 1.1796817799913102 -0.23075136651908645 0.30094196860155914
Ni 6.680123059635521 7.6273435587492315 6.4548975240252915 -0.7840473675111722 -1.1143281942861647 -0.5404199163603661
Ni 2.80085504348541 3.9817618490335533 2.142561140838824 0.768898941905508 -0.7135508041525066 0.5028681833588372
Ni 5.559470538382663 5.711323460992978 12.121815258623004 -1.6257846335346453 -0.18852459663939145 -1.1897779878850476
Ni 2.6502882315324108 8.158929839436981 1.4034021119629845 -1.7410117070314661 -0.13887505193306404 -0.26630406681271557
P 9.237122335989 5.346701903139014 0.8276857000208222 -2.0347527870092117 -0.11660621323253466 -0.49634992262434524
P 4.663299445859729 0.9008387555585234 3.0472876251843215 1.432575744045707 -0.6474659967082914 -1.21135725671772
P 7.847341973187938 0.8979468438805001 10.835038579715963 0.9115820547307525 -0.5533137416038988 0.18171065904135156
P 4.109775791960035 5.024714913575097 0.2482625334341796 0.20504676266413072 -0.7200850057265985 0.023947254844216823
P 6.393742962269885 8.120824217961628 0.5226524048717468 0.6640570682977531 -0.241383649421952 0.16527822451694116
P 9.066207416136313 1.2590012819613494 5.890204917717272 -0.7722046092399734 2.3054925209957777 0.7960330791181388
P 1.5838452744854488 2.5410055716792765 0.4814252091009923 0.20570470796310378 0.3996486758458537 0.29364954870520393
P 0.860006579489659 8.814083794778774 2.8311934752410397 0.06401069852400589 -0.7848071284953323 -1.6689439425309387
Ni 4.027675999499758 4.336370116769838 4.620854119566402 0.04971150829251439 1.1055620180577606 -0.5998085427313283
Ni 0.6415560910920793 5.134943783411828 12.07382863269758 -0.7401712349535123 -0.16306244781254498 -0.21013343315841876
Ni 8.832208768542245 5.95792599302875 6.4242954395849114 -0.6231081366892173 -0.13692178486143516 2.0860470664078137
Ni 4.866073163995089 0.9350300073832865 7.46159329183614 -0.5006426364624281 1.2705196260104894 0.7050911034209276
Ni 2.835185011531069 1.1780038700644864 1.8192806914138338 -0.5029103494506822 1.6166780432476868 -0.08968599180292297
Ni 6.0868402134153525 5.839328217414765 1.0715993421323324 -0.9610181978746933 -0.2549611309960706 0.25442891264168443
Ni 4.215650258571281 7.2822249503630045 0.06090744477910778 1.1821595521078416 -0.14963820398683905 0.22432309439523948
Ni 5.0308606852161315 7.021750796237603 4.653606764755909 -0.6558606485298898 0.07875983180872242 0.4372276625408921
Ni 5.141245725632681 3.2278437817145362 6.353035722664874 1.1990455292299027 -1.564528614937641 -0.05177661835165922
Ni 7.705878987387802 0.457218769229354 2.102212174916923 0.1525065266735696 -1.0954226156309135 0.06883820181963629
Ni 7.3559650235507235 4.50264585175149 11.226971616028516 1.3925734926211566 0.9379392045680427 1.3441063982587045
Ni 4.868902607441185 0.761108344543887 0.5036813540258568 0.9368434004007028 -1.0830738642575735 0.5658015896582642
Ni 2.734096713865981 1.321396021850597 12.273963068034034 -1.6437263056147304 -1.504940985181995 -0.4174000862920037
Ni 3.836109817092443 2.813789642096137 0.042208314472193274 0.4992555263069144 1.5528066985150226 1.8227308785788285
Ni 5.636058428025869 4.8052125703899256 9.21762673572502 -0.7291059782782863 -0.9167651415935888 0.5844922240892321
Ni 5.287044741648912 7.994601643450694 2.379078728020294 -1.2822335720133078 0.9860190907944052 -0.26999231429758014
Ni 3.404757489133136 0.34689987164661024 9.347522993463532 -0.8275316639470521 0.3331872017885101 -0.1806981586164372
Ni 1.4828580283720068 7.151969500290914 4.769142678355011 -0.07087760084716827 0.21660772802885275 0.5919183413499742
Ni 6.965318097895488 2.460201076381011 8.318897201644495 -1.0926082861105697 1.0263147050896584 -1.2439508743830252
Ni 7.626231991681122 0.8482478534799068 13.156060435364044 -0.5891515772381144 0.050424475199138966 0.22140463519686387
Ni 3.3852820991794834 3.9196518907898548 7.725929452535369 1.0973306312869038 -0.25632870076755854 1.0934014714358267
Ni 3.858938281259814 3.41011322137039 11.285203031989935 -0.02985924945327761 0.6102742181493425 -1.4926711666757067
Ni 1.1910395202268598 0.9271847323736551 10.312726075517935 -0.7585682494034613 -1.2037822725839398 0.520699040892671
Ni 8.884728015884239 2.728079553290678 9.661068503863103 -0.01793395877060137 0.5480023566933143 1.0179125970688923
P 1.3299210982076675 8.780580612155676 8.53091805540596 1.2191237880370165 1.0830352977101543 0.10197483647260502
P 7.078633633309779 8.846282493735167 8.049197040853786 0.31629813934265527 0.7510652561581969 0.04447057160854922
P 3.204344702704422 2.022657044257193 6.3077646275273285 0.050577455837235476 0.5201519101399493 0.16443875933478133
P 7.912373239924684 2.3952984207099957 2.82780549230948 -1.7994847635666942 -0.5607701978819438 0.7403720381104087
P 3.5182659411460246 7.2317726665774105 6.291092040156157 0.22132647366076075 0.5360055893427542 -0.4040946274323492
P 4.702902467600386 6.548103800661968 10.138017129226164 -1.397935014043386 0.38547855499305866 0.256299647301836
P 6.492387649686072 2.7102761071915373 12.763294183075645 -1.4235655701272967 -0.1630195103897515 0.4605869060921229
P 1.2135097107111206 5.2736232582893425 7.907926053001778 -1.6727923697427514 -0.6923150347021819 2.568458010353564
Ni 1.2215754618334351 1.1551662193924206 4.31013070340917 -0.1438010284797717 -0.920752408376111 -1.556138591101733
Ni 9.06527039265741 8.396373426291719 6.343099599186633 -0.3172381346584214 -0.10931199356396656 1.1407092553828548
Ni 6.395708874274641 8.479750142904619 11.843132533541409 -0.1218828882504417 -0.37441098432498743 -1.1370953127793513
Ni 0.04570377950868601 2.385275944087621 12.130124452119738 0.9401333840058842 0.2578741908778075 0.016354530098623445
Ni 2.0689110953971164 5.715843221302976 0.7826525353548799 1.28550890033047 1.423607736219142 -0.2866119251321322
Ni 4.975870268111149 1.2353460323714185 11.500813053135785 -0.35569078220766487 1.5202236223726786 1.7918023073207723
Ni 6.456642959917365 9.001313946969994 4.381243436254085 2.1275323301357942 -0.582780383604448 -2.128855934043224
Ni 8.031173118641963 3.516428640207001 0.46846396962664905 1.1755075940089625 0.5362341604137927 -0.09569465989084809
Ni 2.9099907192634222 5.796004661272584 12.013620280925771 1.0396497316356674 0.5794274079718149 -0.5217624491601788
Ni 8.023070621500867 4.878272842230206 8.896214821355017 0.44503327462824 0.37713018302836343 -0.7433496326814939
Ni 6.640630275951205 5.199901558111014 5.050540934224485 0.6307350571068556 0.9049642923039188 -1.307448894936671
Ni 8.851151341223579 0.9317044926836534 8.216699174212236 0.15163003760588722 -0.5563797821237322 -1.0154304540769867
Ni 3.2495423058044066 6.568543773608607 3.018810379279923 0.3566109800290891 -2.230438420173417 -0.4349540360153671
Ni 4.585131477408963 0.3613906641526908 5.259939959545964 -1.6939376363617986 0.12297149332893016 1.2592324831324444
Ni 6.85498817650711 1.1139555593301174 6.222426592162021 0.924003568323557 0.13558378277630198 0.32235771527317386
Ni 2.568298677128475 7.034951803484489 8.402877471615863 0.19557816105206316 -1.071310038853426 -1.199297754450025
Ni 2.027792300381764 2.322936323226544 8.46203672455149 -0.8619517932981349 -0.8413284606208283 -0.12885674846511355
Ni 3.0358642065959414 8.730394737006241 3.719986885843323 -0.4587673363848809 0.3317910927719318 0.07829626190874256
Ni 0.7363203989250477 0.5531819159250355 0.5435902863728619 0.5829107385347251 -0.05142437721856305 -0.07364719317250543
Ni 6.641098787690656 7.170912072972248 9.325592969455343 1.2120992770900676 -0.8763854522249617 0.6695669423723888
Ni 3.3111102602710933 2.188381588957138 4.012087419682611 -0.4991297993623275 0.8291136637221914 0.8350945638959746
Ni 7.927255377530778 3.1426481371720034 5.044046994055504 -0.10058078433855581 -1.2858236033574113 0.19054754060669118
Ni 8.864866792733393 7.6584031311234275 0.9198603321802367 -0.9656448980134273 0.5862883967577064 -0.19619342603855888
Ni 9.102383871625692 5.081322155506419 4.468208401600898 -0.6857754338114512 0.8969956722761455 -2.2277773284014857
P 1.6289510125384825 3.060888245385445 10.649801899043585 0.7926927018909962 0.2762372667660275 0.6194394295883784
P 7.128736829916958 4.369505839205132 6.890796253158214 0.3132518963171637 -1.0393512265586422 1.8075408011019514
P 8.39032870620233 6.300490753109733 10.710103953163285 0.5854347905081595 1.06450381456487 -0.5971646773505779
P 8.060827155797806 7.389973463932054 4.769304360837645 0.0929806033937947 -1.0528407764046448 -0.5306543523331699
P 5.44344498408331 5.28415099266995 3.2567794342032212 -0.1770014264911403 0.399475383492783 -1.4491629589804267
P 4.891326865401971 2.5471513433203112 9.346460114870306 -2.0762879301385206 -0.38989750999636075 -1.2346558222343447
P 2.146601365603737 8.101220216942243 12.668020024232097 -0.2673970427665782 0.15384967096502536 -0.2326007610229994
P 1.9979637196367133 5.047175917554663 4.061095584930131 0.24423320305560514 -0.1390095206283993 -1.3038673482329997
