# total energy = -340875.3850343152 ev
CRYSTAL
PRIMVEC
9.23937195361065 0.00000000000000 0.00000000000000

0.00000000000000 9.23937195361065 0.00000000000000

0.00000000000000 0.00000000000000 13.52275478413648

PRIMCOORD
 96 1
Ni 7.417340239182666 3.8069447014022595 5.834582202536568 0.0875136667419525 -0.21422174429517946 0.2556627850487855
Ni 4.603618803901104 3.750344307647384 13.28104956240357 0.3143713546335876 -0.6216027557882843 1.0611675511027854
Ni 7.60124070233922 8.949911854216337 4.215826648079766 -0.6429776219196346 -0.46357504218616935 0.7471067857310811
Ni 6.572796949605139 6.995147129057129 2.5197357009022543 1.1898250390728993 -1.621857016345465 -0.8564169795228348
Ni 2.2674989934933643 6.366407854649799 5.929795780356148 0.19034673744979477 1.3893621847727107 0.49045104064140693
Ni 5.12357371068357 7.772067453911845 0.7020379854382719 1.2313964347567823 1.6264065833893602 -2.640851790734942
Ni 5.489268060147818 4.394347024836798 8.012732771647439 0.6414922956233597 2.8111590930353585 1.2830486117154354
Ni 5.496770430328844 0.6995156368429272 3.65452462701515 -1.4397429512181075 -2.172768319155458 -0.22143111755942507
Ni 7.365645952036318 3.367464725995074 9.826350380372578 -0.010538180527162497 0.0392993118202549 -0.8570520420036722
Ni 7.241967716515135 2.633258018562621 0.7526928432184068 -0.649318476535998 -0.6892075994214517 -2.6119628756147337
Ni 6.358933202585207 2.5510553245963905 7.476960983691455 1.2210462018707102 -3.9429383929184354 -0.17879554227708563
Ni 1.9257808147431064 2.2152226259019363 6.725366701820984 -0.9638168436657532 -0.1833404813352907 -0.18373103190549
Ni 4.191108555782603 5.768297098900226 1.3547100055105132 -0.31402579836871075 -0.7494567740204964 0.5208512501998191
Ni 7.155524150734753 -0.08918303962111304 1.8982705841839909 0.415445019448162 1.6120392589240946 -0.012608947013262158
Ni 5.7487927843039905 9.051535708429506 6.658482886869703 -0.4679402611334006 1.062832340399718 -0.12327822593607157
Ni 6.412068831786037 6.832524939948481 6.687881645095077 1.037117195021801 -0.8933336500435262 -0.04415149770623364
Ni 5.201803474627829 1.7783111959508158 1.661270525377968 0.08591186947247141 0.49591849151388134 -1.3829462539440376
Ni 3.9452950598883048 1.2888184991275111 7.409131057032616 0.1994255598226114 -0.358838326697711 1.807521517828242
Ni 1.8271043202439106 8.942039909149548 6.729788665329159 0.5229857800443187 0.28218962769472045 0.18959828931954445
Ni 8.66473863298809 0.961569177154944 8.0118134541191 0.31501901551991557 -0.4630088852700542 0.20459476272837665
Ni 6.070831100387274 2.2760823702152515 12.051412013670788 0.574778596345894 -0.8101967722130304 -0.7384617084615734
Ni 0.8008586141429159 4.0985208075263815 5.807035938426091 -1.470661238063519 -0.5512211207409281 0.8319323641179092
Ni 6.7324348215112355 4.688639506371291 11.800145440337031 0.45824026023681724 -0.36849024796517826 0.4781177158870346
Ni 3.946801077547796 5.465984842344638 3.760110324003718 -0.5774494583098377 1.7660359969899455 -1.1309771156967554
P 8.883924258363036 7.633550786727206 2.698708806894349 -1.032512606370254 -0.06391608192767056 -0.012745986811758694
P 1.9350756231200905 5.758568040032468 13.360847247800688 0.30642613164458193 3.26997553749062 2.869800042607019
P 3.73658688252479 3.727800239615733 7.24154362933372 -2.046268243847979 -0.832779799719869 -0.5668606270503979
P 6.167317863688313 0.6401138654539544 13.531004144892863 -0.27951285219350575 -0.6365763463789811 -0.19344028877345396
P 8.730236542117753 3.2814369319611774 1.9346469162526034 1.843947878976076 0.8538119377998199 2.0076410183940845
P 1.8353181220800328 1.0740492936374544 4.694451071449942 -0.38492756758559515 1.0379402051437285 -0.5580576840467872
P 8.214134453519385 8.077253155204255 11.49850673401075 0.8704307773034236 -1.3783614627868326 1.1595209887727194
P 6.17626157592382 0.5794804857581705 8.864856042132002 -0.34932190256684353 0.18965922446446692 0.1316340540999346
Ni 1.0772183982828873 9.111138898131221 12.177551617931165 0.4063032050478938 -2.261992540830614 -0.43506459345130233
Ni 3.352312155678718 6.007744667387225 8.214505876279578 -0.2486786404214685 -0.7108336623316597 -0.32069755396193156
Ni 8.837320865268097 6.311276521065839 10.218158891264967 -1.2928997934779023 0.6560162002711476 -0.737907121509684
Ni 4.882333704000612 2.2624080994419544 9.508430976391143 1.0345473774120957 0.03203851649278353 0.2468672982443426
Ni 4.071597277098418 5.909086651632318 12.479109017782578 0.03851204003226916 0.10964083765829505 -0.13420952813659467
Ni 4.439878650763019 4.794458035537891 10.269883668339391 -0.8006860045091178 -0.4474835359409455 0.3516952878950266
Ni 2.9964946950365334 3.7591401899285857 5.032384803369969 -0.8869704268296595 0.40763246538227865 1.133225802521616
Ni 0.5753634215307508 8.566089856605327 9.884944630636156 -0.801928104446335 -0.3908159080455721 -0.1025070548269912
Ni 7.611634996001354 0.6447215403422268 10.742003573720108 -0.5953013988895941 1.203339014398934 -0.9298224889981794
Ni 4.558465992232792 5.567331515393485 6.047119175716606 -0.20861751073452459 -0.5319414465757096 0.1760622025063226
Ni 2.321410729954301 4.1932243720036055 12.303922206495145 2.436811872068771 -2.4341047575502532 -2.484919269098959
Ni 8.711776276573802 1.6129171951989334 5.184881564545875 0.6644684448035588 0.44760412067920974 0.8528274623993635
Ni 7.400191964483181 7.650070784120891 0.15249768511312045 0.7815446556939766 -1.1974928400308023 -1.372072030233695
Ni 8.325838462741789 5.51055557356787 1.5389708041806878 0.2770749321759744 1.134496955924556 -0.4819026368507636
Ni 3.2708486114840167 8.691375742879586 4.640414603465059 0.8335313331739127 -0.2970549748423271 0.41630222524213467
Ni 6.10303031230953 6.987783349458264 11.304536279154318 0.3443185358149812 0.917021480578769 0.8451604327724089
Ni 8.870268466334027 6.101866151419371 5.165516764469015 0.11601074574038084 2.8466747694434646 2.192919340182036
Ni 4.13783433599961 1.8048004758880063 5.192224093588806 -2.083613774375973 -1.7109233722865178 0.22307790913422867
Ni 2.931856047516274 8.102033151294783 13.55426334032847 -0.5159820950329759 -0.3778562625611106 0.6125277900702096
Ni 0.6006783772684238 7.099921609171442 7.619261173769111 -0.17460875788924768 -0.6931843246810127 0.8762478982058328
Ni 3.1041980561205342 1.665239759651082 2.6718527238830374 -0.03577972870277064 -0.9665481265539869 1.0275591190197206
Ni 0.4251340022790117 1.9440562928441747 10.269558442439916 0.2864610013765647 -0.8095874207638056 -1.230791454182932
Ni 2.9982778938603487 8.264941760939896 9.292796965668396 -0.06367954043683226 -0.14948342357652963 -0.12477537930688833
Ni 8.34575854908451 4.585417240777188 3.796527309309765 -0.6260325094248638 -2.2767100495464465 -2.3858927166214006
P 8.873206586675858 2.898622025913876 7.312998161684696 -0.4291024623305965 1.2686344931726345 -0.4294477614851572
P 6.227715639394422 1.7449108656498238 5.3364035719605765 2.1234003102452914 0.6552494973084522 0.6685762963243453
P 8.37886321947689 8.128300686300514 6.369244341898044 -0.36824959270928187 0.05364812434275922 -0.3192415382416953
P 4.43714379660836 7.867408535067013 2.5849555049303796 -1.3639733123859608 -0.07485098367261947 2.60404876297398
P 3.5730315168295874 7.704629276631917 11.581306291417489 0.13757613061598242 1.6750904217483087 -2.325379232617376
P 6.4657957808040925 5.456329698454033 4.763295481170205 0.06979388086468626 0.9996765336768396 -0.41058794846617674
P 6.349656872952511 5.5681445801421665 9.746931509233372 1.5739609639951346 -0.047515014861827846 -1.1200455563859162
P 3.8003939865520793 7.881138242073175 7.04703267120686 0.48928478824744764 -0.6345220349531137 -0.1694498393961275
Ni 5.183361687828167 3.618184328497899 4.422211123349034 2.7123613687391543 0.28439614842773603 -0.9807604134986272
Ni 2.2096235663826 6.104942862343363 10.311344426898911 0.08994695877379348 0.5549055115710507 0.8805843207976576
Ni 3.55821156391042 1.1242837599850317 13.12568674798856 0.5561021029823133 0.8806951353439091 0.47892632783125905
Ni 0.6881207191775847 4.3351780856258575 10.769183958693677 -1.2587576003785548 -1.1104813097362487 -0.3076854579729798
Ni 8.488026401359662 0.7054907388085292 13.313287579688833 -0.7573225499218182 0.3523995130509028 0.021230884354318275
Ni 9.518216395428981 0.9380642144203042 2.714706779761892 0.4378637534629943 -0.07201839931983081 -0.3786725878148188
Ni 2.560802862208437 3.0285553163766283 9.145222941970879 -0.2563209874580747 0.5417664030859315 -0.18928538606481596
Ni 2.1259610516175984 3.0142158108089547 0.893681966388812 2.2287240085854716 -0.7885120881507451 1.1703548461634294
Ni 7.864692159656642 5.356248819388931 8.09174603434952 0.4973729645722209 -0.26830567062377664 0.03530176062508759
Ni 5.301865874948644 7.546515901129601 9.029995036212707 -0.5930534833956819 -0.1768078224230955 -0.4957953356724558
Ni 1.4103809184276908 3.151632992708443 3.1414308779869065 -1.6655619134325834 0.7646931313542765 1.2080742150910742
Ni 2.923725400029449 1.0346895683035056 10.742584730227971 -1.3150755582439932 0.12516824386993283 -0.5284298338780254
Ni 7.262580755768666 2.0501058063143778 3.1087465990270844 0.6313863175376093 1.0766322223972877 0.7871020951770961
Ni 1.9300678834179776 5.451682294265541 2.032605511536201 -1.080701507370655 -1.8217718570996693 -0.3883998424049117
Ni 5.038756274400554 0.045336675173979754 11.009348502459062 0.7796469244506316 -0.01600074630363051 -0.2523540323905267
Ni 2.2073876383237234 7.504097943615948 2.88862317737951 0.5401818322076309 0.7299449292398138 0.5104665645313853
Ni 9.611903628970351 4.079894233283837 13.589827531585613 -2.37028714887366 0.117696618083236 -0.788131564882875
Ni 5.643149803208128 7.508403491035107 4.458181846980519 -1.3268910628216823 0.0957396541961706 1.5703696470994501
Ni 1.2719104481037726 2.0871094917515762 12.422949342078978 -0.38881558978609165 0.7925173526553964 0.18400716838501213
Ni 7.468637233326818 8.160666206921364 8.40567680137634 1.523477867643918 -0.6489132706777792 0.44932855956948425
Ni 6.1972996262959805 4.311395941726894 1.999772478684858 0.6992796389454732 0.4842917059082305 0.3910151685405717
Ni 0.0863419326867963 6.317106564888777 12.540894547184733 -0.968187976150255 0.06504171089168154 -0.9437552970291876
Ni 0.5681031228999017 8.4635328258056 4.583957419978418 1.0311195826774693 -0.5654570618346519 0.3800980074074357
Ni 0.8170709404442023 7.563959835737698 0.8693916570219219 -0.996792270150509 0.6031880007265225 0.46333387270964077
P 3.9322213483043753 2.8595025242556744 11.355625387425228 -0.26031339644691937 -0.1351142993390512 0.5802715011396652
P 1.5752113174787818 5.3433136983871625 4.296625881417304 -0.27431690981486306 0.01730043895166053 -2.765340492039347
P 1.6778792207442372 0.728425632281877 8.729533425897586 0.5622413831108317 1.6158424347202687 -0.35192977250333585
P 1.4878900113447087 0.6911660162362865 0.7750752222375361 0.5083688014620923 0.009305850781958168 -0.567326768053539
P 0.9196584611720038 5.1101211848417325 8.68430023169162 0.20462947262105402 0.18626151163682758 0.13886193930694152
P 6.076910607258105 5.591455516061779 0.15413120610820075 0.641546803010379 1.072733915784146 0.29891851041362716
P 8.361585593567387 2.936023004353272 11.73983359079186 -0.28511400043036705 -0.20769757002341646 1.0001388180252386
P 4.209882959979454 3.7008767091877686 2.334095463970963 -1.8409404596083196 -0.37424283417823934 -0.047781124039020934
