# total energy = -381176.9602779248 ev
CRYSTAL
PRIMVEC
9.12340548747276 0.00000000000000 0.00000000000000

0.00000000000000 9.12340548747276 0.00000000000000

0.00000000000000 0.00000000000000 13.35302613888370

PRIMCOORD
 96 1
Ni 6.052595005899348 4.975430999763645 7.131918522141709 0.4069986884530217 -0.3624422419988855 0.6195016502848815
Ni 7.85624667693926 8.611263231169659 2.221689765213852 0.667299743604767 -0.4385219558722835 0.403598147411905
Ni 6.019841979778135 2.416543812758818 9.951249744265493 -0.11128582946088576 0.9101833746110132 -0.5926801592166632
Ni 8.7675562925854 0.05030189680203623 13.347271434668356 -0.5715073817937899 1.7608544527890064 -0.3568009845527081
Ni 9.045199771950516 8.777975221786075 8.018118700882333 -1.5157784421171312 -0.7286650340861257 -2.068361733312909
Ni 0.7140898690278508 4.263887473240091 8.503821445064794 -0.07500524986229665 0.547847833393321 1.0518403601645885
Ni 5.787259000695101 1.488100441386873 12.261937418813556 -0.6458847682641006 -2.5811278925117485 -1.3719843556158953
Ni 8.439588107904235 2.6278966269994943 10.427004326976485 0.7252061290032478 -1.12628742353057 -0.3234031258185527
Ni 1.4255959895884238 3.42689711965061 2.725059072009438 -1.0403842958088472 -1.6626290560565042 -2.075576763004109
Ni 0.9998705138518831 0.8189460819843181 3.163505312180744 0.11155425263092399 -0.2963227246619929 -0.6338255231067212
Ni 3.6256505107510653 1.3308038053546056 6.353677426603743 -0.4476470581020033 -0.9109403073816956 0.5545365582674062
Ni 1.2325629738021748 1.4365075826917584 11.942399260911222 -0.4121565785048773 0.2533097114355767 0.13410231313476903
Ni 5.476004895081921 0.12495416316326981 10.021552883174918 0.9792403773096747 -0.9923278066212522 0.46927312101221114
Ni 1.5200141141924453 4.60788548156888 4.560966543565102 0.41023802132592574 0.7029028375203572 2.210510570901238
Ni 3.038139683424698 6.174876011220413 10.428046219896553 -0.7625953682849834 -0.044410150684259 -0.6264631692043792
Ni 3.634719175922231 1.268089515227246 9.01238470667119 0.3749354893698898 0.8100641032899082 -2.693765865125154
Ni 5.822000929238159 2.767311388046364 0.7996856604120357 1.2506236584175106 -0.5504865565677487 0.5229490132691123
Ni 4.990584976473207 4.776376536278231 9.756776142734246 0.20129218071770497 -0.4567148247312263 -0.12813812513153416
Ni 4.81129180952778 8.620979658138767 7.530532885783041 0.1698383330837978 0.9505116419164145 -0.13397504352828538
Ni 4.091865660561685 0.6093513480036853 0.5490620590860802 0.5544756231224837 -1.2067812073112636 -0.1322205227310239
Ni 6.64148346747204 1.1209837232555344 8.030884170004562 1.2117588630315133 -0.8598118641369967 0.3302844263194183
Ni 2.946942120999169 5.111698185876859 2.6137079066029174 0.13444092742111038 0.943690248119207 0.679278770343514
Ni 9.02840358223209 7.46450588708058 11.698199449471602 1.3947710144931074 -0.3236412099712878 -1.835226182832362
Ni 7.956640632214422 2.2587453894182863 12.66860318790112 1.3586400730985053 -0.0458067739214695 1.0809889567040867
P 7.381802215273115 3.4859073071024227 7.97962157859234 0.2069766326969919 -0.7057248803501845 0.3079124863821213
Ni 5.2980346219491885 4.991652414928969 4.0088326338118865 -1.3063448632392147 0.9397070951017429 0.18301986477107834
P 1.7537466423816837 0.7302236994993699 7.316630079675823 0.7687901842417856 -0.9114344734092948 0.4475881798396098
Ni 8.267484184575386 8.554880584532027 5.568879339457611 -0.11087985227171872 0.8336094947100159 -0.8200916627292392
P 8.542810318916885 6.9634028342372245 3.682270365934422 0.2150828067438941 1.6033574148793808 1.0375725373916647
P 4.996569930549953 2.424946469320833 4.839016926820191 -0.49668699424878976 0.7081435170940062 -0.8842226888811933
P 1.9487776839953823 5.2387507323292315 6.9471385390655565 0.3662107079023822 0.14268722659030264 -0.9995785746463947
Ni 0.19717321724970463 1.8917472755598101 8.165535600985168 -0.23510732949493704 1.089443515229343 2.2824940032180754
Ni 7.4129586454134895 1.1405351814666098 3.9106337699252385 1.2947754132340605 0.6562923367506698 -0.0453732859284767
Ni 2.2392121780184207 4.171339646785053 11.397702751407037 -0.19687502548661578 -0.42991673070177566 0.8751315252132024
Ni 4.5025557638615235 7.0889591421704115 2.8028671243693704 -0.5073429313007392 -0.5642725546082475 1.423250095769407
Ni 2.9846947733918103 4.500457380572421 0.28941084791418026 -1.776383915883173 0.13626923887910078 1.67983616396341
Ni 1.6838522320433507 0.17141328152456647 5.125438947058241 -0.7478318368225636 0.3520727258391033 2.3081379290384247
Ni 1.326999345217406 6.065705339753438 12.913551118600333 1.425677217153661 -0.365548391728035 -0.23808800938981578
Ni 8.49452925645631 4.222832148018515 1.1848183675911628 -0.8686955397798716 -0.362243238614202 0.4061414826590489
Ni 1.8642037140389347 2.5065279622389087 9.837761877266328 -1.091320420537082 -0.5353386451827168 -0.3433327748629442
Ni 8.093765418454488 6.175350428311863 7.845570467700529 -0.42106519384841673 0.382815920559231 0.3383142386024302
Ni 6.809518351901151 3.8088211250785307 5.214383028299385 -0.7714692737358456 -1.605735428193254 1.773725138104087
Ni 1.2087508851736604 7.9837918872942915 0.9684960343175543 1.913953361630936 -0.3058815719950216 1.3495535374162047
Ni 5.35112371916349 7.116365852607215 5.83278844402527 -1.7400745399291775 0.11152494205488535 1.2176549168009738
Ni 6.855272231009197 6.061545066797652 2.555142029004058 -0.23126995802671782 0.20344933627002382 -1.2693767706552979
Ni 6.317921887697992 7.999265183200023 4.111624220079989 1.1267206544132466 0.11428450707789352 -2.3411907457283356
Ni 1.2929325486891023 8.834540336535804 9.69321520056676 0.49763727397720103 2.162350466256244 2.6077750627856315
Ni 6.8907166617838245 8.24827029237169 12.208845584577572 -1.0672636366981942 1.1208258861953664 -0.3133891932259764
Ni 6.2766202305250856 3.6696435725773857 11.900871343279317 -0.29037319194677735 2.373643209830086 -0.08074472344923513
Ni 4.908428709002031 4.74749183413345 1.508237622237776 1.5515468579659923 1.3197557373284818 -0.16038695786291088
Ni 5.78019748475699 7.021400323666906 8.91863350301688 -1.9954753295658278 -1.745701656307968 -0.7489764919499682
Ni 4.425681948235522 5.408710655340954 12.076076312173235 0.6740316630119616 -0.07554698129837957 0.9856645356684638
Ni 1.7118975808724899 7.433084878177667 3.8315977071709004 -0.7049100977583731 0.1698995253390364 -1.253821339419202
Ni 4.111116046387802 6.050533116232665 7.401168468350413 -2.0970611581301304 0.30749519633904465 1.6587896277057559
Ni 6.440202893019057 3.1879642502666385 3.127331921298293 -0.41158425094117507 -0.6644383628965718 -1.929575127328593
Ni 0.47816681115290116 6.762788268393392 6.126302087439925 1.0459137102675085 -0.8525562110158479 -0.956953026666384
P 7.072911071711577 8.133680317975466 7.307711038356576 -1.1430803267181926 -0.7460027540336249 0.2359758481428194
Ni 4.242246755145517 7.816350024229493 11.731795478270698 0.8487939157599382 -0.7930999646317438 0.5819599445856817
P 0.9897344102249561 3.361683016387537 -0.08193639339610177 0.28534848503867627 -0.6042974317406172 0.20703525384906923
Ni 3.6963751509994345 2.568676601218771 12.743327529166633 -0.24090928088869482 0.4355088800775726 -0.5573848263494788
P 2.0811491759153506 8.30272790042671 12.204679837578425 -0.3457280145679981 0.10658302466857775 0.2448780357284557
P 0.8865404817696824 5.4880934075082735 10.414705976221223 -1.2344442204441708 0.9284649465290203 -0.33976434078539547
P -0.04232986498456651 2.6189556895067954 4.309796450243419 0.20776904669130025 0.1844141740154437 -0.10518254477662531
Ni 5.9633042352452215 0.6529530157295602 5.517550147184475 -0.4839782884328696 0.3376010145854895 1.9389701953902478
Ni 3.9250168188611974 4.095560639831627 5.964930026123996 -0.3952993977382224 -0.08741442215992687 -1.1957159506360373
Ni 1.3632740059020703 7.000042431146081 8.43887192056426 0.5286334652483993 -2.8873704473906145 0.3448687518914964
Ni 3.328546807230922 6.216533481211906 4.818720086371203 0.5934466050690423 -0.7327042371525059 0.7829417931518193
Ni 7.745625383981123 4.701984286976733 9.846454658126575 -0.24942683144140268 0.7157686377394319 -0.7213474173787899
Ni 0.544337047323357 5.875701294627982 2.255352394873863 1.684886067682492 0.25676475986371267 -0.44777047105374496
Ni 8.577333285725429 2.0016386960695636 1.9295656164728054 -1.0207881188444743 -0.26530467901392374 -0.9588831538095616
Ni 3.2215292594866782 3.8576313450641826 8.273562197389301 0.07097221744350359 0.20776364737466152 0.8054867683318709
Ni 7.587224815870675 7.741994268550414 9.734088970016803 2.4711186157704406 1.189096388436991 0.6105485548566517
Ni 6.572410163638138 6.183342531621664 11.212108960550937 -0.5600903982061 -0.6232832288145007 1.0450086819547357
Ni 3.4603252777865783 8.12265012059927 9.411653218494386 0.5452615607233835 -0.8198034420648591 -0.7926633913149574
Ni 4.003770056041787 8.739173377748884 4.736772744888376 -0.6308386725642555 -0.3688365755610035 -1.5491356774213385
Ni 3.783804746910183 2.5453115594648916 1.9389663736079863 -0.9420213450572164 0.9044762969239069 0.6400576200593623
Ni 3.6217274463410036 7.227908609531436 0.6453194622600285 -2.4467299025134315 -1.0849160596726346 -0.7456543695552706
Ni 1.7692473085042302 1.1708340114801332 0.9052790445413704 -0.0024649166007247873 1.2698603951599357 0.28551072164815344
Ni 8.51521201696238 4.792087040729688 12.26872067088072 0.23785301056087424 -0.1588664074533264 -1.5063828598348443
Ni 8.337223497018437 4.82487656047332 3.8759693903298205 0.6557318362615094 -2.204239650290862 -0.42114078428135854
Ni 2.7363739196405046 7.801506243310492 6.548217628995904 -0.14764174238210057 0.41687866657089495 0.861156293980033
Ni 7.22732471157273 6.201233530012666 5.38683820274402 2.1168223999174574 -0.49549451660258537 0.04507786617524495
Ni 5.038418992059147 2.6318470616263703 7.425550769829227 1.7654922086713336 0.8060657807637923 0.44614836206928965
Ni 1.7292594217384143 2.8700774287787723 6.641127654653452 -0.30045371611123095 0.37393301624730435 -0.924419058594421
Ni 8.127713610709929 1.9498542458567483 6.328800636541149 -0.40745840169825964 -0.5790330007468738 -2.2821034526478763
Ni 3.4463938374280567 0.7317053405695887 11.183453255886837 -0.756024142825369 0.07781392295568534 1.0121240154115732
Ni 8.751252766769632 4.244007572427243 6.36259646792299 0.7709352556092465 0.9944651646792292 -0.0374584019567742
Ni 8.372950753366814 6.845911616858677 0.4824785326417272 -1.9819644395635867 -1.079547853382186 0.536758922569011
P 6.7191145257632385 5.309101312947805 0.2209643220453281 -0.8679764022256601 0.2533251380545444 -0.21819332734841776
Ni 5.219518593314325 0.714213947344076 2.742056888991731 0.235751133726523 -0.05076231815453194 0.12752183170377393
P 3.0997044244458536 8.71642872757613 2.3270988565499695 -0.5118549602384798 0.591576127519207 0.0515030529752984
Ni 2.690656534154878 2.187920391708264 4.415979206374823 0.7576915032254629 0.8602762053679248 -1.0976785015446258
P 3.9083027397932133 2.8609722699851874 10.573179531576507 0.7494616591165028 0.8620165850977992 -0.2607558833009767
P 6.745079738114485 0.6105656732896835 0.7334698072135559 -0.6134505589947952 0.5339523063581515 -0.005145291646365332
P 7.655550000444984 0.5706005950378799 10.580350528381876 -0.24358528505896115 0.9119939454571907 0.5936468940053066
Ni 5.714262632451138 7.658350885965656 0.9873559383837861 2.61187083012156 0.46664288247821567 -0.8123019914814914
