# total energy = -340892.65813479404 ev
CRYSTAL
PRIMVEC
9.02851765972873 0.00000000000000 0.00000000000000
0.00000000000000 9.02851765972873 0.00000000000000
0.00000000000000 0.00000000000000 13.21414821156741
PRIMCOORD
 96 1
Ni 6.316513553054947 2.0084569800547505 11.52375452025347 1.193867584573389 -0.13578869969825647 -1.4529836182780977
Ni 4.743023474145576 0.4369522722054678 6.045552385960591 -1.3273070673131786 -1.3318939153529126 -0.07628437368503636
Ni 2.755160543149767 1.729087554350753 4.783601244461449 0.7979958592714644 -1.3521696348828132 0.3418875577759854
Ni 3.403660918338557 4.202603485315658 4.829269293102368 -0.8574402785810266 -0.6622284997294466 1.6333727302945482
Ni 5.047076867463404 4.721752286253044 2.838795314764233 0.8449267194950482 -1.1755849842141173 -1.701320044868799
Ni 7.327301261250372 6.147589985368498 2.5288842191099565 0.12331602115254246 -0.9784075969957343 0.5270527510248407
Ni 5.1613508170201845 4.6689174001974 11.430119762344534 -0.4523963998615306 -0.48589658850150513 0.5312143386016981
Ni 5.486223972341483 7.753970954554819 12.245710013258408 0.7887979948222803 1.1245940949885471 1.0861483894178392
Ni 1.7072024272490989 6.759181779867699 0.38931420098468855 0.009851438872783034 -1.1491699845556984 -0.4434870131870427
Ni 2.700854008695786 1.4620239983825456 0.041319914477488104 -0.3040612309568312 0.3415486863793279 2.1229814775403177
Ni 0.5056132470797957 0.029229826316669084 4.881160699049876 -0.6120194829752234 0.31529772310259896 -0.707271141791382
Ni 8.578139200212622 2.33080215039731 1.436615943642663 0.6382974428351459 0.6987235093316869 0.05908806441140791
Ni 6.7568163082090225 0.7627598791171215 4.834554587411488 0.8054731414851161 0.19169630949915373 -0.7845459044141456
Ni 0.9355711265601597 7.313695284954087 2.586404905894049 -0.6902159860813081 -0.26837791862260874 0.6533399389905651
Ni 7.751117942935957 3.80755166128101 3.728596370432546 -0.18775326569100567 -0.4272085877419933 -1.0336973707069745
Ni 7.477924023394307 4.132478987708995 12.519453769532936 0.33049705655085665 -1.5809512792700384 0.3122491660842623
Ni 8.002742733498295 8.892719845263342 6.814391166099801 -0.22820854549257472 0.26884688783922733 0.558198837610342
Ni 6.852997108132258 0.8509684978395484 0.505369477099703 -0.208882334360137 -1.6870049137977072 -0.6760214397484808
Ni 1.9012162458495316 6.498537500041932 9.12463357580574 0.7289841079884414 -0.05539158939642718 0.49467664868698036
Ni 0.10325735216014857 5.00789310029295 1.3110057871597935 0.015626136573031153 -1.1714241679682085 0.14437746980853197
Ni 6.359985866171476 2.007662470490004 6.978154033022511 -0.01469539722864566 0.1292321295266613 -0.22494504424995454
Ni 3.3331301374317404 3.79099335967027 0.026117696237485815 -0.9654574645929695 1.3904039957736634 0.7637953021303556
Ni 5.957837627160797 5.5711732961448925 4.785463827679712 -0.4052323405812182 0.2317978055057298 -0.1903498227735883
Ni 5.48038252133704 3.043486258492725 8.98285876108739 -0.5662800719565795 -0.2978903262594289 1.1588077647557784
P 0.1524727054373053 5.61358024416324 12.394831332895329 0.6887514857206396 0.49748249356689156 0.02669859233710886
P 3.973604160313034 5.860203235874786 12.956763571042538 -1.128892722363901 0.7742074986026151 -1.0717288715583995
P 2.3942094307747515 8.521458165582182 1.5014181300173017 0.6699106988650527 0.10099010396183251 -0.924745331585588
P 6.464716672433519 7.802553408735513 5.767341319087923 -1.7656307911317268 0.16101739235805818 0.7394230439335782
P 4.777006815074053 0.8863991101683529 12.731594143282704 0.024243188818080828 -0.010639996212349418 -1.277873238162083
P 4.052152265009566 6.013363011515241 8.094194395807731 -0.6995424056885564 1.1390655491318447 0.3937143126392897
P 4.793899171842698 1.0284836030465974 3.7811757494349814 -1.3874163739002494 -1.1513479660436234 -0.15416514532291514
P 0.3033581974486737 5.382432131928687 3.503929831113125 0.2594063112516178 0.6060267557268981 0.6562522275413536
Ni 1.4820943934101767 0.9765876828401991 2.71529602573861 -0.2490591636893388 1.0807542149854612 -0.2925115784460188
Ni 1.823345279986591 6.425605133405314 4.782319194936517 -1.1501457182054062 0.03273374278759524 -0.09401675796779292
Ni 5.873466128495384 5.630165631327323 9.267545080912743 0.20805109670809332 1.4636902060623243 -0.2626901242092121
Ni 8.600430610614431 2.196493919884022 10.211774556025082 0.10458373485036182 1.315226996220193 0.18527009425783575
Ni 2.1270014185220445 5.353721445384438 7.070521187034964 0.41881445014102714 -1.819820389800253 -0.6601232804609857
Ni 0.4407767523375886 9.169182088241788 8.992175288585821 1.6156007510231079 -0.20175240818357512 0.7149996207838912
Ni 1.331065347966087 0.854121256248747 11.37253226452886 -0.19921910023876013 0.9621638814433622 -0.33504430960190684
Ni 3.8632847015444227 6.722002343644675 1.7859717306312701 0.5330511347001207 0.8042981473404084 -0.09316289460792987
Ni 5.698719166840054 7.83065015607064 7.902430483838376 -0.7141308450256927 -0.013065574934706529 -0.04535374554445092
Ni 5.242147022644239 2.8650737186182242 4.710778122889983 0.8281795819436963 0.3747997351229739 0.5161402178773951
Ni 0.7838974449464916 7.4358421020160845 7.004410768433828 0.3362689260376273 0.18341041534127767 -0.4900628040640528
Ni 5.369124096719183 4.590035240342964 7.116677678487846 -0.9348263699706739 -0.9050789635049121 -0.5659908228509349
Ni 8.055911674711844 7.406246620729276 8.933675910474246 -0.6752796764864499 -1.4585138040677073 -0.30847092998875264
Ni 4.6346090326288 0.18960970762675855 10.213201964686293 -0.5402381393668632 0.15860929713719782 1.0677894272946773
Ni 8.14576348367045 7.110418207110133 4.7678898178185865 1.330564655018528 -0.476378878819057 -1.2156821093453192
Ni 7.228186193048242 6.014617975486829 6.656468847329758 0.7378631556456261 0.34685467197327363 3.1258891165599456
Ni 2.508221553315878 4.951988518191695 2.7280217215512264 -1.338702967854946 0.2638728316634036 -1.5473461896210836
Ni 2.184811017875136 5.247934302541993 11.540021200739876 0.9464012192924667 0.4330568189926542 -0.002532793724182735
Ni 1.2681636645843932 3.2238399296901865 3.7733922642558 -1.6199428300418874 0.4302527738849558 0.06622390412524079
Ni 3.620309231016485 2.6911122380098598 2.600121932959042 0.18626716806378243 -0.4323518225058296 -0.4973511101953499
Ni 1.312881913154729 3.30784125912657 8.49018247713629 -0.7316295160310884 0.5176728524718375 -0.7311800871984955
Ni 3.8081746290079135 2.612880131435671 6.952677361547491 -0.2568964003455705 0.769490809853236 -0.3632693658858711
Ni 3.7000129859890114 6.822715459494079 6.084692816245695 1.7219683172467697 1.281644018058425 0.6359070882260984
Ni 0.48152967589841666 7.320638215127838 10.913710213701968 1.7457484503855032 -0.6039878709199985 0.5617410464356454
P 0.1581570602323554 5.596561488145658 8.025652597368115 -0.6690478366441251 -0.349352755804779 0.28788076454222683
P 8.50384352739104 1.6802974442610914 7.935465830399825 0.110380544037797 0.35905378514262676 0.9989280855465893
P 1.998137384230827 3.103507844702213 10.603098505067868 -0.7193553266494256 0.27245543112609205 0.0038389141301159693
P 3.8734056699771595 6.0428501505886745 4.064301941387741 0.8221110071521133 2.1500063428685943 -1.4834316503553098
P 6.946920778610191 4.063347627058267 10.255619746925976 0.9770544254019494 -0.918600909250747 0.7583980423741842
P 6.295982703620474 7.814534251831179 10.16181254432742 0.4576563627088892 -0.8303272244143184 0.24628031539262102
P 2.3259267507954564 8.58409802194822 5.748682984241273 0.8980500816825889 0.1367379509854032 1.6879060854557384
P 6.844528358453482 3.8540575563720254 1.5198381119945272 0.08782297045225519 1.0506142010669712 0.4527594396279041
Ni 5.370803401026488 2.8751134303909303 0.2813150712858482 0.1930674788150675 0.24525341679000343 0.8233767612384142
Ni 1.5344236824700728 1.2595053160322123 6.961794358802957 -0.007061791942787837 -0.10151538033768323 0.3768926130962606
Ni 6.887765930107699 0.7518344697500786 9.198725204125465 -0.36509587757164863 -0.16011236404528553 -0.0311370877244367
Ni 3.025582707732585 1.7724605537716884 9.070759507353477 -1.1130773525981992 0.37236335776733936 1.4151871162556142
Ni 6.334146248281651 1.8291957595088155 2.5518636025666934 0.8379973393650665 1.184780534670456 0.32808921844031236
Ni 4.01340186669261 6.8605991201040375 10.699601623075893 -0.5204126200005037 -1.1142276641525586 -0.9083594340283969
Ni 8.138766382390012 7.32117089767693 0.18923050987994772 -0.9898934861481468 -1.3194495189419728 0.15701675583909733
Ni 7.762051477969003 3.7228822215288178 8.118085659560371 0.2463821310778079 1.118111572587997 -0.02941239172384612
Ni 2.913439488372169 8.399437747769122 12.40392305030101 1.4522212861907764 -1.005405465740817 -0.31359051060350507
Ni 0.23023171767975906 4.847979993352149 10.184513849436497 -0.9288580682023809 -0.6164865176076415 -0.39963504899909885
Ni 8.491402229888534 2.2181533340411463 5.881921335397488 0.9578092040190924 1.324602266787506 -1.4703527056841645
Ni 3.9380588858084082 2.509566802465278 11.350490944069593 -0.16912742305970227 -0.3071033602172647 -0.6851413997718782
Ni 0.8726188834788913 3.4716005146421662 12.577662429371955 -0.2343542533789964 -1.2126155546048536 -0.31112096601709
Ni 3.057832573247069 8.619941237539626 8.175844699213886 0.15742196169731598 -1.3059540555586995 -1.3871551498190626
Ni 5.690981727101557 7.723057309671955 3.7533471490779564 -1.1262120902079442 0.6484052206931091 -0.9419943484740227
Ni 3.0709239240298243 8.336815948438646 3.76435381510503 1.301936449758874 0.02361275432293353 -0.6940975805239014
Ni 3.454265760502242 4.462660911485646 9.460233513102894 0.09559721508103536 -0.6133230322779953 0.033638256879735616
Ni 7.381373054242042 6.158532548919325 11.33150216547215 -1.2621776818036974 0.5834442424406919 -1.1614791409403546
Ni 0.31921408037603566 9.03890057665892 0.7086005095029739 1.4118225706587557 1.622163234731974 -0.41615567236194134
Ni 4.658958945084725 0.16634502300813525 1.6143594703495767 -0.6120063703491009 -0.11837796042097677 0.34292962588725456
Ni 6.043698831260109 5.813724426337114 0.328830354664803 -0.03348476202100685 -0.6966874527382647 1.0395476588401644
Ni 8.02903377727718 8.823137058723551 11.491340335715368 -1.8982274662552467 0.23596530661985812 -0.7099011232150613
Ni 0.032084643639087855 4.900995449763417 5.765372199359842 0.5948681680069174 -1.2875598693222277 -0.2923503702778062
Ni 7.9116630461214426 8.615002638313305 2.7760155163725857 -0.10985295366910112 0.9529001967532492 -0.3565857832181084
P 8.523182612478394 1.6216120786832229 3.6174390652138384 -0.279685373215628 -0.5130829191083099 -0.1764211285076381
P 1.7313898263849616 3.088746218129934 1.4082718149203306 0.37780741160104614 -0.0698707568492087 0.7551594808322285
P 4.789872452912277 1.0335486015218565 8.238122512016899 1.3262948239985803 0.02860326555898945 -1.1080055945022464
P 8.447984087878691 1.617278390148242 12.386876305878305 0.019130550181863826 1.045287389537419 1.0624538740143765
P 6.329641017908828 7.712403658690126 1.4406589139050892 -0.19235271213623 0.5841870341439874 -0.013154535104087024
P 1.7337643265614202 3.281622443489934 6.106905678542808 0.45785485187294045 0.2389488147282143 -0.181929459920377
P 6.94311074410652 3.912228296436365 5.747388294791448 0.24224471187066665 -0.3848558338073953 1.105674889486541
P 2.3971075849825203 8.352182485702267 10.209422627143077 -0.21705381442733584 0.19027551789222716 0.3424223472335328
