# total energy = -340870.8790171777 ev
CRYSTAL
PRIMVEC
9.24556780228074 0.00000000000000 0.00000000000000
0.00000000000000 9.24556780228074 0.00000000000000
0.00000000000000 0.00000000000000 13.53182303495307
PRIMCOORD
 96 1
Ni 5.549041834991075 4.5627893863020015 10.002236110287756 -0.29743164145545553 0.9996274256064591 -0.5238355296391236
Ni 1.3926691158820304 7.6140578832844765 12.221076216593113 1.116934007340128 -1.0825935821870454 -0.08471733494373797
Ni 2.256371564033258 3.9125486063829724 7.402231755987407 -0.27055667144148243 -1.8158855735222208 0.21221474116747968
Ni 2.0517579041386464 7.685581595405244 9.911776550856422 0.3782465560209937 -0.8183939633118421 0.5175676943525409
Ni 0.07657918856694626 8.960388213599122 4.617437163607097 -0.4489711762300655 -1.113150886148612 0.1636075216827376
Ni 5.4088143089135565 3.4733748926486663 3.7909268608473146 2.4264032751409372 -1.0563048236938453 2.6476423312942146
Ni 8.904221389512557 8.093311133218826 10.663279411566908 -0.263121812429992 0.3392164387017255 1.7724647833344251
Ni 1.6205816065088465 8.12771389081983 6.489848619957499 -0.5931442433372752 -0.3574249912899522 -0.1087355522352063
Ni 9.142701564078623 2.3433631110012394 7.9515423709972355 -0.5058786880503868 0.6160193481632359 -1.1735242450303467
Ni 6.429534234177891 1.5018130431811083 0.6633787316930219 -1.4023588541426946 -1.122806149850189 1.379865558136185
Ni 8.571944930113865 1.1518313215394913 1.411422825507905 0.8725624789344456 -0.06987589905553128 0.25595897613296564
Ni 4.82528954588484 2.170378538382371 7.0601744104650646 -0.98260980800254 1.2331077610209344 -0.5469209507036774
Ni 4.937706404167728 5.632076278961682 13.499386904964572 1.937719610812598 -0.3606933776285788 1.6910091498610942
Ni 8.459805438863505 6.201261166408791 0.7492127335785939 -1.4352846583364378 -0.17500085112134378 -0.843483045069986
Ni 5.786144419962261 0.5415156768390657 12.215122070961549 -1.2597500461988111 -0.1639091120835564 -1.3166156490376035
Ni 6.715952677532243 8.290121533931698 0.5788751670068008 1.366731334747072 0.5591563164276048 0.8991875377211418
Ni 3.413972119849295 8.182604826556775 2.2331836801140637 -0.7902223859736326 -0.029585169856284534 0.7787953750836136
Ni 5.721647339332158 0.6337439133811427 4.871442495540433 1.3853062695357818 0.24145821141362933 0.12010137086998672
Ni 6.418624464231859 5.141423243990505 2.29866448915286 0.9393224580688145 0.8363250938689661 0.23969572019656782
Ni 8.16637885515399 0.9552335688848884 12.370007520151306 0.6781680537778385 -0.14176625743793006 -0.14991691156952244
Ni 1.9015544104579334 1.9270721774503483 9.052668225320604 1.492200140576559 -0.4823379246159693 0.45610855860579513
Ni 4.577323418806377 7.900827658213362 0.16265542432759117 -1.2990208187739758 -0.27631774229497574 -0.636240303195801
Ni 8.245409968288469 7.98810581778162 2.3150245212880325 0.9004293805480428 0.1278373060616637 1.8201605467484914
Ni 2.0794576251202677 6.689131285486956 3.753755055704922 -0.9414281915579076 0.6404227167082648 -0.7978405646405227
P 8.34763821090989 6.939861837322931 4.574784585901987 1.1520938430707126 0.6610452780546228 -0.39349294065710294
P 7.643477279867759 3.953321560164331 9.314819826999233 -0.24789702506043756 -2.0373830255432073 -1.3998378874930537
P 0.23907651368599747 3.6075095895783584 5.726531772774945 0.5108123779065783 -2.7903007615291107 0.5076416934880805
P 2.7853937051705664 6.384360390147117 5.707993484877666 1.2813015471173417 -0.2815460805734506 -0.35953175322030984
P 7.250420458074817 0.8164538987171565 10.215646927897325 -0.05908832152172404 -0.47649252157878585 0.2706883119233403
P 8.198645886604544 3.278672481382993 2.418637749958537 0.16568754414021789 0.7590050798305638 0.46653361059386106
P 7.13525766616992 5.4013531357386 12.597301482295588 -0.9652965135350731 0.06610614760045389 0.21125854790179746
P 8.87150132524221 8.237255377532195 13.15753296193275 -1.0156001468856315 -0.1253461642086938 0.893349847993442
Ni 9.051383091403233 2.380243680759479 10.305186553337448 -0.37162056606404387 -0.9690924902423955 0.47561423273889053
Ni 8.242016844923896 1.6807055335927858 3.9293302364075857 -2.510930862671372 0.39537601661242877 -0.2070810194853401
Ni 7.929655338460589 7.372591390334877 6.948942833967839 1.8749209303188226 1.5995282709412777 -1.2792608625382291
Ni 6.327472411775983 6.159452709039335 7.842733133250739 0.8680748754767372 -0.17840936258226048 1.2082302810529644
Ni 0.9280793364005689 4.351981196014304 9.296944446309693 -1.7468270281616627 0.44745885335059715 0.2247810078682645
Ni 7.10979537258401 7.825642701263247 9.322126599192751 0.059927529593567765 1.429290902646848 -0.4780626942793832
Ni 4.560404029822275 5.147340407351065 7.344423843625062 -2.3233791714682117 -2.482995569713685 -0.41921374246197485
Ni 1.162639390240264 1.9203044218567078 4.2280184727241235 1.6856892803100776 1.5263521038679195 1.622448884293193
Ni 3.0952866450443897 5.318420393013253 9.641518435373824 1.6726471024141387 0.43376850034769815 0.10219466579289496
Ni 2.4610406973343744 9.227298508999128 4.485325396901296 1.307799079187238 -0.5782305594502364 -0.5694630976702515
Ni 9.152252235565276 4.716182600856767 12.494446390180654 1.2512666913181483 -1.1273441469298584 -0.33652089414743336
Ni 3.253829640836392 3.298531960911872 3.1866763085914624 -1.1429705406132058 -0.6482059601981095 -0.45866063560368747
Ni 7.183306881771217 3.2348669813793474 11.446663763552735 -1.2051639834228147 0.4356209801754046 0.8806334288680382
Ni 4.993623597925018 3.40492995458894 1.7302063033309698 -0.5078851769574544 0.3331812882512391 -4.94310009376181
Ni 0.6009369407739382 5.628442770835588 5.851701967213389 -0.09702674843871031 2.2803810706401304 -0.8572705857723817
Ni 8.086672815573698 4.718262853600713 7.2153030180866695 -0.37674374622322215 -0.5543396117652517 0.6918020996215053
Ni 7.274542144336849 2.6580914828087705 6.418035521566129 -0.5768172240424776 -1.3455719270606374 -0.42934028937301544
Ni 0.4233628683235355 9.20472083255149 8.814683613185984 -0.5565479322704802 0.6080746393948624 -1.1574769617594969
Ni 6.465323826941528 7.423210873770917 11.957314037012278 0.4587364831469454 -0.6098085913668336 -0.8763479141188069
Ni 5.865767249432795 2.3366970566528584 9.227120069541536 0.7958690427364487 -0.5080522986629379 0.12651241660265308
Ni 3.3668567065908372 4.23452550330719 5.47004955324115 0.40004411151205943 -0.8807871808370832 -0.835521109910432
Ni 3.9406273956423794 9.178167561970978 6.404977081674793 -0.40562546225457885 0.2369695795146564 1.4782351937560347
Ni 2.4472278191145675 5.457686380044681 13.253175586645224 -1.8219297228337719 0.17662655965022483 1.6401568430959172
Ni 1.468085212025917 2.3364011984848307 1.99699918002054 -0.11501135794158902 -1.110733534956371 -0.9800597878871766
P 3.2965903916841883 8.98424177839638 11.772766957364167 0.970198835932697 0.2336672546143008 0.6344119917378106
P 3.624133120394432 3.287067456900787 9.136172344132955 1.0335467040617234 -0.321420291060569 -0.3093492188286479
P 0.039832679541094144 6.181179793253891 8.248511856268886 -0.9855714617340252 1.0933978718914008 0.7688279794582565
P 1.526951741895737 5.599633581723862 11.07978854051672 -0.4256468996818282 0.8385388136908333 0.8493248485627436
P 2.466819177178672 5.2915065452904555 1.9434543989481232 0.31966859847678497 0.1579274405788248 0.7515666212746476
P 8.676225688775984 0.672372820001073 6.501432391792569 -0.3287299373481048 0.10547950719175382 0.4636966553656982
P 0.4434636571707125 2.4844042470408354 12.825583795632438 0.43412896901091036 -0.1596469943730928 0.5437304687908378
P 5.708777509022941 4.167236261216322 5.7122834283140715 0.03572393576417074 0.4121426945478064 2.0318024461316364
Ni 3.873772695235804 0.675122451850183 0.8656375454814854 0.3753147270861794 2.0573982923228695 -1.2588259917226448
Ni 7.243874596107197 3.6144992387980204 0.5093651395421734 0.3972786329517803 1.5142974866962307 -0.7871468323721024
Ni 6.488798323460999 0.4474383267468136 7.59090605707951 1.0020275504075196 -0.37847229887855466 -0.23718915172463023
Ni 4.5956758707918635 0.1616430346588704 9.284197582051561 -0.5202442127434396 0.3337279047833285 0.37258164442573255
Ni 8.896713988498847 5.495546979984513 3.1042816579092163 -0.8577632091380839 1.5711263227598167 -0.835201007566852
Ni 1.685651912339504 0.3645083576917914 0.11297898880214056 -0.8965454721126044 0.6283647571024661 0.4287543349625583
Ni 6.399781997155576 6.283611438365833 4.954568470631773 -0.9004129254878107 -0.44311574589055297 0.6006315528532559
Ni 1.7920406604488208 3.4217661334632825 11.416095142898017 0.21557671566117714 -0.4122488811083674 -0.6898123228849863
Ni 4.342818838373187 7.302269602021723 8.154669343597506 -0.8446783509296679 1.0831345422921796 0.4572295595841158
Ni 1.401359949567853 4.392791132066665 3.8577196159499594 0.22861272290952883 -1.0107019382530658 0.38712123280280425
Ni 4.6896293302762535 1.4865578563921649 2.877000639559785 0.03204648691258352 -2.369605806535919 -0.04041851302636265
Ni 1.4739561475477223 0.6518698489567328 11.192536390125088 -0.4973986756038336 0.6085952877850228 -0.3251702450213045
Ni 4.111263594052526 2.0938622196761307 11.072224741539728 -0.5933465891560684 -0.280125288966524 -0.24366730324980615
Ni 3.9101817410387487 4.52283004248272 11.900534231783832 1.205272226865905 -3.177959097782307 -1.70566469499074
Ni 7.684573828520398 4.220989992119909 4.6587223218418545 -0.1455969440379299 -0.21516096827999717 -0.737263317278098
Ni 1.2402651770766093 7.309850967577441 1.1118775250608608 0.7145491635100338 0.3437405518243241 1.1617871590990765
Ni 4.446646564215512 7.755274685111338 4.5237564483713575 -0.18773398241729602 -0.3811830129414983 -0.4520382451911635
Ni 3.725806628950802 6.735867630467627 11.760317800387615 0.7351660684294371 2.060196166782981 -1.8662033479401667
Ni 2.7219876015350666 2.8883338565088073 0.0088951607331167 0.5715410632452028 -0.10921172054067645 0.4572233889365287
Ni 0.6409628526810257 4.351444953084753 1.2576533163456798 -0.352867968046889 -0.2208302507506326 -0.3312812430150488
Ni 8.113965731574279 5.5937903829053095 10.472547971650233 4.576563627088892e-05 1.601660743903248 0.25883064125380584
Ni 4.27172966793671 5.445509967316778 3.649234836838057 -0.28667697404211273 1.401947734747205 -1.0415808872201093
Ni 1.7112343983061746 1.2428724271823561 6.524733996195099 -0.04187195764343757 0.9211745835151941 0.6129749049099572
Ni 2.0199069232368827 6.1638905815597544 7.687685886625343 1.3529077986004185 0.33458073970192703 1.2856297421790501
P 5.435515508578082 6.851696103250588 10.075145733014379 -1.6041616559482308 -1.3137239293121052 -0.023656977297307646
P 6.695547709506062 0.32904235979943547 2.769449723584183 0.3196439158864366 0.5494516875453311 -0.23702408690167562
P 5.188501674977959 6.898136590063233 2.2100041172058456 0.1255888763471192 0.5387795525434657 -0.4147855314872921
P 5.830828248902239 8.054636923316915 6.256993448811065 -0.12155481548706164 -0.6022009542229049 0.49881612477665055
P 3.8020640717600185 1.6975694491703814 4.946138361956526 -0.739634645723752 0.8617031676224385 0.33380169544405736
P 1.2968665428474653 0.23628712589555856 2.7263108290153757 -0.6462007568426226 -0.9844504607557047 -1.8389943916255427
P 2.543159830097645 8.912098613236303 8.316482496702992 0.999436906862208 1.4362678481853135 -1.1357480547228376
P 5.145121471090854 2.7347834673022775 12.95585476979904 -0.5343927363296797 0.48148663235926753 0.01988979694539155
