# total energy = -381164.7577532462 ev
CRYSTAL
PRIMVEC
9.27157352300268 0.00000000000000 0.00000000000000
0.00000000000000 9.27157352300268 0.00000000000000
0.00000000000000 0.00000000000000 13.56988503593715
PRIMCOORD
 96 1
Ni 5.311703078983761 3.6852558171055203 12.954775799147416 -0.11553329188333006 0.4471446645442879 1.779809396624954
Ni 3.7308626878190467 0.16149968684382732 0.26679602146599773 -0.008087147883508651 -1.370206694890182 0.47672314953235306
Ni 5.991958436627893 7.384799129183502 10.22710665027416 -1.9756647225978037 0.6171835436746661 -0.2980649041640802
Ni 2.171801223124362 4.221412377305123 10.405659542505951 -0.7318879118987976 1.1046137952118784 1.2468485076457945
Ni 6.940106642899115 5.733930542349086 9.02347188805765 3.0163863471414114 2.3515620616603305 -0.8724249249153169
Ni 5.458425731767166 0.7429923878067979 3.990468603930635 0.5623640247316251 -0.24867504087704267 0.6300876533308438
Ni 3.893309929488433 3.4124026765833833 4.81205797576116 -0.44376237833561644 -2.490157634679763 0.81249533843922
Ni 8.009805179533082 7.7148856937582115 10.922739839950303 1.6969609965691548 0.7377266300677617 0.8460819161454138
Ni 1.6446659040721998 6.2328710059753805 2.887169884441247 0.6483679396972705 -0.5646487070007437 1.5078057083243
Ni 5.6855514711185124 5.017126641433409 5.746886639347476 0.19631246811492645 -1.8251338315933663 -3.248889149133966
Ni 8.591040130748983 0.3238310338427681 7.907443297966579 -0.3752435075286118 -1.4720861434355035 -1.1133257211635794
Ni 0.8802098232989831 3.208548587057398 0.7967869851979253 0.8333359293336552 0.4804651330732887 0.43146504902550203
Ni 2.9530147460865663 6.642961979451701 7.758106988575298 -1.3601945620698188 0.5773088189669154 0.06682708492687846
Ni 4.4359936775275 8.261639662623308 8.563574948168238 1.8444564431813784 -0.4929655795331445 -0.21402171246923143
Ni 8.677441925459158 8.039863621259704 5.708280733886192 1.3360822424026473 1.4859207353257506 -0.35262217058467016
Ni 3.029199266650309 8.241807766616756 3.947750755561962 -0.5268362641386604 -2.343496768153693 -0.9741038274140578
Ni 1.2346027453167867 6.338270255064907 5.6030196312438365 1.049443577797638 0.02270464068636735 -0.18588638768559598
Ni 8.384747617356833 4.627201340614524 -0.06903428297596673 -1.9606224835527009 -0.053894178915294286 -0.7880842565847073
Ni 6.913274708797683 3.3211054909936086 4.721044500324634 0.4763644806413538 -1.7502062290465408 0.3906801537986562
Ni 8.780208047636174 6.249875072023075 7.330668900826766 -0.09880878003979758 -0.02585012829388451 0.8167903662701481
Ni 4.440036083632623 1.6016643455502768 12.174656321874213 -0.1542152818345602 1.0652728315204105 1.562463504878496
Ni 5.223799289344617 6.034218269258969 7.457968534000948 -0.7443500489215503 1.8072867761096165 3.2319748898771303
Ni 1.363245829510767 4.029527889342701 4.725183330795568 0.19607644084472037 0.25563013203863716 -0.3605056870978049
Ni 7.5632769216688445 1.5198890660842657 3.061392951785211 -0.737205210346653 -2.1973105272711964 2.591144653317802
P 7.5902572009484475 1.0224505973869376 5.235411008165845 -0.06819388336741804 -0.8343378882356082 -0.02807978895535164
Ni 3.867052832952407 0.4475156804564283 10.395970748056747 -0.23279256531883133 -1.2155890354108807 -1.7991710889810177
P 3.5254787886431873 0.7861154039433471 4.758674109082089 2.0832607619119283 -0.23509858774418865 4.029045152010532
Ni 8.068012118817391 9.092307759357814 1.4031803514740326 -1.0180419235579046 0.6867403688278818 0.48725927317698664
P 3.483209684438477 7.333666400583157 10.729952300715771 -1.2331558406500505 1.4659088109801979 -0.6603842474318562
P 6.852953850724455 8.08216054018532 8.448067829501179 0.9414544168101528 0.043938353254163044 -0.8731412342560511
P 6.626792355031211 7.7766807320395 13.466034475505973 0.22755959905466613 1.5604341331532932 -0.08501455446918262
Ni 5.675074592910282 1.2236901031476828 8.763594314838539 -2.2950026772080476 -1.4855646375379126 -0.6179967836045808
Ni 5.678236199520022 6.588565656931623 3.7336450870670914 -1.3630058062663688 1.7427957955150823 0.03137877142159757
Ni 0.3650570860134732 3.212767153061597 12.025835511977073 0.41329454876406246 -0.6940875532215723 -0.16329873219306715
Ni 6.319745650940972 1.3308416796543372 13.562448642585236 -0.3220615241889937 -1.4304934075953815 -0.5147873033939264
Ni 5.290498990079139 8.509904589863828 1.945161314231521 0.2306742334242479 -0.7188051105729104 -0.34381177138189173
Ni 6.730680337618134 7.034111127990486 5.909332026702135 -0.22911280247439897 -0.8787184712335124 -0.2663961123058896
Ni 1.0546136863288416 8.426868376383373 11.273670756372573 1.1734843929313468 0.6622734940347691 -0.335880432349957
Ni 0.600113729452714 1.279523519581279 2.2571599658005335 0.24809268601101142 0.2968626563258629 -2.6410729056068125
Ni 7.47668042391232 6.6093803397435495 1.4592780077562435 -0.42331902287959994 0.3265280446007796 -0.1149049142707118
Ni 5.238123870611623 4.4132783221202745 3.429313099737358 -0.25552548813997283 -0.6611190687153518 -2.6062272586825372
Ni 1.0965861001772126 5.420458637729376 12.35551598162654 -0.3978211357188116 0.8652222365192905 0.021371009476608357
Ni 8.574889049475763 5.110472844796652 5.188554329326239 -0.5157769210007053 -0.051467057531040396 0.8848348685438954
Ni 2.2408651751359625 8.615489270426066 8.886280412971644 -1.0750779905362904 -0.2921516240034388 0.4403600375222868
Ni 4.927785757880747 2.9760175202764954 7.016784411180272 -1.5922582196424255 0.9492219765707136 0.33704179964790987
Ni 9.182334739359511 8.053826611154921 13.371303099041572 -0.213305146018181 -0.9713882282551077 -2.0504524571326557
Ni 1.8651531967004553 8.498101876625705 6.320228699927387 -0.27464806790203666 0.7589037783660091 0.007108071799690985
Ni 3.3215783412490243 2.2664083605020466 0.9845548944661406 -0.6707738181962963 2.1402266377740107 -3.447411480416018
Ni 8.907404766343 4.0108085821724195 9.85723205459963 -0.07896269184814787 0.6993228334785827 -0.4827163910013106
Ni 8.998460891018249 3.205934003292158 3.14825368939035 1.1699372990100367 1.8950992050389104 0.7902141584435164
Ni 4.090080536756818 7.654620465126798 5.969419241119745 0.647085473440421 -0.11373094856726865 -0.35272424338017316
Ni 5.243649728498442 2.2680494290355484 2.2004522399731 0.7762810933021921 0.5437633789113022 -0.04939320572114719
Ni 1.5125088934703264 4.831695168721366 8.106649547629036 0.28197622613233375 -0.45838681311701057 -0.058187921194641716
Ni 7.220970423042412 8.389114528539203 3.6362815108475424 0.7819719730393823 -0.17917940797906562 0.3716303362560568
Ni 1.0315830974180056 6.51347518205688 9.721913437388015 -0.07982941072381736 -0.45983871507218865 0.41530463721555566
Ni 0.511606360369892 1.364942527486082 6.047406155598249 -0.9455895220244488 -0.3316645944963965 -0.36376121792062516
P 3.72636597460578 6.507031438380137 2.237647011927045 1.0509944672245253 0.45594555066536957 0.5373762444380358
Ni 5.913409664787072 8.947226175107911 6.686873079347277 0.2749959381597586 1.8970085062464814 -0.09883423396109431
P 7.005925544138255 4.094030227125585 7.236670905836941 -1.2789351037676944 2.168150874988105 0.2581223023328716
Ni 2.302697299711794 2.87085006052786 6.484396745663542 0.23951265765148433 -0.09466441885412083 0.7261227272802462
P 3.071718703343181 3.5805890223332066 12.568644426260219 -0.8148137021597515 -1.374207845629775 -0.816906323022722
P 8.872951598713103 6.779940208344088 3.5797360375587313 -0.06231634154071848 0.46733656611113067 0.40551696170117263
P 0.6648784527694859 0.5667685148722708 9.505731863556134 -0.7389347914432499 -0.07398992122390484 1.9413962883332372
Ni 3.136137596963345 4.95564683665573 0.6457484148871478 -1.3109916179826067 -0.22546389286790203 2.071676656618755
Ni 6.944677528701467 2.018588468796036 7.13485604711494 2.060467932387129 -1.1110662357054413 -2.0767471291631265
Ni 3.420023910111848 5.583174755034193 4.512855022966642 -0.37893586877853447 1.4372070721701313 0.22630541493259088
Ni 7.251103037358119 3.098532094297343 11.553916122554376 -0.4315558089670955 0.018482117964587524 0.03423912368852813
Ni 7.723860577037474 1.8896301510984452 9.322741596182343 1.6760640985154875 0.9578230879761633 1.142169641978465
Ni 8.66867101679988 1.116807402276461 11.375580185145656 1.3665940378382593 -0.8324787235396824 0.6698315088876851
Ni 0.43740966519362195 6.05171372870935 1.0682577340909936 0.6086760204242873 -0.07965046194379186 -0.6650731682670933
Ni 4.972400570215264 8.332613558803843 12.001437365954985 -0.4317126462599339 -0.4779223120467769 2.3658319413157836
Ni 3.263139612623824 0.8882788738340476 2.598199040310979 1.7179422268065123 -2.052303908519098 -1.9011644373963836
Ni 8.996411873244782 3.653009284000895 7.281043730099569 -0.19004720393150495 0.3094898581715702 -1.6256131409537875
Ni 2.7520997454030667 3.6507933779019868 2.650958930084373 -0.49584032997777827 0.3925421467080595 1.2427401419043758
Ni 2.4884440059274477 7.411668149579478 13.089429644529359 -0.5805851757253421 1.4309487499652453 0.2812992546699672
Ni 1.0135684298440306 2.4020422112172706 8.52388241427686 -1.0349870360526756 -1.4558907646225636 0.5755149602912862
Ni 5.870463735706962 5.314799784578052 11.34500717108226 1.2361997696826967 0.19691719157846088 0.8691387979648774
Ni 3.0338072387472037 2.87854546664541 8.9078423846186 3.599115822903266 -0.5109090513854426 -0.39919873279262863
Ni 7.601114213675737 2.668173460853596 1.3115781311116468 -1.894966021895156 3.7764574063426446 1.7685965586282701
Ni 2.3031608783935735 1.91310577554379 11.195439999507453 -1.1408704635510674 0.46175470114797895 -0.4293883690021315
Ni 1.4306965277097727 8.18615978165587 1.4978440454508946 0.8469764029352252 1.0519678868813884 0.6881128236953762
Ni 1.9271985674699053 1.6076723252661471 4.031870816000417 -3.631710726120152 3.8188340715366422 2.298542829150822
Ni 1.5368653174110534 0.915868295501509 13.177484560818764 -0.8647926051810395 -0.21414024032496667 0.7743100856187503
Ni 7.406680042963524 5.131166997151316 3.246039122210319 0.9725688788267702 -0.44237012597378006 -0.09003900426696751
Ni 6.043322954569129 3.9516744855245483 9.444002653447658 -1.0089091080187014 -2.8584028565136705 -1.2182604115954567
Ni 5.110917880331161 6.174784597148333 0.12005946132213978 1.101537984500032 0.5386437982965497 1.0598490894016779
Ni 3.4455021944624833 5.677336856877369 12.134842330368212 1.323796997277391 -0.8827173079802604 -2.691873790308764
Ni 6.479986258085086 0.5008327918053223 11.017565786465788 -0.3991719933197513 0.4054115464715599 -0.12783139252439274
P 8.430326673349454 5.657013567468129 11.184611728658433 0.24520867959499706 -0.7904982653428386 0.31202907965365617
Ni 4.270199397775662 5.677754077690971 9.705629772611807 -0.8648964777487557 -0.4838319926629925 -0.8372221517619388
P 5.311656721115583 2.376304322804839 10.450806543167154 -0.2861493836734169 -0.6728366142625961 1.1635830746572347
Ni 0.6606895558009208 8.935469819737968 3.705026520726078 -0.8118857298796792 -1.8810373276292058 1.1694711580068957
P 8.601999130786265 1.6456116045830314 0.10896416915241466 3.701532117788664 -3.154002072746078 -4.456276108350028
P 3.447347237615968 4.788007513750408 6.928321545650902 0.04154568465227038 -1.36248438654526 -1.0032750496613754
P 6.535541527309614 4.471921025365458 1.3964909110959456 -1.4911835263865867 1.2713197533142815 -0.9384508540971387
Ni 3.5695929360013827 0.8476517653202024 7.433297803713974 -0.23409611462160326 0.2308189865322283 -1.1496248127049298
