# total energy = -381165.28374589485 ev
CRYSTAL
PRIMVEC
9.25759817651069 0.00000000000000 0.00000000000000
0.00000000000000 9.25759817651069 0.00000000000000
0.00000000000000 0.00000000000000 13.54943070368457
PRIMCOORD
 96 1
Ni 2.726908828584324 3.1261612603564175 2.923817939438138 -0.523646296446453 0.2026597504891929 0.8749615752942415
Ni 1.3151251235910648 6.997355497830523 10.127359587143943 -1.2873166429631702 2.1702859190532364 1.0337277097242776
Ni 0.9625032132750436 3.366192262999468 9.787201181103544 -0.15173699549739675 -0.5286594333903282 0.07561305864962461
Ni 4.838835417675519 5.885453166973964 13.139763482471132 -0.16565206291659215 0.08408098691131971 -0.36577824835065387
Ni 5.408418396255291 5.188865200533192 9.35231810589684 -0.4118444465810972 1.7099846625223323 -2.861874102891723
Ni 7.144236548738215 6.728487077213348 7.7355193371835895 0.025375759760627267 3.492082340960831 -0.33581615477092486
Ni 2.802691526348749 0.8982147492687801 2.269489056646895 -1.6462017637384163 -0.7483547992055692 -0.25138961159472833
Ni 7.595211180902423 2.966763936864129 10.584652529987874 0.9836770729247899 -1.172117594490807 1.135994623516005
Ni 8.422220188890376 7.026211431000779 1.5605690438230304 1.1533675675768136 -0.24453607900800467 -0.40256507816170023
Ni 7.177462068195402 8.353399204871229 3.191243100516897 -0.26918730189778156 1.627206453582836 0.8493603297863694
Ni 6.219495077972468 4.72733690657428 11.402211381870535 3.602773217150195 0.5124499135100014 1.0012698463058884
Ni 4.5374820854464 2.540905168251704 1.5720188411104776 1.356015748101781 0.061031561291023925 -0.24613299118147933
Ni 6.226021684608665 7.414836140193645 1.3266100997511607 -1.4362580779933007 0.055406244684446514 -0.7794245240271802
Ni 4.232462744383332 4.470679257805539 11.085710767686596 -5.420892307988625 -0.03612785607080875 0.6276235080610675
Ni 6.758018815042387 9.33804659271902 7.138517204653331 0.5839589772935814 -2.5071881077994886 0.8286035568549924
Ni 4.194164061186235 1.9484836952442701 4.5404139667537535 -1.4876312902589541 -0.7704716857092666 -0.2167887336914073
Ni 8.223644710384766 1.8874668663943648 3.5431892061741346 -0.7060570668786227 -1.3582456658735642 -0.2387117590167437
Ni 0.28606348326408987 8.67769286510673 3.255549153959485 -1.1580060947900896 -3.4987029316011427 -2.7704978678705703
Ni 6.412830755972987 4.8962325256818024 1.3290254070864576 -0.9184355873174762 0.41480712875384695 1.942679525921035
Ni 9.23212115565323 4.941890999340993 2.6054065570134743 0.3650159162633327 0.5952034398591491 0.9817274053975866
Ni 7.299412407512622 2.1443281823205482 7.653355377072595 -0.055717862387594366 1.3119316132983727 0.21623903183552437
Ni 2.978817329545449 4.447516747445584 0.7026655795707925 0.3824191993414446 0.29156566959298175 1.9033874131896318
Ni 4.1728901008316495 0.4302894550465881 11.61136088888659 1.1267237397370402 -1.7996452004039587 1.5894909413099334
Ni 2.4071884217931947 5.172062660044256 9.661869041212984 1.3824027227357418 -1.3022231277613572 -0.41910292791572334
P 0.6783449436928397 2.7548575171441576 2.5923450119028186 0.6448954077676378 -1.16544892422138 -3.2327251377795942
Ni 4.818255777175846 7.535462642987495 7.425588840346757 -0.18833227812292727 0.11200728100794258 0.3861886936862059
P 7.828419333771178 7.027785222671919 5.190163115781979 -0.7876073169482888 1.2689437968829371 0.5679919124413637
Ni 2.624038398880159 8.85619787100627 7.538185302578567 -0.26040621327104185 1.1042499841145563 -1.2606967263827966
P 1.1028021119581441 8.544763014483792 0.5764086056334872 -0.4453888581954459 0.25761502367914985 0.43317071886269914
P 6.450777650443593 1.240379276809979 1.8006111555837598 0.9442165529363222 0.8720981377035174 -0.425702435510112
P 3.8293591518159777 5.4267391828269735 7.522602913514668 3.01473209936744 1.5919669136542518 0.5174031437502187
Ni 1.12886225051261 8.130337379482294 5.487085761576934 -0.34627128866597784 -0.3965648947142074 0.9191156441036364
Ni 1.9486040440191221 6.595871984924637 7.776600854359183 0.7450046517864137 0.6693054611808861 -0.09350793665217444
Ni -0.19320884890702175 8.209406524559983 7.855187678577657 0.23301316597006966 3.90807680515456e-05 1.225017270703316
Ni 3.669165674890054 4.190359188381303 4.993100328800278 -0.1909576315609163 0.9969002564832832 -0.3347907988302041
Ni 2.683268511303418 7.760931443873468 3.4817696718083786 0.8501442591402456 1.621953689824329 0.8884853208122893
Ni 6.183279354340115 0.9906185386000569 12.84893881652194 -0.7184626396318271 0.4286111245164747 1.1391545093012252
Ni 4.29904338967062 0.08413212545972615 0.5455817298350801 -0.27206410922494434 -0.3071198152774969 -0.9825578717186821
Ni 0.3030641363516284 0.93289741466148 6.919829594350359 0.43965272704261704 1.1089085659324902 -0.021353268864795483
Ni 0.5616094093659315 4.603544305242019 0.20468456746905217 -0.8578387995710257 -0.8041148276850086 0.2370621392284627
Ni 2.3503745424650395 4.210540752164158 7.073168745668564 -1.8018216392299873 -0.8524657081845706 -0.006044920642499266
Ni 5.664205830805873 3.24717658226902 6.301596086416616 -0.49585858481022344 0.13380072273395022 -1.667877191829321
Ni 2.3403855941523335 5.190226067448823 12.307286937065678 0.4834764090957867 0.7925934573089705 -1.7707460008711051
Ni 7.16624185933998 6.065041311847172 3.416028690665633 -0.720381711031411 -0.4528208889934589 -1.0455576124796704
Ni 8.140724404511818 0.06697594472468676 5.272584437119195 0.6348192544785582 -1.6917874227880152 -0.19473303944294848
Ni 1.6975750148742224 9.608923912116413 9.633401001401674 -1.7144015606431056 -3.458165119388096 0.9107701003524186
Ni 1.5370852948102016 9.52634613737189 12.006841775206787 -0.9950310644850283 0.6291152621152456 1.05545044611335
Ni 4.774911703033037 6.428078019986914 3.872061674412846 -0.10743508825622788 -0.32373017014066824 -1.7927227622525124
Ni 8.077282084968745 0.5388421984433747 11.452994861818802 -0.2587941315889156 -1.4793543949621426 -3.4038292249496926
Ni 4.581418645865403 3.1987871171804967 8.364442593603599 -0.6313912026336158 -0.24634767829544674 0.19597025428415926
Ni 0.01494454055718438 5.647227395953692 8.77687414198178 -0.37720885878509874 -0.7460541760968505 -0.15715071031380032
Ni 0.06569284163280437 6.286510830368836 6.52108355319245 -0.2700085122474963 -1.7579123394415466 -1.490232218216911
Ni 4.947093769453821 9.423494222863857 2.7282456257449863 -0.0539474007507329 -1.16414126115355 1.484897950488191
Ni 5.262657514713528 8.44929866323205 5.159541758660626 0.22616014760397826 -0.5907122368570149 0.1392802577912827
Ni 0.05207491487841037 3.52110890902804 7.002657324242652 -0.26899729737416256 -0.2932147751606305 0.3086545067544684
Ni 7.768930008602085 8.40088142534933 13.165073755582291 1.173005139302083 -0.6885290852971884 1.104803285514865
P 1.5056002037893357 3.114857733118406 11.963686556064516 -0.054650854575660726 -0.002211405829021998 0.6468659012304473
Ni 8.174773850196836 3.274606845337184 1.4550324258759935 -1.248071067198986 -0.9460690327640287 -0.6307738807645912
P 7.327898036760256 5.383663579028064 13.098898593090272 1.4630129774896417 0.6822525082598573 0.18793992778051502
Ni 0.6001543446715705 6.753140060861853 12.93013998643412 -0.18661323854929152 1.4713803756177304 -0.10893609828178659
P 3.230790633693033 9.141628134562678 5.223292356219282 -0.7346161094632381 1.0559551536639105 0.5016237694287747
P 8.791311366164974 8.306629819444174 10.082971255939341 0.5160245182351372 -0.07570818946659219 -0.6379727125058754
P 6.633013468363542 1.3082559858264418 9.572632276179926 -1.123670040512381 -1.0791629592389413 -0.009464487847009507
Ni 9.475336772030822 5.027264568701307 11.241637417664117 -0.44425268770847365 -0.8718441127111825 0.27674557386101367
Ni 8.175505200444013 2.0661570242552165 12.83670304915873 0.9059379690710978 2.492169008682837 1.3752440002037734
Ni 3.6882733572973074 2.7766961909807417 12.792274910282448 -0.2516906877749149 -0.5585415656617413 0.30015906768894757
Ni 0.8794097903182698 1.8651745702525695 0.4219770577435491 3.7498416035273294 2.1107494542505005 -1.3278084324296293
Ni 8.878434621559673 1.542176973746243 9.218802249316353 0.5568747194822797 -1.3449630898320448 -0.17286246462210228
Ni 3.960974423513612 6.832061084370492 1.6860502310424446 -0.38251021639335414 -0.12551739967923545 -0.705269795090637
Ni 3.056831108443667 1.85713897513169 10.68420040774632 -4.0758721396664 4.572583559395222 1.6337527393417863
Ni 2.3894416063015744 1.999909652498287 8.567616321068357 -0.3908143653836753 2.503973457516933 -3.5747710755103146
Ni 7.943861581648332 4.695638890797907 5.048477428908662 -0.8179404207141913 0.5108763983752944 0.8771488127535474
Ni 5.677629348000891 8.150870731991638 12.32556513868626 -0.5995187794050513 -2.347621588955344 -0.4044612667431486
Ni 2.2120752849640937 2.0913747213857192 6.199216309409925 0.84788991588843 -0.4491380408252329 -0.7797060598233411
Ni 4.728540394322799 0.928824071512647 6.976981376007906 -1.4424256402565931 0.8021641317165411 -0.9179635327770643
Ni 6.101692142588604 8.252574704339546 9.557023040081635 0.20477988215598927 0.3334293997063032 0.27010698549857354
Ni 6.270856232040026 3.368395571339064 3.4990860089899516 -0.6934357785701863 1.0372457501798653 -0.37703016711538945
Ni 3.112432242425237 6.7602221233819835 5.579573795050608 2.377639218363357 0.5225949723638033 1.7276214017674891
Ni 1.1110876622267931 0.8428793083516901 4.3837152330975675 2.596086827814426 4.108551889287608 1.437906669340317
Ni 6.953881817314796 4.690149135145049 7.644141289717973 0.883022497925505 -3.374412462350472 -0.8379574872660664
Ni 2.8658468603517915 7.732103283497408 11.725636679407488 1.3208268589054735 -1.4993156685754179 0.9160205501180804
Ni 5.596301348995213 5.910013574641813 5.869139427662888 0.8529827570303051 -0.8866564951336665 0.9181499377562575
Ni 7.742712490880505 6.567404870873134 11.177277670152748 -0.13786975059700127 1.7099273269218358 0.11802983305293867
Ni 3.4608882336117697 7.707172571906938 9.418344221060003 0.7294620760661243 -0.3452837279417279 0.7525469829100458
Ni 6.266727343302799 1.266041338647627 4.675190708190765 0.22287787730828068 -0.27762643380407026 0.6213764987100912
Ni 8.729155852753008 0.7863292705684027 1.4759120125529888 -2.6826373593121606 -2.5221200465189724 0.46463253691640627
Ni 0.4681002628256305 3.383328077018763 4.45219368598829 2.2580029600552467 1.4668817164164285 3.483218205701982
Ni 6.184343978117651 3.2570081514146128 13.16718726522065 -0.46357349952427257 0.364792744508933 0.4791407578349103
P 7.7405925009234995 2.6496171423352175 5.561539994018956 0.15430732732773425 -0.3550022407810725 0.19708405617362829
Ni 4.185610040573687 0.8245742596967185 9.280912400497797 2.873082827123349 -1.898243664205163 -1.985504334396045
P 4.168909333663471 4.700304720222934 2.5470762831221854 1.2667796993520826 0.42592637859546006 0.44938975182472285
Ni 5.237458332779156 2.5475613812608193 10.926166248385066 1.6369007980524648 -1.8493975892367374 -0.53811646503817
P 7.575881316141597 4.7893257832210665 9.688249492660518 0.4915262759834567 1.1418528820689948 -0.5614651670664395
P 1.6279115894311122 5.633387286845725 4.865613945839869 -2.073297222941313 -1.5707015765175723 -0.9198772048600093
P 4.900213292849979 6.643761539717622 10.838907832058611 -0.6312698465644031 1.3403764989026272 0.992637110331555
Ni 1.501184329512078 6.659471683634825 2.0293793644202873 -0.422789118518059 -0.00619378751553772 -1.9431860332438082
