# total energy = -340887.42137934465 ev
CRYSTAL
PRIMVEC
9.10799810019949 0.00000000000000 0.00000000000000

0.00000000000000 9.10799810019949 0.00000000000000

0.00000000000000 0.00000000000000 13.33047587019942

PRIMCOORD
 96 1
Ni 6.49332864003502 1.9427450987172719 11.480059599068555 1.316074946042785 1.127285268667465 -0.8219793666702553
Ni 4.565028826274525 0.5147631031536334 5.970733569331366 0.7689645050361208 -0.06761050006012226 -1.0554339910531176
Ni 2.602674207688438 1.6205496665949495 4.609545077696181 1.0508659120664612 -0.235149238476466 -0.23524976861007227
Ni 3.7836172388963623 4.526119458471655 4.964602166895461 -1.7857460738243633 1.318243928669646 -1.4571277223534582
Ni 3.813181800667926 2.9866218668012716 2.746224454646366 -0.10505013296381907 -0.9304732352083007 -0.2387004461628341
Ni 5.607093102740368 4.599639218983072 2.879849716095215 -0.41915126465515556 -0.42199027676584744 -1.1169232087068506
Ni 4.987567073257388 4.856220632928456 11.096914354586675 0.8651137359658843 0.5386628244599433 1.0828239530302963
Ni 5.9511112982652365 7.848908426451804 12.643023442064196 -1.1401245865239784 -0.07078889778810389 0.06314680786181383
Ni 1.8491330944387356 6.419426343604193 13.29718992064939 0.6629962311334066 2.259399583292457 0.67278853463348
Ni 3.0308503054835616 1.706183064554358 0.2966693566999614 0.7174408832355321 -0.477866519108177 -0.9372995141015148
Ni 8.252565793412346 8.773625255639512 6.946590896945183 -1.9078112532889404 3.055890061662989 -0.3869597675242755
Ni 8.67136065318384 2.271971905358278 1.371132603940235 0.15751529274207066 1.652073392027845 -0.468480964128219
Ni 7.01503477012595 1.1885846415980483 4.804423447840692 -0.3738610253587884 -1.8164082787949103 0.38778612008031277
Ni 1.1053011071435883 7.034380158050411 2.069116750494256 0.1971362495678024 1.424373667850889 1.3316751144738872
Ni 7.865321038994121 3.9257475489534324 4.002075305273283 0.014402548578575196 -0.7677730558311808 -0.16641516633486178
Ni 7.515947340597508 3.8547598119085875 12.550122772435802 0.9906972129963648 0.36878952437315193 -0.3407045932114777
Ni 8.269078593933557 7.311081139757158 9.02109320670485 -0.27686101639295546 0.5763284573315172 0.9789701543674237
Ni 7.040600920739868 0.8236699660754904 0.3562994201375542 -0.910109326839968 -0.2224384757780169 -0.018456406932974668
Ni 2.103847368777474 6.659249041080175 9.244338436873246 -0.08595917777063906 0.48998669941047873 -1.185973269426977
Ni 0.49444407023429243 4.727096544131335 1.0026967763594867 -0.8499539975063105 -0.5966543133730627 0.6335748405484959
Ni 6.361672527771326 2.1960749573476686 6.8648220225716265 1.374725408696142 0.24723188067261292 0.8349665229585427
Ni 3.8208598430503744 4.253107215987793 13.256744944370029 -0.49381661467953014 -1.0310159672200694 -0.8907826014868981
Ni 6.184877177017223 5.735069583779258 4.870583035102695 0.5874798459626464 0.4679374329199231 0.17908787670652385
Ni 5.316465991967472 3.2174549701711133 9.171260414268767 1.1958468197869467 -0.9640155899401204 -0.46451555172256775
P 0.13768105299440528 5.759251318684835 12.210675881147885 -0.026340437666741733 -0.8400819898082371 0.5894511107564041
P 3.9615601974086965 6.313864645843126 12.60437820620568 0.5381169792588023 0.670183235800149 -0.42102842707321037
P 2.4529842592239754 8.782250529822404 0.9249818719318703 -1.1363751467838752 -1.091976823174158 0.8754053476998793
P 6.52698269294504 8.191660610243387 5.417919071794111 0.1944918699664199 -0.8262026607229834 1.757179317930264
P 4.9875215332669836 1.0604442165936963 12.604978423279233 -0.3827246463970054 0.3739517853003818 0.2974882057250038
P 4.150132189681787 6.251411103000363 7.912050533949507 -0.6284737718765048 0.7785372363262205 0.5653444475161876
P 4.865747598921388 1.087385674917875 3.7120975947635757 -0.7811165670176226 0.9628740201365094 0.06229294450195079
P 0.5064429469064605 5.633788645116355 3.5934568117579118 0.16631309353935872 -0.156618234849098 0.28360964797069865
Ni 0.7259620950598398 0.05657979488020012 4.356892854123026 0.7893343269417245 0.3287237667005177 0.6707933585803222
Ni 2.1313808469769304 6.976180050311566 4.5844570969815255 0.041972230666727714 -1.7681486724575743 -0.29851561854825365
Ni 6.057975439751914 5.771128148182715 9.000430802257847 -0.6192450541893851 0.9146388392792055 0.42000538512533475
Ni 8.715470687891072 2.4860736162529617 10.14294536796159 0.6253686505886197 0.4628736452437705 0.0052699901496876984
Ni 2.3465664096432763 5.565852087428711 6.758191045835828 0.555737777664359 -0.22279663044838405 0.6359672520400725
Ni 0.7017657873573334 0.18587875724048036 8.932725587721466 -1.2140432881903156 -0.9663583791406841 0.18989885127909875
Ni 1.7626071126673697 1.1399023918540534 11.429456472529237 -1.4119040746289682 0.8506895901207543 0.41396072159315156
Ni 4.211101128837315 7.394373782209699 1.3529503073707425 -0.2264668802111197 -1.4039745353692465 -0.46757053649880764
Ni 5.600653748096962 7.975382087807298 7.7284496870291335 0.7660563302503903 1.153486095432549 1.5298740009782492
Ni 5.476976242152396 3.0993879910445647 4.78494781554367 0.565703116407187 -1.152582609781673 -0.17364382287281707
Ni 0.9998760293537401 7.7156128745334955 6.735862788539775 0.36158606464617726 -1.5557572965029143 0.9724048424450801
Ni 5.0936388189110025 4.561713514972971 6.843000169968888 0.9425229672839832 0.37583640391760437 1.1369749851514033
Ni 0.6049286409582453 7.584029626254451 11.0591489513428 0.470728365401499 -0.31718208460950537 0.21300586961020734
Ni 4.80227396029353 0.7960481402946461 10.303511176934808 -0.09263504712891787 -1.6293458685233422 -1.1998348579004174
Ni 8.528656539247654 7.384218364349165 4.738957890032477 -0.4629451219116543 -0.9719672406870292 0.24385165134647033
Ni 7.451945438080941 6.687447403139559 6.894882059438807 -0.46526811361787607 -2.37939759581536 -0.9852644720165677
Ni 2.8759141501243297 5.225759439076837 1.9213877540166746 0.32358927368742985 1.2518207640494055 1.7253827422449575
Ni 2.3145700123840336 5.387617672977778 11.342715542003154 0.4907027516408968 -1.1205836882775733 -1.014871753360039
Ni 1.2058534059599966 3.4965149233808894 3.418320938254203 0.11701810395897268 -0.001196077190630198 -0.14246971126285785
Ni 1.527347522230067 1.1359313046906518 2.1937833850304393 -0.4253406812953191 1.2013551511996858 0.26275594445014105
Ni 1.100045792250738 3.5924312511739687 7.946456907501034 0.06650955368645965 -0.011252947205999975 0.6749426048620054
Ni 3.649893611068237 2.667368318059176 6.900267618704219 -0.049272106762250634 0.6619284519905245 0.06518183601397161
Ni 4.478457304512754 7.024716572086262 5.908613379218374 -1.0764357901157655 0.23024923007168732 -1.4648402605063675
Ni 0.06577614054278412 8.962634431820499 0.45662766220116496 1.9366438612499162 -0.8731720874939867 -0.2655041966192395
P 0.3676179293530569 5.9360739934331805 7.915650014791195 1.0170219669338227 -0.8804416245722063 -0.3781133728772391
P 8.595864457088801 1.687766692434179 7.79591536121598 -0.032855613077440185 0.7363130375496868 1.00867873717545
P 2.0121025041055827 3.3520074258246275 10.1926950750807 -1.9415269003738305 0.1618861681162567 -0.045972610075372435
P 4.285750281110801 6.285247315872008 3.415654116416028 -1.0608721313495535 -0.3021100207677313 0.5508917624259674
P 7.0076663996782615 4.118627624318928 10.318601308155735 0.25464797063102595 -0.3152061918300571 -0.11758168977192654
P 6.421065783258808 7.965900661804771 10.085011213766716 -0.6299084474405023 -0.26544506124652995 0.16677666343933858
P 2.452328483362129 8.74581853749762 5.74528875762636 1.7209409044235202 1.2835224660280604 -0.9563717002416173
P 7.146308346470233 4.293319027516275 1.3380733033049166 1.776745670097966 -0.7009318298369155 1.7962634284159193
Ni 5.657842868048794 2.751763028279542 0.6192965079313325 -0.9994657032176142 0.8864682903822605 -0.531933990376542
Ni 1.5576862638385323 1.4094444870689795 6.966853460276421 0.7431825109760104 -1.56410695401919 -0.3456261988828112
Ni 7.207240853633437 0.8178736360966169 9.321281893863386 -0.8672852896959063 -0.6101762591188975 -1.1360938680980304
Ni 2.6476495022133855 1.492290837615542 9.099356412616954 1.074701323923162 1.3980183177858116 0.17410019368394533
Ni 6.58171265341495 2.0942202148056492 2.6829985535663172 0.0008176108052889145 0.5684089453741243 -0.206660901228786
Ni 4.2485258929529515 7.408381883258579 10.514186458951347 0.5375618780862806 -0.9629159291180384 -0.8035694967044998
Ni 8.239905676079484 6.699214936660465 0.7789196391031481 -0.11152314228267245 -0.41980612463033506 -2.160963098990414
Ni 7.840155640295775 4.463037463761288 8.127244293814126 0.06922258174224852 -0.7376685231363166 0.4153100365321944
Ni 3.392656421261007 8.726664417532863 12.310361098546965 0.21996147499243404 -1.007102908047898 0.4489004708931302
Ni 0.13519183711881433 5.072307887404841 10.108806769553649 0.1681529749615749 -0.5549183670868573 -0.30602221133794394
Ni 9.047183978008245 2.2833933349520983 5.688126961668772 -1.2402680262147994 1.1853785732657713 -0.7202811808978047
Ni 3.8396405350938014 2.750888660463747 11.04403240692744 -0.31758009137887244 0.22425007506545894 1.6485468669318255
Ni 0.8594744173324814 3.279362033129005 12.30221581586295 0.7143380759404923 0.5477323908613793 -0.03270906019724689
Ni 3.242164968965399 8.679539635460753 7.7941957711782495 -0.10306061333761606 -0.7213651579906029 0.8099028951216954
Ni 5.6996121472491605 7.973678892166114 3.401724344150646 0.125700462224319 0.3135699417782148 0.07511349330538676
Ni 2.9293052348763027 8.713139040382288 3.2208558966546317 1.8308743336215694 -0.46915047939141785 -0.4802910693892696
Ni 3.5623930735021827 4.692030751518729 9.29883341099266 -0.8879322765222966 0.035672256590628885 -1.0401395267878928
Ni 7.26329147382512 6.182581961500762 11.289992984310341 0.1166262678371927 0.16041935376274305 0.3521657997735419
Ni 8.139326053268833 9.007728130320503 2.65295126789645 -0.17586217068037455 -0.9601285961808883 0.038826228838578294
Ni 4.960652938927454 0.489439225288675 1.5208608059966389 -0.26810409613593184 0.33208959784895714 0.39292601241003944
Ni 5.818189174268257 5.415816035037162 0.24584217340784495 -0.36112172341524906 1.4784871618658408 -0.5272823505371435
Ni 7.874438145073397 8.878722445498438 11.540525776730004 -0.2833396821387636 -0.4877521536530051 -0.5809469299401349
Ni 0.22401485600625778 4.9207325833375695 5.79179874982799 -0.511779369805538 0.3193029876072501 -0.12347877198265185
Ni 7.6241503578021215 6.063567750573768 2.927959072759902 -0.6913177037859191 0.25399413909711094 -0.9326064795012197
P 8.743414026004183 1.7121032633071358 3.5462801140967386 0.09957779699533818 1.8707737409196683 -0.486782076430252
P 2.237789588559548 3.403121511056302 1.1245991334780272 -1.5133448929749744 -0.652425911816728 0.9036522583607147
P 4.89706089632454 1.2963869068870886 8.08957270295049 -0.7960317935665581 -1.2219795123182566 1.0492618008041348
P 8.683947906532053 1.4889208783254995 12.46014212699224 0.8039150529693768 1.8893790147256815 -0.7327019231596608
P 6.744527227114417 8.017023855034527 1.3909816641585864 -1.5467327244068008 -0.18643428976926602 -0.12296660823292373
P 1.922661962948234 3.376708316620832 5.6200219060166265 0.19029325850404 0.9707428813616249 1.1123566723820908
P 7.153294180998511 4.141424943516163 6.151227678106243 -0.29287693220523753 0.3441673549490976 -1.4960981900793846
P 2.3261462779452344 8.657698656062044 10.190735944693435 1.6638834972888958 -0.793082481130247 -0.2157939738783058
