# total energy = -340855.7424469389 ev
CRYSTAL
PRIMVEC
9.38915354371409 0.00000000000000 0.00000000000000
0.00000000000000 9.38915354371409 0.00000000000000
0.00000000000000 0.00000000000000 13.74197528141215
PRIMCOORD
 96 1
Ni 0.6984779173068008 2.816586475258711 6.687189009652173 -2.572693131480834 2.3886435398936605 -3.036791650270641
Ni 3.8640310657634616 2.8369797169566136 2.3751770121044813 0.8046115648157692 -0.16362809050802787 0.8685078492490977
Ni 9.2417439241462 6.023649071941167 1.5319549634261171 -0.43288121264673834 -0.8697003268953022 1.6394369342107573
Ni 5.894717214208386 8.638885147470816 2.300791442421409 -0.4147888739214018 1.2854279105808895 0.6254617245230583
Ni 3.0623006259189833 1.2516305146319548 0.7029518490144668 -0.13768334561780804 -0.020854989072138275 -0.3330702165946715
Ni 8.122932376852425 4.113688660950952 4.471955290825592 0.15673342027072362 0.3036632241874641 1.876820975555013
Ni 2.579810798860134 5.18281280720177 2.3544955233899465 -1.2814169896492833 0.29280956930241187 2.3328845398554856
Ni 8.537604347196748 0.926433422779498 8.773976289988967 1.2270461282078868 -4.764517695936795 2.0945430196939667
Ni 2.5305552988844453 5.387242849323516 9.492599575337673 -0.6766377331762412 0.6998884761740656 0.4388880809624506
Ni 6.830092866911035 2.2793954391151567 9.35199136614287 -1.4332123491884414 -0.7537985959289598 0.6866071856841272
Ni 6.064397998722427 0.1796238982148135 13.487350193686254 0.2924115625330448 1.0478741764279889 1.168781845249355
Ni 2.765396809633957 2.319909637055511 10.001739576077613 5.608201544163677 -1.09589569861259 -0.5068145696010948
Ni 2.1249814184136344 8.810396816943923 10.15493488463715 -0.09805107593816663 -0.23153786697612383 0.40406120309125254
Ni 6.744679736282204 9.666415343113112 4.893778979494636 0.18341041534127767 -1.977901839458439 -0.15219876562516368
Ni 5.232387538401091 6.595730202996971 0.6419026331563026 0.8310949558182783 -1.672809853244248 0.02226138250136166
Ni 4.070179323000639 8.523623897432394 0.9704694922488043 -1.8037391679676742 0.1661948227939396 -0.4017436107016694
Ni 8.341399203660343 0.499519873924252 2.6963264398243574 -1.417295677958185 0.3796681189588687 -0.046591988826926216
Ni 5.738876042154156 4.400874703222475 5.601092090373134 -0.27970002850364734 -0.06441024795526973 0.5955662225152066
Ni 2.824304359547696 6.710352990588129 5.183349866789762 1.5907003882370023 0.39361558227789634 0.7736557398642031
Ni 3.873955401156962 4.9787864986863815 12.273040625842969 1.0659896550817771 -0.14888898452564037 -0.7561691530436654
Ni 3.5491845768795898 0.3265434964838929 8.458254731986198 0.6481627656649999 1.5447095233291848 2.841879662047667
Ni 4.515591382349996 7.633532132717307 7.453262260732321 -0.36068823542225625 -0.3951433317763323 -1.4925397833041651
Ni 2.5947677206026567 3.1760126656074266 12.926306951645207 -1.9523481593590506 0.31391935469783355 -0.2893432080203662
Ni 7.129738316057842 7.933778487696833 12.140431036630877 1.3598536337906324 0.140660425968261 -0.22652601558382923
P 2.096109770982211 7.091618352294728 1.1702922766812502 -0.33550916505346734 1.5955610587634133 3.162991420728882
P 2.573801740532944 2.0583747625181825 5.481233910714411 -0.649910858704358 -0.1262794746562406 0.234595422855525
P 0.28277501789321946 1.7460633451160947 1.1551062595900037 -1.1074075559069316 0.1147521907429314 -1.019921914189437
P 6.863903209155117 2.240608845443869 5.09814893103311 0.6111643340637798 3.7446081230425317 -0.12521323817525534
P 0.8262248638506882 4.747080965251372 3.709660235168666 -0.9289490852542904 -1.5257689776709402 -0.45999786635787226
P 3.4475657670746176 0.5629145003607476 2.864281497900058 0.53245412454607 -0.594643196480305 0.08752883625060409
P 5.64843971432994 5.842260012842741 7.568997663029373 0.0439928606411823 -0.5215981556681727 -1.997033160971251
P 6.795850623599686 9.339851190491219 10.371233755870463 0.6751323522753082 0.7055243343036044 1.1684272901234136
Ni 4.946149800646828 5.5819363391244865 9.59314896054348 0.01986125770030128 -1.6083402128059525 0.38837027471855695
Ni 3.843252868766473 7.086266534722073 3.0084895085989927 0.526899256166112 0.8093182262628191 -0.0382749843207986
Ni 1.9725109525148126 3.497872852257565 8.222730629767332 0.5834493846470145 0.5839602628451621 0.9602029010622496
Ni 8.632115567699092 8.276013137737603 5.027817597890165 1.761984195518075 -0.2964078281766314 2.1277305621895293
Ni 5.678428671044076 3.6561552042572165 0.9377004071429802 0.24005490330819948 0.5686958804869239 -0.8862564314817705
Ni 7.651737701617967 7.705528162799959 0.996368533638995 -0.5077666491017191 0.35154333569819457 0.32443850906160254
Ni 1.8092805165488657 9.045679617914338 13.097655249845044 0.08436689358285471 -0.8416537051707311 -0.3397216604729182
Ni 0.960679421752302 5.575589271266392 5.660374267516959 -2.25740569279088 -0.1943147209586073 1.2730853298551363
Ni 4.780168342665464 7.89543318424645 9.663330067228246 -0.8070008909835521 0.41389104469748067 2.785561189961596
Ni 9.14311086519755 6.818891606623007 13.138441733240848 0.5365223810781727 0.6899354787264117 -1.6523415580875669
Ni 1.8554000392100525 2.979084557241032 1.5766717465340503 -1.8686140142641883 2.1641474102556666 -0.2835199164703697
Ni 3.8347087389574988 8.854375612576048 5.192213227822368 1.4739201113204488 0.17911307351750444 -1.0806331160265648
Ni 0.2529954393051726 7.388634838423388 8.76280413607721 -0.055386190079788476 1.1255438604963262 -0.6974906653658504
Ni 7.797635759971424 1.8778870621688353 13.791033917812006 2.0696840516687582 0.36223758218724716 -1.629507076691555
Ni 0.7695669551481912 6.68900205521933 10.949702328144996 0.4699228387810681 -0.8805308418519028 0.2699966851729544
Ni 6.093739103835662 7.425909778359242 5.380533360135062 -0.2944324496178155 -0.526967390399886 -0.21939660362789956
Ni 4.778863250310027 1.0674904335181123 10.450016266201382 0.7142411453513119 -0.6232058386093461 0.9174860789200134
Ni 4.675300885702354 2.424589310945896 12.708894526790639 1.1804333134453544 -0.051570672988440217 -0.06125344749384289
Ni 2.8119951791305917 4.323658303718077 5.210448842014664 0.04834908072734899 -2.0868726476329025 -0.6827171066011016
Ni 7.095871638891942 7.082144696275766 8.724313300745465 0.07632371156340403 -1.706630658448435 -0.6283297900994728
Ni 9.056918434816911 5.1133236811399945 8.166855776478098 1.9126274437306605 0.5088351995755495 -0.3975180026560961
Ni 6.402426307934162 3.4627574176580462 11.34380829636451 -1.9824902301600695 0.22988490475373313 1.0878216633552038
Ni 8.361942671816427 4.1934025753225885 10.46661722874561 1.8173403036908764 0.9926221979332195 -1.6015740977267126
Ni 4.822579149640338 1.5324882673526552 4.654819385960271 -2.009765520936255 0.7543554968736944 0.15402939107599925
P 3.1721818909238424 6.942565538319495 10.968033711704383 0.08790678841531313 -0.18553414655249983 0.15200207623332532
P 4.3176492453908875 5.162034610204781 3.9800331200237826 1.1122317167684521 0.40187165163910143 -0.2953469910122849
P 7.023809884733837 5.426066999609348 1.4084012128961723 0.519853405062924 0.017732898503388814 -0.601621427570351
P 3.476653365039674 4.6219329364339945 0.7080651820847604 2.167775751036873 -1.7181846818346216 -3.300147947308942
P 4.8774681417977686 3.204940647960667 9.708362325898355 -0.17966714624876154 0.45375137122752823 0.07623629405592032
P 1.8590993657427288 6.437325792000049 7.527345499668307 0.22805402219258142 0.41919780162237485 -0.3176060595208014
P 4.8498264734926915 0.5679029576876794 6.919661636939263 0.6744489530550384 -0.017989237488569017 -2.64938065414156
P 7.799701373771396 6.448404993290806 10.58927807076475 1.3444223868372265 -0.7153660029843745 1.354350444584216
Ni 0.7101232845618232 1.7349184197498837 12.422951608460554 1.7784384844193566 -0.0497215355948434 2.3318195889260807
Ni 5.926142711428866 3.151075073549586 3.276898182513409 0.3773404992669566 0.20648066689717987 0.9682851638497517
Ni 3.578422401302826 4.95676893340941 7.2876441629966795 0.6972178713204379 1.526155157365765 0.6986263216321903
Ni 7.595947350711459 1.6720110903871084 7.0564353157890265 -1.4507303034675467 0.4610661597213866 -3.4376798549505505
Ni 9.131646708607708 8.843343357053472 11.008050284502017 0.12086755961204991 0.3409377922682064 0.2266471145427258
Ni 2.4524093731700605 8.71227077229163 6.973722505745978 -2.1387058302541107 -3.624766433591835 -1.7402797139614479
Ni 0.8625768499840997 1.5591910202941075 10.02257223016569 -2.095840398349152 -0.39752083086957346 0.8196908277463947
Ni 2.313168224744694 6.414125193364912 13.07588837497016 -0.4429856480705919 -0.08602551223220024 -2.020852889098668
Ni 0.3437491205222937 2.5533333856059515 4.160135865074044 0.9474867390471617 0.2858369946393206 -0.467801164452375
Ni 1.438502839453942 1.0825130793360884 7.681214949458927 0.5235905035078531 0.02748432146319783 3.0727233311702435
Ni 0.6117662667300788 0.769627045731463 5.6632745770751916 -0.8135284076894246 0.13825670162277479 -0.44491526099313694
Ni 1.606887920766182 8.64363605921075 4.539497106423213 0.8698875032054437 -0.42111584458069407 -0.9054628292068923
Ni 8.111787451486213 6.123606001552526 5.914752729152749 -1.0842658276831454 -0.3965813497744396 0.8564162081918864
Ni 0.4384903752887239 4.603746145840606 13.611880416194367 0.41990819742583807 -1.3237756571211523 -0.8939100913722863
Ni 5.945146358388605 5.845452325079061 11.792593878615365 1.156961455575659 0.24959986668415726 -0.08051615237819681
Ni 1.2263455238895737 0.8785712732034261 2.7371401517657077 2.155095327355727 -1.0563631877356066 0.9764399317464021
Ni 6.974591941372693 4.23883668976833 8.089969875181696 -1.7699096210127387 0.27482058892415895 -0.636963811625387
Ni 8.240616028528995 1.7297262177890456 11.403654761641874 -2.9453310830657986 -1.2469459524556072 -2.407797230003976
Ni 7.999821794374111 3.352322192588649 2.3441608819825426 1.263557078649727 -0.4259392341112664 -2.3887679812866667
Ni 4.920076120999003 7.9621994557537175 12.428805745752745 -2.168847129724181 -2.286256555584301 -1.0771893804523385
Ni 4.1355559997697435 2.663101980767176 6.953962093003157 -0.18392000798784455 -0.35945564856673573 0.060582646679063414
Ni 6.174476435953648 9.110342719007088 8.37369976999972 1.078386743194549 2.329530278671272 -1.4722892605852451
Ni 6.623869496444768 5.510785332869097 3.5006999264174357 -1.0077675382150901 1.95149943820551 -0.03217452785001555
Ni 1.126153865437309 6.830590492053755 3.32995535079641 0.05744358682944946 0.6813076278480846 -0.13883442850311573
P 8.739358480532168 2.9627849865285274 8.426249923986363 0.7785691180054204 1.3581201960392932 0.059751923247651925
P 1.5229676655655127 3.7363104088497554 10.604558918307722 -1.740807304330144 1.744490409608686 1.3979404133600246
P 8.13608658109679 8.46981465794313 7.366633234707598 0.8114995501848541 0.3947597231846685 -1.064484017070528
P 4.003281603342464 0.422831144854211 12.552731306766686 -1.3421045373373273 0.8016483684223872 0.45718919326448354
P 6.493397817515644 1.5342909848508122 1.4724803086327494 -2.56926250853273 -0.017264957728034783 3.2742196574789544
P 7.5000183680100445 7.984526863100684 3.447435257839074 -1.1663572949682621 -1.5821566124320494 -1.3738509765109888
P 8.897819226450908 9.091292126279168 13.378143069912477 -0.2527471540638873 -0.30962612663911837 -0.8615093064440776
P 8.255366388891522 3.5634936470212124 12.459588085949143 0.7006680346525674 1.0483084357519301 1.5573279834241438
