# total energy = -381165.99297578476 ev
CRYSTAL
PRIMVEC
9.23474966226854 0.00000000000000 0.00000000000000
0.00000000000000 9.23474966226854 0.00000000000000
0.00000000000000 0.00000000000000 13.51598959353613
PRIMCOORD
 96 1
Ni 3.6729093262291164 1.1396697052482267 11.222163975517415 0.2066344188662248 -0.18078660456518542 2.1315327095444387
Ni 4.128025499696217 6.246163118011965 0.12298747411110321 -0.14777286864332614 0.23695569555758544 -2.736297824950094
Ni 8.6955604457293 2.0893436684979525 7.378284338789034 0.09224989587535726 -0.04729441421058952 0.7038528601384524
Ni 3.533870933523301 6.561197372047974 9.129820860290527 1.7282235541278625 0.14219074656985833 -0.9718155456005134
Ni 1.3848707814387684 7.206632503755919 8.597575133175829 -1.5372204140409913 -0.6820054252460577 1.1080863271415111
Ni 7.942494305321417 3.335905602463621 4.4866459257495555 -1.7413842598795364 -1.4876318044795864 -0.8222570458116744
Ni 7.862253564472531 0.7285940534876902 11.442433997723638 0.1310632691981291 -0.2586771463950771 0.12875159034581696
Ni 1.6923325406541903 3.741458873854997 10.856664584352057 -1.1267723335867885 0.041167732487561365 -0.06933391050913221
Ni 7.17190984457859 5.324313455853008 6.015480915427433 -0.8659048644086119 -0.48184298725742175 -0.5042907747379766
Ni 7.051433298932996 7.788024645731209 5.578197967262816 -0.8625578023132501 0.5093288513825164 1.0304783495490448
Ni 3.383787780079166 -0.03646617993602027 0.3203303830355306 -0.0407841238958975 -0.23204874517427135 -0.654693367694666
Ni 4.837328160890971 3.986724593294007 1.4146510025331964 0.7660473313893259 -0.6253475675426973 -0.9969730187027475
Ni 2.7975473944687432 8.471072913297998 10.192799662505763 -1.8096185095665867 -1.1026034496500687 1.7810142155663327
Ni 4.704791032031124 3.3696678476637043 11.44878658209813 -1.1728765841440187 0.8099499463095471 0.6550355815254331
Ni 0.2068639359488492 4.7959934208703 8.47483607383384 0.766725331292957 -0.06268349507215011 1.0104378859584018
Ni 9.054755273219028 8.245338689646236 2.193888423821012 -0.6825312158425406 -0.1632722498305059 -0.0796705165484499
Ni 7.217751142492489 3.8813560982904636 7.93091208214583 0.07410639219711108 -0.006768943292717376 0.7105667818235181
Ni 9.119980310923676 4.012018572944726 6.170509277379404 1.87949029485706 1.1319093977030377 0.7304923171028517
Ni 5.790889953798583 0.5708765323994333 1.3834153848732504 -1.3443925620405557 2.1438588352099592 -2.3542892307835066
Ni 7.007014152485403 4.323340457568692 2.657229988918232 -0.28664637791449343 0.7208715061836359 -0.9366197144256709
Ni 2.3040423661611755 2.5715638325728882 13.314006567306162 -2.100898272488033 -1.584565221873542 -0.2332813320297918
Ni 7.95555224151204 3.095331135913463 10.6294740406598 2.3008527082309214 1.1396193647527857 -0.3288137553111627
Ni 4.003439490397987 8.515676754741216 2.5869600074081123 -1.7407720802168343 2.409503671172121 -0.05851033753106697
Ni 3.119424598092625 4.253747383217535 8.84778329069774 0.2946749046459248 1.0427713079837848 -0.5768925573651033
P 3.4228600064034422 4.239313469309512 13.145814069541084 2.2110682431769213 -0.16292386535215167 -1.468060310105562
Ni 1.5094106169880919 5.1204655891827 13.109928755366301 -1.7708534729832472 0.3283519851833958 -1.0468382789643067
P 7.107682159850312 1.4177187864105125 2.9739505082642896 0.7298852796464721 0.3980340230605661 0.4602387787240848
Ni 5.075593939995827 2.6920773172176067 8.32340372344667 -0.21723790541368396 0.4922189311751071 -0.09878846832482342
P 5.235031894968324 4.685564282986656 9.907287980045286 -1.2245899533579103 -1.3054591182001516 -2.499857635576346
P 0.4865817363965987 2.7759842537296304 9.190481161178324 0.3589784518200011 -0.11710372169424348 -0.3761652480119328
P 0.3711104251324178 4.425855414889843 3.946980077185659 1.9940848769762043 -0.2968981375494887 -0.5675882492450418
Ni 6.156281298391502 1.9645729642040985 10.540485221343179 -2.1312516879689096 -2.030516637440677 -1.569615028321613
Ni 1.1090472749737526 3.369381570420487 2.0484023288179602 -0.47058824027920887 1.3258428240628264 -0.5821602335219458
Ni 1.7644836406947408 2.8626985541751404 7.302743162103805 -0.1715334613980336 0.31809302645954896 0.22971983993077857
Ni 3.171794864101836 8.173612388095622 7.2844971434860994 -0.08675159176494737 -0.0723600989299657 -0.8643979408457823
Ni 2.953725482768473 5.249170296883348 4.74913999438038 -0.8724249249153169 1.4867848830982588 0.6554878385715034
Ni 4.619332657555858 4.864247456503182 6.627822397819453 -0.46240493313746817 -0.7848636927648805 -0.5660990662940251
Ni 5.774091943946572 8.071042022275783 7.872023006266067 0.9110182118074827 2.2148832460476373 1.5208046916871292
Ni 6.775923773960542 2.6361609072924135 12.878562257822981 -0.46224192519704266 -2.0153759251444967 -1.3013252985374362
Ni 3.738605336172605 7.605379764558546 4.799690091207716 -0.5534708360070533 0.28314093586439626 0.266452933685754
Ni 0.8027380125310248 1.21406484948561 1.294030394791016 0.8128828036856259 -1.1982667420823492 0.5991755371330197
Ni 7.025335896051312 6.857780596021137 1.8936851779336166 1.0115360041185868 -1.0106944820538981 -0.8106125195942105
Ni 7.428875991990386 1.0562337409750442 5.153376390452958 0.2936279514386491 -0.5052649657257879 -0.06633806110560188
Ni 5.48740837173886 5.802470330024215 11.600598480701306 -2.2691247810000212 2.1056550704467285 2.380897063179022
Ni 3.212113781646575 5.36840938605826 11.023452476675415 -0.25535990909638606 1.2012204253940344 1.8053800460052067
Ni 8.126127304720669 6.942703355009094 8.961276518558787 -0.10738546596521505 -0.44288794615046306 1.3767632650617774
Ni 4.6007246367467305 2.05965394795138 -0.0873321052058727 -0.7039572469268006 0.7111815325893817 0.8911847220213233
Ni 9.022895386473873 8.430938690748885 4.682600851781868 -0.05866537505169252 1.006645508795505 -0.48102383379023606
Ni 1.3466666215939254 0.2253583693356674 8.207192708725016 0.2509095866345163 2.159167954763204 -0.02699966851729544
Ni 0.9789204158068002 1.5248972923711717 10.824550741987919 0.21611201933935684 -0.9552656116616324 1.1354703755814186
Ni 3.7085092866356595 2.6260580910317755 6.002045277970759 0.38699910540264315 1.183830254942045 -0.21932538407033195
Ni 0.6990419307128578 6.536762224126908 10.94030186617047 0.21446779886771453 -2.384196816976216 0.7460112386740572
Ni 5.940936168243594 5.859116285182123 8.284450625394571 0.49752080300399476 -0.49823376991061935 0.5113178567880872
Ni 5.851469912363285 6.327816775577375 4.36073103595781 -0.8036934238768739 -0.3988225804001325 -0.8549622493541792
Ni 6.187116127910943 2.971059108107794 5.993327674177301 -0.5950059791363624 -0.26290969641918593 0.2940583541078484
Ni 4.2981849991646905 0.2992705361594937 9.101883895252428 1.5230965730450996 1.6995392988192926 -2.0231113461155417
P 4.911566314382074 6.957349668162084 6.53881972637816 -0.9763512286873378 -2.0799139569268825 -3.234468345722945
Ni 0.1578791292094281 5.6518977348416755 1.668048842629535 -0.385455157954291 -0.976419620031428 1.24040480890298
P 2.8770401205853515 7.419087157222308 12.332772846679168 -1.0096277313522806 0.5739879821237986 -0.5967689845740561
Ni 6.548675051344661 4.850681609074592 13.347985829126104 -0.004106823079521959 1.5889726069126184 1.1751926338717051
P 4.107219608439164 0.906649264019094 7.0893798092589435 0.7729003497554173 0.33470775219809457 -0.5076244670968999
P 8.411213265216231 4.580629821222829 12.183948389630212 0.8240092526160905 0.9018931095777629 0.33225466267191167
P 5.342662903668262 0.36117752826775423 12.4602964298828 1.015710704321567 -0.7485674294370076 -0.23078093420544124
Ni 7.529636346853107 7.6748250829132045 11.446380929780126 0.35034802983851276 -0.44149389401641387 -0.5159854374670855
Ni 5.971429312021131 7.580602930895576 13.254117368025094 -0.0955041411465968 0.6364729880318974 -0.01744082118426674
Ni 8.372187212640862 8.730393921904001 7.395030634042271 0.8469445212560254 0.4646762456701481 -0.5394290132020064
Ni 2.1689010378630287 5.836758955961827 7.0136631723278695 0.45003509871820563 -0.9956249893152853 -0.905856465100885
Ni 8.894384608518632 6.459910636447724 6.956869461173462 0.9160922838962804 -0.3871019495290946 -1.7324553328210226
Ni 0.7045033617334622 1.2012562515390794 5.71793912442698 1.0718445712006575 -0.6097579406345564 -0.3131716778985316
Ni 2.429293277443652 3.272241237471997 3.942762566960583 -0.9399256388704521 0.18652247860769813 0.7961852884252868
Ni 0.9115455283530886 6.645353646804091 3.8165373895761894 0.2600064067294619 -0.8359265728789668 0.8434498778392053
Ni 6.772017474803092 0.9916089620061752 7.59666216076509 -2.8273192477349887 1.2819857176685598 0.35896868162798823
Ni 1.741997024977508 7.328697426363879 1.1192682960315898 0.4519729391708667 0.506032954240064 -0.6530905419839204
Ni 0.39827813551374325 8.57273827363928 10.291967023031228 -1.5063692329880893 1.1964371450727782 -1.4053439049129475
Ni 2.9628032418033974 2.1047749353823453 9.371555211413204 -1.669610886690976 -0.27863379202266203 -0.40981096109083615
Ni 5.323279163877513 8.141817144598935 10.467080042282339 0.7374882888047105 -0.6623449707026527 1.3660623337045052
Ni 6.159938259304859 8.619900140771891 3.0363534064358 2.1294007508031005 -1.5718434034314994 3.4142967001399196
Ni 1.6601956114155987 9.301794064616029 3.234295650621028 0.6753331554322046 -1.7355481128137336 -0.3694096744556541
Ni 7.176841200961753 5.476372845750322 10.456739892952324 3.6446343761603557 -1.2018398041455882 -1.4284259835433915
Ni 5.0666085284587155 2.1560093271684675 3.3749021038396916 2.1734907991437797 0.5068209973589981 -0.11177382484089782
Ni 4.688094604426707 4.428265684582737 3.625137042135967 0.5062535548913023 -0.35747949867697143 0.5875407811075687
Ni 5.060282724858591 0.35935181823601015 4.964692906398365 1.6608475386760493 -0.6178826266242198 1.9776190181106974
Ni 4.705206595771279 6.491401133201631 2.1628421185315805 2.0486460000515363 -1.40687653950739 1.3767254698453062
Ni 0.8366794118768639 8.455392308169515 12.574384375629757 0.32193142636903266 0.551073025198838 0.47943746313972274
Ni 8.324905293761095 3.4784070263373876 0.5888104164745324 2.2825500532669913 0.11410838651134542 1.121106907770895
Ni 7.698345990605933 9.040275185562098 0.40931827887717326 1.567697756694242 0.05983419854881307 -0.7939797961335358
Ni 3.246660980578061 1.2141387274838598 4.261132412617564 -1.9019295976971824 -1.1144048131603712 0.6731070943151634
Ni 8.693104002287498 6.637661100236348 13.275256633749247 -0.7930891659984665 -0.2754569369565772 -0.24949085191011866
P 0.9696117880273462 8.156389579753675 6.417567461750945 1.8233235178575051 -0.09484593873730762 0.21524607179463578
Ni 3.1955558752888753 2.0941087993850536 2.1328236408927976 -0.432878384433261 -0.7994061093554297 -2.029469941343718
P 8.039523821272532 6.29772996079021 3.8031830179175894 -2.00220544920081 0.7890828730525508 -0.056591780352115435
Ni 2.810088184671619 5.08848565069039 1.5394170894521595 -1.630420846755076 -1.3107424780862782 2.33835199072796
P 7.244254874364546 8.833915466951304 9.290390995586199 0.3156934158791208 1.2918620962420073 2.12378957526391
P 2.758068839154094 6.720810787266313 2.9354157443772793 0.9297867506642373 0.7581026226209524 0.832954120514204
P 0.03822817019427409 1.2782001867160753 12.985784167107614 -0.7399426638824741 0.6394068738492408 -1.7549820531686293
Ni 0.21347509331721348 1.7588135043290813 3.471609327023443 -1.8377877729119512 0.23498700186698884 0.4874536485759798
