# total energy = -340897.4551774098 ev
CRYSTAL
PRIMVEC
9.01215278753302 0.00000000000000 0.00000000000000

0.00000000000000 9.01215278753302 0.00000000000000

0.00000000000000 0.00000000000000 13.19019656692615

PRIMCOORD
 96 1
Ni 6.392103814235304 1.9876483631720583 11.49234163459859 0.17856440010288602 0.46303356786040256 0.38651290979484404
Ni 4.523037359922009 0.4408420798372704 6.015560742236201 0.5156380814299959 -0.9673330843491276 -0.8263150179311317
Ni 2.625573611581205 1.5728369859907882 4.772094515922018 1.0658521010626483 -0.09731008400708402 0.06759044545546423
Ni 3.1556324010201027 4.179052492979454 4.792710717070013 0.5186979513022422 0.47086540519999553 -0.04966522843561124
Ni 5.100166624354775 4.656795734392427 2.4615938833209268 -0.252148858358256 -0.28870403177447057 1.011466327222916
Ni 7.47025471121816 5.959628617220991 2.5736050314448575 -0.9106862823893607 0.5062556117738314 -0.43689958977751214
Ni 4.960973921639803 4.596369248688064 11.409467678261501 0.29709508405164314 -0.4546630844085202 -0.3423156464523395
Ni 5.737569167891311 7.765330623959733 12.415232962540786 -1.3338425544388512 -0.015709954536089074 -0.8628408807713075
Ni 1.9693356683247403 6.44806027206355 0.3522003455955146 0.21211395392355728 1.1319394796100248 -0.2786366202361395
Ni 2.8244808399154326 1.587346552282216 0.4374156592757792 -0.43331752885320857 -0.3312485900049005 0.11898551209798863
Ni 0.5391114971033321 0.13232093607073953 4.850536295425489 -0.24987317495020192 -0.3380087915468695 0.025263659662795198
Ni 8.525091168451995 2.2486042647463362 1.3128543969379227 0.20825035720309296 0.6343245742303268 0.4349242112186962
Ni 6.894711585709177 0.7142771096374738 4.915155234694308 -0.5850416688347988 -0.27142364742746805 -1.3202848703590746
Ni 0.8779080675775791 7.465550367364665 2.492841721334758 -0.3776202352909045 -0.3836047350091135 -0.013149907118396706
Ni 7.559511074292882 3.706518275986634 3.7014327180622537 0.08575014708362651 0.2114423817778294 -0.032978254698233525
Ni 7.842654896494175 3.811572943228358 12.574597567262032 -0.5924742138534442 0.6365105261380521 -0.46169993665064357
Ni 7.706670520238674 8.655695289380798 6.990777531572596 1.3061754275408861 0.5974624110966549 0.7763980784960306
Ni 6.786592786455599 0.4660716020937006 0.3452348525603316 0.5473284705547413 1.0991090633435652 0.4016106846682309
Ni 1.8719233068067005 6.4627861300264025 9.215647390241228 0.00820798973208909 0.4133187171337785 -0.8917099983971739
Ni 0.31645634446193605 5.022157428194154 1.3928453655379756 0.0036509664890259706 -1.404671304325955 -0.2428589484158979
Ni 6.31514903997288 1.8638123691282624 6.915052916191402 0.8098257620268569 0.8308820684765238 0.8311080684444009
Ni 3.387163623127603 4.43345655934015 0.3423122113502011 -0.1598825074226666 -0.18450647661893385 0.44580717667978703
Ni 6.182219783576257 5.738136933528803 4.647223025501274 -0.7739087364152736 -0.9658367023092591 0.47922406157733594
Ni 5.317269389547631 2.7962728011004203 9.414700615453667 -0.5098813814518767 0.04832079859257484 -0.718188302924518
P 0.23191333739368422 5.6606234057818625 12.325896391304578 0.886831330148634 -1.161840123824199 0.025049743879776213
P 4.071357264915751 6.2527218563078355 12.47270256085371 -0.5461745594559562 0.4524581063374014 0.5112713198208678
P 2.482712962604984 8.483644276915177 1.3155634501225213 -0.8894235163558424 0.012936762666326108 -0.1227588630974918
P 6.272575629314056 7.7489194933903605 5.734227461567794 -0.5807427843491288 -0.4780930332966863 0.12386366612589637
P 4.7759994818065366 0.9827933063433534 12.60083284579059 0.020969917383447757 0.19778853843982064 -0.13272908693632623
P 3.9153118361355794 6.17472167230019 8.155076500068738 0.2582948233549939 -0.19987575998615253 -0.060405497671250814
P 4.739301994888093 0.8996435781251978 3.7400146461679875 -0.21694942763898764 1.1871315514011362 0.5870826105242276
P 0.32817935305317175 5.5674287318566105 3.6321842358096426 0.09908234541615839 -0.5437739204342634 -0.49462779772691584
Ni 1.3382055832595297 1.0286651649914083 2.6076358222976905 0.028884544244834123 0.5692586949689292 -0.8288544965235338
Ni 1.8863517637213438 6.531341577715156 4.774191643919543 0.20242346610867074 0.28056006251109744 0.48914723422831896
Ni 5.932529073222033 5.534615482870842 9.080276741603395 -0.48375177424436044 0.31256386911120365 0.36629169765196273
Ni 8.4715229311624 2.5368760019909975 10.119307684947847 0.4803792582277018 -0.5404021757485532 0.67224860296961
Ni 2.347728935329824 5.087603683106172 6.986649064294271 -0.5940844957633574 0.13191944655083732 0.1255053154943774
Ni 0.3307874701244383 8.863966144657134 9.12729945218649 0.8224910161993513 0.14601397697069046 0.07209990329004357
Ni 1.3968116140627318 1.1143707397935694 11.365636171047223 -0.04781609104201443 0.4879634983328629 -0.4556845836944991
Ni 4.104233598972352 6.785457255180618 1.6743769135718556 0.29064341488902845 0.5375917028829515 -0.5759913857070724
Ni 5.629982085663319 7.879559662931069 8.094349008454975 -0.7435069841949646 0.04668249165820348 -0.6094920885676793
Ni 5.1713806571714604 2.8645849206588196 4.857395445055555 -0.10005267974922769 -0.5409048264165845 -0.6211972928197494
Ni 0.8374822529729467 7.415100335004782 6.913496517372439 -0.03813434497787625 -0.28582491045446257 0.29048863447871903
Ni 4.892184157973673 4.477417841557283 6.8962310347009375 0.6038086650296568 0.5582271197451161 0.2085617177959247
Ni 8.121247581442567 6.87052296712148 9.088877039188432 -0.04730444151291853 0.3399486888820597 0.3909418921004751
Ni 4.782839705915354 0.4401418355510319 10.380962028377768 -0.894253333644318 -0.7300205196727556 -0.31699825073347343
Ni 8.199698373099015 7.103387987869435 4.788687691981507 0.48727649956816727 0.7940643854275421 -0.09660354485836267
Ni 7.156045997708448 6.0742812273822 6.915857701452162 0.010516326150291567 -0.038999264081332835 0.10517457435682533
Ni 2.469465097730202 5.312474924164377 2.6720177419432383 -0.5679294346345446 -0.8787310696390027 -0.27513914860584227
Ni 2.450990184129316 5.275137574384634 11.326369319315308 -1.1172823918184822 -0.5579918638058584 0.11295858917761835
Ni 1.0741855496733972 3.126018466340828 3.8698455243714465 -0.570295877984192 1.3201195484258037 -0.8409021717166872
Ni 3.7673773450338466 2.6160207294266002 2.709992250938387 -0.4763716797302054 0.0993451121592418 0.08665106163134109
Ni 0.9335148538703547 3.30330553968553 8.243002669364195 0.44144170062223975 0.18976746790755702 -0.510857886432533
Ni 3.5977235652598525 2.5285127240292304 7.001462340140992 -0.17096010539306686 1.2321757361249683 -1.17908939782295
Ni 4.028017821253964 6.826183174479352 5.977823252864323 0.6694144759549245 0.617223395773666 0.4998296536428295
Ni 0.8812101204280011 7.472354542861578 11.287075431124467 0.14206656228716824 -0.4408914845457245 0.24425839986658582
P 0.2321467521557637 5.434841937273077 7.962552579687441 0.43692890035355075 0.4966432854950479 -0.575404402855351
P 8.58829339727298 1.511347066235252 8.035151780416543 -1.0064773586487568 0.7181001140860859 -0.6984514866172229
P 1.7572977331044197 3.216779858962549 10.4398961015493 0.18980166357960215 0.11218751533954872 -0.24947645373241548
P 4.128341108183265 6.130760390083056 3.9174756540651274 -1.2587419166492708 -1.026000259173033 -0.8588896094330435
P 6.787917572943077 3.997872169549102 10.404704545393152 1.2874739944766407 0.4970451489191569 0.16177329668747623
P 6.411678210499267 7.777100495746445 10.090830182758852 -0.4028270735738353 -0.38136941792069157 1.2596356321081337
P 2.486317823795401 8.586824416337883 5.855378735240028 -0.8056392347493351 -1.255229275510322 -0.741688185818671
P 6.857887928649069 3.8594094512251895 1.4485738158959278 0.9607184072460875 0.053807789849075076 0.4322574630198104
Ni 5.082034172566978 2.892594692108359 0.599153163875618 0.48561890936008617 -0.6157707224875395 -0.9425291379315702
Ni 1.5835704601852545 1.1003207933039196 7.05207278882385 -1.8164751274771038 0.4747919939479113 -0.10228645417575287
Ni 6.990663978445098 0.821093652786014 9.375407628478122 -0.7896582859400464 -0.3968423167453101 -1.4064204258065778
Ni 2.7066108911417763 1.7792423256010823 9.005303739780404 0.3151267447423734 -0.8675472851080415 2.24784093192058
Ni 6.322034324846576 1.85817076136526 2.463968585630114 0.40278182215819663 0.07769976597532426 0.8169592877478448
Ni 4.070978754490756 6.868504244854846 10.297982629850859 0.732576710435706 1.1336875726493831 -0.061207681857572006
Ni 8.175590863888102 7.041294253864503 0.335882040201795 -0.552962271801751 0.8927150426229207 0.8432143647896317
Ni 7.553905515141784 3.9215572581479767 8.043751176786284 -0.28993199064430064 -0.6371111358365286 0.21997073096381473
Ni 3.0822915001010713 8.507400312160025 12.236650842813425 0.4674185843019756 -0.7611527223011859 0.005702963922048243
Ni 0.15558851262428527 4.806794008525673 10.17167279981514 -0.06702968785598779 0.5370898235458685 0.647897170708439
Ni 8.491250534026957 2.4797479642758664 5.922055149033276 0.4928509083321512 -0.594683305689621 -0.06085698338637261
Ni 3.626436284641523 2.598870602313192 11.461648043992785 -0.12417451249809583 0.056694881588883 -0.14809219965595785
Ni 1.2038884553045968 3.2365164739800814 12.740107559097643 0.10461561652956178 0.5933252489998297 -0.540631775260856
Ni 3.2017025270336306 8.534571953382791 7.972801200051796 0.07881845296079974 -1.2165377724773951 0.6663198961900009
Ni 5.4747657749569445 7.835057651535372 3.574384792697796 0.4920988606574751 0.5069981463668107 0.3147894160076127
Ni 2.8593398476267633 8.467692766147582 3.5733033343406713 1.4288113919072682 -0.5133492853958191 0.06903463410115852
Ni 3.433738429707789 4.269615618235703 9.244402466741885 -0.22939562382214043 0.013476437219880016 -0.3275539147621327
Ni 7.253719711662794 6.112844229966685 11.485297735832516 -0.12386546589810925 -0.7105230730697762 -1.5774180693057993
Ni 0.44479841499375294 9.039549921089362 0.30767850746327097 0.861872089100135 0.07153477481519294 0.23515258091057564
Ni 4.552867586272709 0.28415138090401515 1.5999311226979613 0.19870487960650296 -0.4781866214517571 -0.13107792448614847
Ni 5.9968037482471654 5.530920500150664 0.31237654280968175 0.011260146294851576 0.36966524210988594 0.48849931623167475
Ni 7.97179904864086 8.781604078609083 11.344031336717757 -0.40790783053085233 -0.01892203371548354 0.40522025639636017
Ni 0.012274552353369468 4.905107585341318 5.728344328105035 0.10917161133136037 -0.3664876157128527 0.1711889335744213
Ni 7.872584256527611 8.815715077623404 2.488396927486974 0.08544341447648511 -0.31674422574113836 0.353435667624901
P 8.437520077983793 1.6466104702526696 3.6220014041620123 -0.30456542428675937 -0.37782129555811705 -0.2247738087794129
P 1.934215308177104 3.242428446332365 1.652836966743817 -0.4438305125693905 0.1428072971079347 0.32562224495705855
P 4.741618118202937 1.1320796203914925 8.129395468948207 0.40956593495956556 -0.7268382652900321 1.340464173520427
P 8.464745792124416 1.678576576858691 12.31820632117012 -0.03826290013594055 -0.37104592450749646 0.5445637633254105
P 6.248080597525173 7.581023083446694 1.4832111246440485 0.4697734576873974 -0.13248251814315895 -0.41439086715203477
P 1.637535232205795 3.1546681006516666 6.038538127463919 0.4667701520846993 0.10566616928126318 0.07744137010761501
P 6.7638280880381165 3.9010726344334326 5.857753437549215 0.5156321678927249 0.614656149267122 0.5020677989447289
P 2.3102203546435365 8.607669526171469 10.003524049588146 0.7199459090455729 -0.16078265063943278 0.6406556586546772
