# total energy = -340865.8340372214 ev
CRYSTAL
PRIMVEC
9.33128013100721 0.00000000000000 0.00000000000000
0.00000000000000 9.33128013100721 0.00000000000000
0.00000000000000 0.00000000000000 13.65727169197762
PRIMCOORD
 96 1
Ni 3.365372850015565 7.980082808264854 10.312892586567543 0.4899877278517432 0.8864865452147055 0.425782396818428
Ni 0.7371580697043978 0.16425665859132405 2.6643837553813734 -2.9169687298730214 -0.7194633129821997 -0.7229260747198195
Ni 2.379681731728853 1.9795751005634248 6.928170393989717 0.32095954937406657 0.1579068717535345 -2.4979120818142015
Ni 6.8077847491216135 6.905987141639571 6.865606026700245 2.0444551018986403 -1.9712784206046503 -0.5993308317639614
Ni 0.123601204014976 2.7425472237324438 7.745708111085761 -2.81244207351284 1.8610035489067822 -0.6936491801325732
Ni 7.990020621646802 3.81667088419824 3.575937852710734 0.445735185791271 -0.9525253299123336 -0.7618854867021524
Ni 5.825303591213671 1.5881558912370521 13.304873327418788 -0.47615467862339284 -1.2935726511752108 0.148020465877758
Ni 7.51839905925203 1.4403764071714036 6.892743255693092 0.9268014427836683 0.33017926820012167 0.3992236724932931
Ni 4.536859087783942 3.3567787409782177 5.654138052783854 -0.39577685159527326 0.7232937424718834 0.028066162108596828
Ni 3.1097424297353067 5.928339586860125 9.199347066763984 0.3457475549520239 -0.003235990438794427 -1.2275634341639374
Ni 5.061500984109447 1.2255050186773901 6.958284301357063 -0.6957785677707501 -0.2454462495270999 -0.2985590701916794
Ni 9.319289475823972 6.680160830224986 6.226487052110815 0.376681525526719 -2.0117241873245226 0.38477124451338895
Ni 2.4266367335485373 6.663943065288061 6.695013428872918 0.6787743199032698 -1.1879597037293863 0.07111259967610978
Ni 0.36728945193258833 0.4174245540344963 11.209819902229107 0.9383061009891582 0.288738998777464 -0.4742831726322929
Ni 2.045099349923088 3.6122505294955713 8.597607334282918 1.3468168552113322 -0.3032382208349036 -1.1221602887360738
Ni 2.594721083265941 5.1324653698087115 2.1310945617215475 -0.9753114745689138 0.7794193818208577 -0.760007295842833
Ni 6.698198194795227 8.510957999744482 0.36710375945718854 -1.2994936446453362 -0.037339874101038915 1.04113454371131
Ni 5.449458288492437 9.071553318568247 4.432986076306164 0.3950937094853196 1.8786076351417904 -0.7066965002348344
Ni 1.6977424455634382 2.4782387128933014 10.813786374858251 0.18483377805136553 -0.23864413900360193 0.9330836762479543
Ni 1.9968846252803394 7.828860081816164 0.12564195498833947 0.4992483272180628 -0.5765719408008908 0.9620862341278914
Ni 0.1855674362454965 5.603396417470842 2.3276635772884684 0.12165251740719049 -0.10848461256666478 -0.44844872806769215
Ni 1.0463537706773658 0.9209936203501857 8.355231997485344 0.21554714797482236 -3.2503387370962993 2.2611929277474543
Ni 9.157391764859838 4.006375810071488 10.809620891389986 0.305658400240622 -0.46737256155538864 -0.25213420307023676
Ni 0.2638942019995569 0.6904708756256165 5.792841000627324 -0.41464489214436984 2.031807074117327 1.3013139856835265
P 1.069290057337299 3.525712237191169 2.4673771027744396 0.013558198300408908 0.31104768957699336 0.9088140050673122
P 6.483214830939164 5.582736963172595 8.984477544526005 -0.7685258748368055 -0.8107611293569327 -0.885613655691449
P 6.458757545611383 8.946738115003045 7.093381642542518 -0.17615707621297405 -0.6336344901418378 0.19348862551288615
P 1.4390140402664604 4.314317386989495 6.590726108555554 -1.2330758793417345 1.122858086134047 -0.14916949188053666
P 3.639059297426405 0.29113314194626616 0.4739711787417909 0.548595510192623 0.8574166244319428 1.014335421240595
P 3.479391762423101 6.03912987632855 0.2979319126787427 0.19565555125721787 -0.5871330041461889 -0.17129126348024049
P 8.638283317675642 1.3737883918722642 4.035163742526557 -1.2325534311793611 -0.05779171419748756 -0.7974628695861299
P 5.29140506495869 8.188580932402182 2.3876189186421723 1.0528204646896706 -1.1310352226282003 0.14264326072624467
Ni 6.102274649244648 6.880195483247359 4.457760625159753 0.8886046199989728 3.6283469518542417 -1.884625044980464
Ni 9.122996666150108 7.662903263977712 1.1208491127932778 -0.32957480184690335 -0.018625842631303405 -0.307639949447025
Ni 2.636263942586537 0.1187172119735565 12.28802133212956 -1.6052949982217257 -0.8031905160985264 -0.8053098764343743
Ni 3.2147846506184923 4.111474018635699 12.767036067803692 -0.11428682107073865 -0.6044774089619073 -0.8628372812268816
Ni 8.89945651837738 3.7871280511773495 0.7191001763177814 0.9622600407015945 -0.5286329510277671 0.1676626655887177
Ni 5.902473278226547 5.942924377767153 13.484603114789403 -0.01617480998764956 0.9803282110572148 -0.5580962505942065
Ni 1.8562155767048736 1.7102650235527104 1.5112045561801741 1.0299001084480714 1.3340742108336832 -1.68805006723277
Ni 6.134691516558159 4.872887818016187 4.69367684982307 1.1559546115776997 -5.1338139847430355 0.347353208876247
Ni 1.2511193827463556 5.503766339086746 13.342581030589166 -0.21046459124559236 -0.6682379391483201 0.7977420913894454
Ni 1.3978164383121863 5.724936341696078 4.604030308093758 0.3934772569278191 -0.6120009710324621 -0.7236017606306053
Ni 5.478637201586665 6.616549493300347 10.79380623775644 0.5775440749061731 -0.02604990300951643 0.11195688738598139
Ni 3.053848061511954 9.1461382409738 2.8188612323536533 1.866925827928488 0.1836901513652256 -1.8644495984738536
Ni 7.911712518453084 8.873021001653381 10.020121804951293 -0.7831449103015609 0.9330281404196705 -0.75972524582604
Ni 4.15009618726282 3.1217331247548405 0.9227273722059284 0.23528242162022056 -0.9276835882783055 1.4007678555064906
Ni 1.2885471475116088 8.337218894243547 4.641847187242137 1.312857724657068 -1.301496276897662 -0.9027855394850453
Ni 8.195383435646725 2.152661016452401 12.717446845591779 0.6846400346554273 -0.5019395008969807 0.20826372693953166
Ni 6.347929931022275 3.8011343027137854 0.1336668559352649 1.6159347373237587 -0.5527167314498481 1.535498032033246
Ni 7.091101077668764 3.9522357225202547 6.8611951305634875 0.010364631063775697 0.37432562370003275 0.021193089137847374
Ni 5.6138847763828705 0.9763038504348435 1.9172076232855582 -1.8561055973845322 0.27255956080412413 0.6136775874039366
Ni 4.505496655129737 7.629478618405751 12.876485452311567 -0.6145450776105544 2.1930239840807007 -0.344254258235949
Ni 0.17380909010221657 5.207162267576314 8.666535634648906 0.1508913596676498 -0.03300602261237541 -0.6629707772121098
Ni 7.6662531935590446 2.17566262207353 1.8482252014945804 -0.23257864953581234 0.08901596231909185 0.5090573428886846
Ni 8.251091178266662 8.204313470770224 4.977174205205535 -1.5468245127896585 0.2826992203412873 -0.5008012735274795
Ni 6.233444454606196 2.012719807730261 11.011517134806441 2.7676915087700267 -0.7729741404161462 -1.4337322262476535
P 1.3087960254823392 3.0103642959158234 13.220211555556741 -0.04795184528893032 -0.23694284004177904 -0.6868640388899397
P 8.496681141083092 0.4865684069724296 0.9729595196216132 0.4730798963528111 -1.4625190685723588 -1.8834631634618788
P 6.267149038583282 8.725390818070467 11.47063291551625 -1.2288093907558968 -0.010838228266084559 0.46004106089098185
P 4.179340419318243 1.620302151425608 4.255688020548068 1.4831711976050714 1.3752267738125927 -0.5390595456777296
P 1.8382248685354874 4.602150055139334 10.346571976088168 0.19174130380447624 1.7207796962553075 1.9611086791605
P 2.6213338943131865 0.6831112949548722 10.042041915200622 0.4056084929737144 -0.29104424987187294 -0.5946069439257308
P 5.288904281872903 3.526748009290132 11.975105249752476 -1.7815860289094028 0.7900529502753039 0.5026858921447019
P 8.163946352751154 5.6544571825656975 0.18050241736876263 -0.601885479865015 1.2950039843050987 -0.4528800243661685
Ni 4.829450708820911 5.42206164991084 7.336754493190356 -0.19666162392422903 -1.2760402987184023 -0.011085568390200263
Ni 2.083889481593284 1.335287529887364 4.115318506066087 -2.4409222946927187 2.4924176343585334 0.30907976721734515
Ni 7.085688935169675 4.62324807960561 11.477570722323271 -0.9322542383681235 0.26410525938918383 -0.16069523313194906
Ni 8.010540106742488 6.653109449009712 9.92927339433598 -0.17355203448995918 -0.26232271356746434 -1.8512786083095345
Ni 3.2651175758600224 8.617558544416198 8.059757010875584 -0.844352849269449 1.1137535527296174 -0.43429763337829075
Ni 5.326677304004479 7.517932495243487 8.5053387028256 -0.36094020353206224 0.5016754486023166 1.4814297894339326
Ni 6.948388478735883 6.096358617616334 1.9821617314267825 1.266636231795683 0.932966948164432 0.3043589647029081
Ni 4.70199475296736 7.70237457910038 6.1955939828492035 -0.9039301946124497 -0.042945393213274424 0.20284435569617323
Ni 7.5450305328596174 8.939291753426712 2.7756359432182554 -0.5597551263538683 0.3671226781936903 0.3981108990450885
Ni 4.273875618729059 3.696045425429746 9.757861510109652 -0.031144543923604426 0.33512941311654537 0.9374432387682307
Ni 8.212506334760224 8.315906250333342 12.36215275431881 0.5876245990706267 0.7979279821480064 0.47920426408299405
Ni 8.708687826564656 8.264378921229943 7.687500518508055 -1.3232305832509599 1.653718898051068 0.5745875633810104
Ni 3.707233630354587 7.080985969963569 3.5377113303628565 -0.3759112230195978 -0.6834712111583068 0.5994748135409933
Ni 8.857223144324143 6.232035431300399 11.844241510380533 1.285513014095528 -0.6566744026804368 1.343683194678357
Ni 3.135431444045639 6.0918889344144995 11.570960040529107 -1.080381919247707 -0.5378696391346866 0.5572585851842597
Ni 6.1144519698675985 2.5714675330801993 8.64147461549407 0.5109949262310296 0.2109595286041399 0.11536745572942712
Ni 2.7496669905027975 3.6070343438800694 3.959488926597051 0.18315844723147165 0.08231181082603889 0.1223711407407699
Ni 5.089140235975486 0.5136076575234828 9.65417512423529 -0.5874898732649753 -0.9807007639052852 -0.26253560090921885
Ni 3.9621642046220322 1.6875433563367064 11.582104388437147 0.5934800294101392 1.7216114481279836 -0.6131343133059569
Ni 6.453914611202715 2.211494737929569 4.90455818291603 0.7165913907510432 -0.16705974189739617 -1.2886770136458066
Ni 4.849820893433862 5.260079957425168 2.3756412874148776 0.019191228216470176 -0.2973318826527976 -0.2434220200082195
Ni 3.369357306648515 0.23535074908496365 5.535879939794704 -0.6499620236572677 -2.288575176415149 1.830721610093789
Ni 0.15982056799810507 3.06010935050659 5.306997634124169 0.44887296008930433 0.4329902274207769 -0.00818793512743106
Ni 1.1631627358559846 7.430955632771055 8.973879076507961 0.07889352917310928 0.3872981247003008 0.6631219580779935
P 8.097684932257994 1.5563362258544757 9.248622757962158 0.23215621728641309 0.8066221674878947 -0.4008000158414775
P 4.232817985977348 5.701776104312045 5.14377954701586 -1.262727126549264 -0.2152329591685132 0.5936548644251066
P 8.08700994774255 5.906970955268894 3.878023118193519 -0.2987439325089758 1.7215273730546095 2.0808508669188552
P 1.54344039665837 7.43432422491273 2.682178506667172 0.10575847188475335 -1.5485371246053912 -0.8428320417495485
P 1.3743016122816607 8.577462033522085 6.722313955268755 1.1461643649601552 -1.1382368825829625 2.8214447912320826
P 5.872781144722922 3.3928721326790403 2.4416740915438515 0.3263241561200896 -0.3219157426397488 -0.14300887159577952
P 1.3455892631959752 7.639836339395386 11.42813173372211 -0.2534457227928087 0.19161454841862485 0.3382790144891206
P 4.016229641931899 3.0472788402716806 7.673009973530752 1.4872985895098838 0.7959811428342807 1.6794371287527787
