# total energy = -381169.3806929381 ev
CRYSTAL
PRIMVEC
9.24653284265056 0.00000000000000 0.00000000000000

0.00000000000000 9.24653284265056 0.00000000000000

0.00000000000000 0.00000000000000 13.53323546908016

PRIMCOORD
 96 1
Ni 5.237559902920233 7.739468300904734 1.6967424986270692 0.047375146849853896 0.8375414827745706 -1.1146593523733384
Ni 4.527463156948211 3.178726871797122 8.954901018839037 -0.2760937992096278 0.7803987150149915 -0.8651674720219551
Ni 1.1995249826125383 0.06052780482229354 1.2966625854233602 -0.6664093705800136 0.9770791079922979 0.3438606223419562
Ni 8.135996620794627 6.394643299199998 3.4254243714394677 0.5020117488958128 -1.7940923889065297 -1.3544376049813835
Ni 3.0314018619844734 8.279955892606159 2.930121812403045 0.17326638492874033 -0.38120795264216284 0.32284648198413435
Ni 6.151681398877575 2.387380840616806 12.85155275142067 -1.2825768142853393 -1.1426018444198773 -0.9164743498260475
Ni 3.22702151349997 8.522335261351465 0.2770899288617764 -0.25829070958993583 0.3912208567934746 0.19404655489888517
Ni 4.809205016547247 4.692633975393159 5.03412045847192 0.6588593261468976 0.9937614537439853 -0.8901758211408347
Ni -0.07147569985889538 3.6536565447405174 9.936886518877152 0.7291579145621442 -1.20409440450772 -0.20234684723446442
Ni 3.9821766146353035 5.889301779317936 2.627260871500295 -1.8847394590711413 -0.1518385540722675 0.00018357676571581288
Ni 1.4373273175376444 3.300032137831902 8.062005863967864 0.6500550975917062 2.2503490430544146 -0.9160750575050997
Ni 2.9442070560764027 0.2620717100117353 11.011263376352536 -0.4989331099704891 -1.7573184146112895 1.1591170684660812
Ni 6.053326027674591 4.225083035759906 7.18024723340588 0.30552547420718346 1.0239662594621397 -0.697571912225747
Ni 7.173525003936616 7.289217624458543 7.469344709982633 0.5681927155982601 -0.8056775441864383 1.3099107262136023
Ni 1.72538455915526 6.981224857757386 1.28928015350003 -0.3725271370387133 -0.8193565843354276 -0.2010276142024086
Ni 4.272600968693265 5.052037465408089 10.791685957911504 -0.32814269738606716 0.20801201594004173 -0.4231773550954132
Ni 3.7253634079236653 0.08798261051712306 5.556177860657335 0.9332739378818894 -0.8056577466920963 0.3979185805286244
Ni 6.948834252763116 3.0060016359156005 5.114994334441628 0.07569019174446319 1.2673977925520559 1.6197908778450556
Ni 3.3213638893939295 6.87112638968237 5.720174369415081 1.1528322638986341 -0.2162976529876017 -0.41283097886408254
Ni 6.43347873767443 0.18245536252596134 8.469992487514308 0.6308170752977006 -0.24697785568027789 1.0588759268551313
Ni 8.952641166181143 3.0296357741871836 6.487251025508767 0.07205182366092752 0.32460794475993127 -1.1738541175659396
Ni 0.9209398893694961 1.7840630573835328 11.992666344813534 0.02592906116093599 -0.7322663782841389 -0.37366922106295647
Ni 7.911463060681617 3.232310530358869 2.7681012877410107 -0.3047196904764365 -0.9343568865334231 -0.559378716851056
Ni 2.096078065926685 2.540096579151026 5.74232813775815 -4.226716448146199 0.8764332747437615 -0.6060074724531885
P 0.6555736396605132 3.021628276635074 0.26678466786659677 -0.39476975048699753 0.37247854318896495 -1.0443283680582596
Ni 9.462531980284497 4.219544362510815 4.135675534512091 -0.5077471087176932 0.2715056656183131 -0.15899624816297134
P 7.27274954923879 6.2156951466295975 1.228441665169941 -0.43976739824361044 0.7905296328014063 0.12436040325665679
Ni 0.7514509400275101 5.238114694898439 6.649906786985848 0.2177423558539282 -0.07471162988127777 0.7070459131544532
P 7.816565892809451 0.4859792798426679 6.903492953690919 0.7889250073184477 0.053418524830456386 -0.8997282407159602
P 5.918243427514358 6.674175237419179 5.863923744928191 -0.7471458664991326 -1.7997210479472165 -0.7590624154310605
P 8.186112829492584 4.704016457479356 7.657714154996272 -0.31956729701223024 0.14994236549081916 1.8217466602886883
Ni -0.10534390082178825 1.098950443496729 5.104127808895163 -0.5256841528120881 1.0572869851014566 -0.690733806257991
Ni 8.342702865341277 7.428868011906007 5.414105806225002 -1.6822458018461672 2.481215594995127 0.49946121455981723
Ni 7.265454034725379 8.381787960205902 2.819121807363445 -0.8182103865461264 0.11627274115251589 0.40094116940503205
Ni 1.0849881787118736 2.419605008017615 2.233051582079304 -1.0046408196606504 0.3330373064742071 0.7431601423785071
Ni 5.228831175796455 7.5767200740979535 3.976957871426977 -0.502777937637876 -1.8155803835769764 0.7521422912724595
Ni 0.16674550300975652 6.431860594404663 12.952646021036102 0.8370416603200165 -0.13725371427955715 1.856228496115642
Ni 4.9407831807118106 5.933786849437101 0.15352943343558847 0.2962641035099156 -0.7596419420836144 0.38553820458640053
Ni 3.0624702127640187 1.9306853306904543 13.17901686725027 -0.04990511236055921 -0.13928694265950206 -1.0914456332610365
Ni 3.1169692780898055 3.5183797673879122 3.1743421658627 -0.5602868304876221 -0.5822530503460681 0.7422124337532573
Ni 6.830256713954516 1.2354939958662385 1.3047107677205376 -0.43825893201888394 -0.002853153178078957 0.6533193701652749
Ni 9.127419132382029 4.967283744204126 1.3975228424079456 0.5292492444555271 -0.5208895596369223 0.3554802088587555
Ni 1.4373458106035846 4.110805134782404 11.969578676640486 0.9611238702146222 1.3511167681382668 0.1037337281452407
Ni 6.262991162771674 8.78597240939504 5.667840842110892 0.6033777481398254 1.8657351500544965 -0.05190825883351705
Ni 6.238728260258124 7.028964707482027 9.856376956306466 -0.536316949935586 0.7099391755418483 0.352176084186187
Ni 7.40123937139134 2.575316623234148 8.28002616625673 0.8800240774188134 0.021548158484420956 0.32005452106129395
Ni 8.048820307952496 0.9560082903119083 12.707734951563582 -0.1429055132486958 -1.269879421323329 -0.5385561236787499
Ni 7.126940970833238 1.0116169395941073 4.125539485070264 0.29120262982660816 0.10890061705816084 -0.7738588570139446
Ni 2.457349355601575 6.833187864906039 10.937967034151828 -0.8354987413129288 -0.4432640985429591 -0.1222911794324539
Ni 1.1262554553574429 6.861713419118806 5.217143558122246 1.753559976010122 0.01128842842962572 -0.9988689501738798
Ni 3.523899947571064 4.294441279568648 6.875168049243603 -0.2604532644588934 -0.46734350808966607 1.1367232741519133
Ni 4.829676840543054 8.027201913868396 7.256629143658713 -1.488440930644443 -0.5813665339760568 1.9754006703031401
Ni 5.640523809757317 2.0098633925134455 6.960521870437326 -1.1600205541169568 -1.8708493313526102 -0.0848507751978087
Ni 6.230055012332167 2.12260636901791 10.311432131283922 1.8792864063763701 0.4379403723372006 -0.30638268000115626
Ni 0.3158042377543002 1.2933125665282919 7.99138916702189 -0.06883691626805565 -1.539819028006103 0.35123274643631125
Ni 1.4800925325243701 9.263546590767884 5.975113303893679 1.7396515934591459 -0.7334578274890787 -0.4417941988656521
P 2.5702587696995014 6.092105986951203 13.000946210658732 0.6958451593426274 0.018524026946116483 0.0750625854627933
Ni 4.365158763723995 0.8763919428261344 9.251036031659334 -0.1450097040758922 -1.592017307276213 -0.896262907875179
P 4.988421318573781 0.5951456973942967 0.28168175713472954 -0.21675170980588476 -0.25232215071132674 -0.5518237873219335
Ni 2.1839478687415728 4.691173023183883 4.971461327800018 2.172186478510059 1.2283674181224715 -0.6568397246137074
P 2.168034585500026 4.31172304968977 9.848284390651033 0.6345189496293202 0.2097192284391356 0.051974336184762104
P -0.625358743874108 0.9053622552747638 2.496151506557315 1.2133737729271168 -0.3737710367481434 0.12317949557467818
P 6.3651561055583405 4.840948364233609 11.999987749619262 -0.6635135370894574 -0.9090338343876021 -0.263755589359249
Ni 0.44380861692591966 8.022698852311954 7.4402209050867 -2.041962931604406 -1.77044749579408 0.6565520181699596
Ni 4.153126516186566 2.265594754867581 11.045150070381368 -1.5177787603766117 0.8843173054775286 1.0524335136638971
Ni 5.498820691990491 0.34479304326886984 11.51498397900494 0.8739722147977788 -0.5831189978907894 0.6685307877983906
Ni 0.41704175328406573 8.231799948897862 3.4969342834703525 0.514072793825405 1.215053217512069 -0.8749029541421641
Ni 4.912701460081609 5.485570410244333 8.678972454518306 -0.14202593885721992 1.4497229452489548 -0.8603376547334797
Ni 9.055351654413046 5.8684046148055025 10.975643882045105 -1.7238130837649928 0.12072614893817919 -0.9602784914951914
Ni 3.0134728345554436 1.2585825886925854 1.7266374643727087 2.580849184929065 0.3218730623272715 1.1618195549989088
Ni 2.2645314035760196 8.916727632125264 8.245610570542008 1.884933063139186 -0.5310274194018726 1.2169987712742139
Ni 8.634819334932768 8.028071087967586 1.0041697819399864 -0.0722863082692368 -0.3042643481065728 -0.4018014605227983
Ni 7.708436936257068 5.222136685926102 5.542495765821474 -0.7093257103275654 0.025831873461439385 0.06156789341046816
Ni 8.226927026022619 3.3926454120604532 12.127484494130824 -0.022013785266929826 0.7195232196858576 0.4648418247137349
Ni 0.7324853762525321 8.369739727745857 10.07710464344898 -1.3206466245738675 0.25845294619941295 -0.3166596364471321
Ni 0.9228372779349613 8.567264165053196 12.43627246266741 0.073572374070512 0.3703604684046976 0.44407399603876424
Ni 0.6597650930558608 5.787007385069687 8.954806704202742 0.26865945441876954 0.39551177085934464 -1.0299623291445748
Ni 2.8211726883762136 6.380893704673455 7.970236798199482 -0.8980961044291759 0.29789881089986114 0.3157821189381852
Ni 4.300664196257527 3.8863363004001865 12.66958560583553 -0.12961548100800901 0.06290049617896264 1.6049869800630037
Ni 4.541323709870396 7.645320102203146 12.207546524505757 -0.7480030722931054 -1.0204073384662877 -1.6785932926952447
Ni 2.4600585897618155 4.266211614410924 0.8565627528717487 0.052383912918354945 0.30056118822337263 -0.11615986972373543
Ni 6.734573590779891 7.884324486414365 13.178719128888634 0.23488364351990515 0.2280681632599685 -0.7005137684628904
Ni 4.1172129821306855 2.34274782597012 5.236536311720442 2.9861185493958056 0.6200480097066547 -1.223411873889409
Ni 6.126216447077911 5.153573643952788 2.885637666937177 0.9856496232701283 -0.2716948988109837 0.10207665215779196
Ni 5.006886644915076 0.5430646004401921 3.4736025068268916 -1.3827554780894704 1.1162547218849164 -0.8009598269957948
Ni 6.803081153555383 4.095622327645495 0.5801228552777705 0.9126950852892733 1.459052707290313 0.5916077520880908
Ni 2.47307770818372 1.164822744375742 3.961395031784997 -0.9932732012536571 -0.2724839703711823 -0.7541634354675464
Ni 4.788196893639173 3.5730452703071602 1.704646435009913 0.19222749941227538 -0.5906477021676666 -0.8801850284767099
P 3.8410375353796526 7.645726949653831 9.467513087595492 0.9036301468735277 0.5531815869014086 -0.1288312945438168
Ni 2.959630273070534 1.6826840698993246 7.4926348772277285 1.78956699023235 -0.34574986894486903 0.5781480270387591
P 5.845131091319754 2.70761601697038 3.4277249088424298 -1.7529256848602326 0.2049950834905889 -1.1130141034604315
Ni 1.9295942397999823 1.9251466574413627 9.758220385562339 0.5583291925406191 -0.18318801491782646 0.686938600881617
P 1.7376269688076762 6.0762296898415356 3.183680239509207 -0.16043503749202695 -0.4961601752110422 1.2183920520773146
P 8.350386734239432 1.4684511475150108 9.949188106340578 0.7941466607287032 0.07422569138379474 0.8494968553642338
P 7.651413567430444 8.21805960090429 10.936072419546253 0.8542130298929804 -0.021158122134853883 1.0686695159067852
Ni 7.006837754084572 4.446694691454362 9.8251292227873 -1.2554521901544056 1.049314251308625 0.19747537807477605
