# total energy = -340859.3081329374 ev
CRYSTAL
PRIMVEC
9.41144028489266 0.00000000000000 0.00000000000000
0.00000000000000 9.41144028489266 0.00000000000000
0.00000000000000 0.00000000000000 13.77459417990488
PRIMCOORD
 96 1
Ni 7.28378670650868 4.433531962124953 7.972693795855453 -0.23762006861446178 0.08424450907237749 0.28215157536793345
Ni 9.191015116445488 4.285969987097077 11.649146899635966 -0.26870367739314366 2.464483884062743 -1.3213187109402276
Ni 7.209116337870937 3.216435069939224 2.8191085233136812 -2.7148178006994472 0.07534797791369605 1.1356698931867344
Ni 9.062003090571254 4.2689823370603825 3.94603534556226 0.19138494890632202 0.44430796642644127 1.4652223264361346
Ni 7.103604678834167 7.518056282527171 9.868312252836436 -1.3149143500757807 0.5687838122150397 0.5982856783288987
Ni 2.0677969956853 6.491691642775586 3.862823153559806 0.775731134335993 -0.5549672180469216 1.037134935633614
Ni 0.6375893279312165 7.029489585183773 0.03138809508995929 -0.3442308611971814 -0.6455024452240173 -0.697018096604806
Ni 6.306530963095859 7.532756952531223 2.7628121098929115 -1.4181842512107252 1.2369266205463922 0.6091426756480606
Ni 7.188938209517103 7.55395151645512 0.42180570327121564 0.38976561240418683 -0.2367626057101729 -0.8548581196761471
Ni 2.130016028589777 5.794755653569366 11.677329458104042 0.6076115837155148 -2.273463260474375 0.7228659109058454
Ni 2.3740546798094235 5.713450219404826 1.4422411355307687 5.408688052612949 0.4069701492079314 -2.480273028576199
Ni 8.803188477823845 3.643893284352843 1.476801827200988 1.4790186088892785 1.4275479518138126 -0.592175965886735
Ni 6.9300859510078405 2.301661879763858 6.300650695094238 0.66570231721066 -0.15850491034884961 -0.19096123110534208
Ni 3.014710255043662 8.995078337435006 4.133135723121524 -0.1515071388747778 0.08084139692809948 -0.45240128495753706
Ni 6.210458978844021 0.6171439146682175 3.3752305403043845 -0.7584389229144486 0.17947225662913607 -0.01290179566333262
Ni 4.148384138960554 4.974492148528889 3.5530192386690196 1.0752335422775483 1.332484240638744 -1.092136231570158
Ni 8.438768091635032 6.809892444847945 11.584805586906961 -0.8913708698902004 -0.44722102630817817 2.0433271589417843
Ni 6.827275375384107 5.022923421154277 10.572841392208641 -0.15311382124026532 -0.06427655059088284 -0.6133641699285759
Ni 1.099670349522114 7.690022122677012 11.413780890803473 -1.6835370098537652 1.8819724378489653 3.682172225204813
Ni 1.9956488930917866 3.5290925335785563 2.804287386871695 0.09051311568990862 1.2624147375151678 0.008897045379313708
Ni 6.927074290059507 1.6714153576822972 1.0525952654675228 0.6166924629708604 1.767434419999369 0.6370085488203933
Ni 3.2641322502084553 7.989569449750631 11.4442221949828 2.2126361018846734 0.5530391477862734 -0.3151581122009411
Ni 2.865971849957843 2.453082545381787 0.633398413492801 0.7418468228837224 0.038815173094984765 -0.5768326506614452
Ni 7.411707005289145 2.5993551530661585 10.65081988216932 0.12943447534545452 -0.6884856336537627 -0.722409025874085
P 3.1834856168763626 1.9406860807847004 3.928335249482476 -1.6066070321649297 -0.23376007143842323 2.851848600334921
P 5.2035383750901145 2.5851532894066733 10.598337925568423 -0.10050699367782692 -0.33543897393716426 0.3035123004318966
P 2.6241542986875923 2.2626232247210853 7.24309540252051 -1.8444865250883653 -1.770573994069615 -3.6208727549643838
P 0.41585484946611795 6.1995981765490935 10.077203879644983 -0.21584513883121534 -0.6627627749663618 -0.8463791356708585
P 5.998899208664057 9.319528335975155 1.2562720131152232 -1.7478816946784221 -2.4430198006516957 0.1321665295646369
P 6.082933960563024 6.765564560264662 11.847542888039573 -0.7682970466554511 0.13697192137308023 -0.10567131148758577
P 0.5780299681017366 2.2679501000234503 0.46304287080627177 1.3255052382177495 -0.7697520339344228 -0.40261752866619044
P 8.131381034655282 2.4343255445379475 8.324166863398572 0.4943866282503872 -0.1999680625896427 0.478530377944421
Ni 1.398850630417654 4.070504469124743 13.468687977629907 -0.3846645437321956 0.9372190385725665 -0.16529982178349595
Ni 8.804590782452914 6.96914342893154 4.232285248404939 0.48639795361795585 0.04964337405874031 -0.40557969661830795
Ni 3.4575467631747094 9.106368620916392 8.91767206305451 1.6215155738456462 1.1710485297963447 0.7756576007855803
Ni 5.390637811505331 5.466239912748965 1.4131080215758742 0.008782888398952615 -0.03617387881739576 0.4149140866453564
Ni 7.022449827717043 0.31519855256448875 12.93745733837718 0.22170853959052783 -1.073205456103926 -0.6364999846150909
Ni 9.135666435079397 1.3428713825405059 6.6528540904173274 -0.31184730266015326 -1.5333858707862495 0.47667944077861135
Ni 5.432857533424781 9.009590778629788 10.792628643641834 0.34933732918581123 0.2997129812904645 0.10618681767142357
Ni 9.242119238162523 0.30483279203794345 0.5580984194880471 -1.1140561715717008 0.45413395137792756 -0.7355314221886559
Ni 4.788362090481418 3.0354813041466997 6.882007607399836 -0.7849590806921642 -0.7642064215258452 0.18437894990213408
Ni 5.315016887380771 2.8928038667194014 4.4280912083929795 0.023700171830417248 0.18164946678611296 1.0654823764280552
Ni 8.758013563598844 9.30091250673827 8.55303144915885 -2.294502597643177 -1.0086746234103918 0.37104258207338675
Ni 0.4207949145654312 2.2188412036846876 11.401493314134273 2.165385910648458 0.26133875238764026 -0.9321189983418399
Ni 6.175984872426066 4.7635158876576655 13.015393476855772 0.33729531041961264 0.18468671095053998 -0.4209872894226298
Ni 7.787016428094277 6.029947550753284 2.138850547752904 0.16659771465931308 -2.029856378148859 -0.35783302536164824
Ni 6.200652257881011 7.320481912876031 5.457204929903964 -0.95462952073953 1.5712605343448358 -1.5046080273226088
Ni 0.7234301352551376 8.96726753086524 4.093092867381291 -0.8587551407377082 -0.590794512158176 2.2736630351900065
Ni 2.2181259342094584 5.283705024958566 9.166662073102026 1.4261911806756018 0.7125485881402374 2.210939945129173
Ni 7.891709291810719 3.041626974769393 13.14232651553161 0.07056469759243976 -0.9387408745337317 -0.541693383756151
Ni 8.508996260373983 0.48200504105221637 2.801518541087321 -0.3229467550074244 0.8585569086839729 0.067090108780278
Ni 1.581554924136397 8.062828102318843 2.304682952152655 0.3685370420427137 -0.6648224857088679 -1.9947243103324164
Ni 3.3210808764533484 9.388523606013385 1.8105324471822377 3.2293472224462962 -0.636268328220259 -1.7079370359646844
Ni 5.666665948860557 0.9924175739995883 8.441759988558392 0.19621219509163626 0.2793087066024996 0.4570598667754709
Ni 3.4250114134922445 5.224827053418647 7.328566340234214 -0.18598486093667324 -0.27890350074428094 -1.9041633721237075
Ni 4.431621439710854 5.225824666107782 11.05621956242449 -0.07173917751651517 -0.8024451532920696 0.19810169880486525
P 5.040579283463882 4.607511850533992 8.541860069328626 1.3884108766030345 -0.14132402769418886 0.6450501881779471
P 2.7619566099547757 7.163019102480509 13.40368598178036 0.6283647571024661 0.2798329545370858 0.5253907899413855
P 7.902080699201543 6.7159286232599404 8.202840219806864 0.42570474950295717 -0.9210054049271815 -2.032744498329931
P 8.48608881428572 5.226474055499767 13.416344369203824 -0.32604133477234815 0.25160635559122474 1.2005023162810875
P 4.255627503042617 7.300237904438951 3.633186829681517 0.5041023128762544 -0.7707730189997694 0.14499504878787287
P 1.9552361677413366 3.7010583737283977 10.788854656015953 0.5712078482755001 -0.09276257384571766 0.6041976729379595
P 2.2888905550548313 0.4178839560300577 10.705283888131838 -0.6722853697448163 0.14191563853160075 0.3326051040327949
P 3.024846376422897 7.202565975308311 8.119435093274909 -1.5253853690792762 0.74817610753586 -1.5589464928641732
Ni 5.895994518635688 7.707602693462909 7.797123374008074 0.7424883131224632 1.5081008709672155 -1.7205452116469981
Ni 3.635187701924066 7.269801305979857 5.80426967873396 0.27836922550736576 0.15606750455195056 0.5950764273629816
Ni 1.978623597293239 0.28417656250856127 13.471952806326708 0.6631420126826515 -0.8402763652072303 -0.5764194743834267
Ni 1.9721861720161757 9.211541468096474 7.027715528656395 -0.6885990193031754 0.06335789543135541 -0.7065473762514799
Ni 4.399735479420373 2.1331970954664543 2.405182077998543 2.2006755870886874 -0.16136783371894145 -2.248885828245327
Ni 0.34619607287521104 4.046721759073372 9.238069495331061 -1.8400554859002054 -1.5841975541214781 -0.03483639095289484
Ni 4.980054309842843 8.05410369700914 13.325322563904722 -0.570867691327262 0.06922669550730659 0.22657306677168076
Ni 3.492830253472529 2.909895042601194 8.85720167578816 0.8537165498725361 1.0531439094673605 4.244287110040109
Ni 5.51439825360091 2.017464612086277 12.804257221496668 -0.7244057445891394 1.077639066395247 -0.7904537852581484
Ni 7.828059719955784 5.949630317837415 6.12032749581277 1.238311930929693 -1.320192053534952 0.37610585552890713
Ni 7.811777927953857 -0.035446308217838646 5.155210628309826 -0.11004630062682984 -0.2749393738902104 -0.4016536220910244
Ni 3.0019295188941726 3.904806648323621 5.123350078908596 -1.3079327765516249 -0.7537134924143213 1.6845695648833374
Ni 0.9933116608436248 1.6900500098001108 4.764150218744909 1.284840927729168 1.539595342031071 -0.26986941556647076
Ni 1.273226723110294 8.32347794595664 9.45467473874353 0.5036150888271906 0.1415824235618981 -3.3737331768952603
Ni 0.5615862993238357 5.765166084751989 7.617956840759578 -0.8134574452421732 1.1204175950133544 -0.6250256654269042
Ni 9.162413748876784 0.3424879653325755 12.002561547346714 2.060219049601116 -1.9284980922143304 1.856868443692486
Ni 0.320771066462952 3.503088723577789 6.552092385382506 0.8636410080750998 1.5804709971995101 -0.12441851018810184
Ni 3.2229383752995315 1.864255772780275 12.06235713433183 -0.21896825784122934 0.7242759038794946 -1.255103291455419
Ni 0.9068374635765072 1.4866687813829655 8.797970775230858 1.7049116188747993 1.2036760860233786 0.4014703024356247
Ni 4.043945384136627 0.6017449157817699 5.831144046977605 0.17366207770526218 1.5747320378332041 1.019708255516734
Ni 4.663895790351073 6.727947032731883 9.286349243764985 -0.39071563502228196 -0.7779777642783248 1.9714499131855079
Ni 1.6611474761365728 1.2990611271827173 2.338471905704864 -2.000248325474439 -0.6393683073018214 0.23647927014179917
Ni 5.4059878709013685 5.082337844800619 6.044388465000542 0.547010167983374 0.562879788025779 -0.48541219266591884
Ni 0.6256226813818225 5.511273655367014 2.2878496497395635 -3.536962746413289 0.8094915186158896 1.1361735722960304
P 7.757671556728953 9.370293645835503 10.723948656859136 -2.43451741960764 0.0687934646246299 -1.883309154382518
P -0.05311440540004625 8.497815469103294 6.4316061834241935 0.3605923332743403 0.07742208683390538 -0.459619399972531
P 9.023557356277685 7.975489934817171 1.6494528202165755 -2.113663542573502 -1.331836579752416 2.2079770058461072
P 1.020868358520876 5.494088365080587 5.459712137643453 -0.7657809651018167 -0.8688076398777037 0.12122031496577834
P 6.729471686086977 4.7514692438643324 4.373736375139838 -0.21301126892684605 0.6856810743254321 -0.37330129620057645
P 6.061438230544295 0.24069758985508943 6.400158796259315 -0.12423287653985701 -0.9889655750172388 0.15443228294137273
P 5.262811627129503 3.3174951176367387 0.7698633590701154 -0.18052203804988912 0.8633910968478227 -0.19454894845660042
P 8.296843569444816 2.294697413820837 4.422388816616119 0.1931368986004222 -1.9666998000950326 1.0454341995279288
