# total energy = -340888.68927486386 ev
CRYSTAL
PRIMVEC
9.10029744719106 0.00000000000000 0.00000000000000

0.00000000000000 9.10029744719106 0.00000000000000

0.00000000000000 0.00000000000000 13.31920518612680

PRIMCOORD
 96 1
Ni 6.120941997451538 2.104989813443643 11.485963233376975 1.203498937015566 -0.8327000955218691 0.19161557685988936
Ni 4.932861758359751 0.2890390988703051 5.905215805226356 -1.2003591058350036 0.08428924626738386 -1.026082277363878
Ni 2.6238250744953158 1.7181452672516244 4.6662103013555685 1.3057643081453965 0.06845047946291435 -0.10650743423563593
Ni 3.356535527261798 4.343835902733304 4.680115555927103 0.21193654780542856 -0.2422668233578537 0.371278866453909
Ni 3.7370007649101997 2.588707026464193 2.700375866988968 0.3519621684031681 0.4667637243267961 -0.4433646286765655
Ni 5.212623103934454 4.396644929093659 2.8994712655430233 0.13482685000561942 0.2902009280349712 -0.2514446332023798
Ni 5.099360801318399 4.8353702713015965 11.070656596741282 0.5100207352432184 0.30217044169202156 0.35659915295454714
Ni 5.972707251564272 8.220899346380746 12.129307854718103 -0.8617378775151159 0.3297182694033031 -0.416286798623167
Ni 1.8601827105451632 6.574327918923052 0.29707011140916645 0.3295007540758583 -0.0545346407127706 0.12486896746195913
Ni 2.957378278559774 1.6059476994424218 0.2881572800430919 -0.10424743455686562 -0.12422439189942477 -0.4564425449064462
Ni 8.254079031045547 -0.007159204038892024 6.585947178763979 0.32016147895280345 -1.0265062522751742 0.4430753795709208
Ni 9.129236440492818 2.2613966264809346 1.2107554503587346 -0.37258035887415186 -0.23759641446537794 0.12276477663476278
Ni 7.092344153200223 0.8627127526235964 4.505847588997435 -0.2809961216072515 -0.40331352629195055 0.563545703744552
Ni 0.9661967855818533 7.500710902966641 2.8468733660845413 1.6094576142398476 -0.38563744916842624 -0.8543878649079479
Ni 7.631063564277293 4.091329948154511 3.6667901496809385 0.2059060253406325 -0.10099730305068412 0.4441076774901771
Ni 7.299294018521747 3.9892974126466205 12.35211134830473 1.1270063039744656 0.8361811120919341 0.881342796230237
Ni 8.422853148377811 7.373452342804106 8.671681672739094 -0.21257109606563387 0.19552056834125037 0.5130528372013228
Ni 7.13893767637186 0.9951630325067208 0.4305641954149054 -0.9685456165999901 -0.8878615711853611 -1.1166352451527866
Ni 1.7883631627188812 6.9498061935444895 9.206740944163888 0.685187165408149 -0.8932158935187391 -0.13329858628655106
Ni 0.16682938375769701 4.78792132016548 1.3381941964116597 -0.7863860429466779 0.05547489313885284 -0.171480239562595
Ni 6.867475802112105 1.932894087525902 6.815917156627491 -1.6366609141275168 -1.2996985615672907 0.5952605183493297
Ni 3.539733616122781 4.523248267836592 0.12290679790068373 -0.28399377078299476 0.13812583247186536 0.428665631903494
Ni 6.063191509551693 5.993037316166897 4.676026792262842 0.4227749774506719 -1.196150981290927 -0.03448929202612125
Ni 5.356526108214356 2.9416711650843355 9.419221970302548 0.021070704627370165 -0.07413673121441425 -0.5633752396049588
P 0.08720087065141878 5.691862970587729 12.57356981792167 -0.32589195367867746 -0.22422564958542673 -0.12935759936093208
P 4.2010977365326925 6.310546695748621 12.456626444969109 -0.25213266040834 0.690601908665817 0.330459775555018
P 2.5441337693363257 8.424372898059387 1.383785776829157 -0.2706885690336564 -0.43938198987973354 -0.41815779039363465
P 6.481040769307338 7.820677362871869 5.846505235940844 0.5733328650383029 -0.3476496570707432 -1.0223490355736908
P 4.895677942797386 0.8999038484239573 12.759611749749673 -0.4477923254306159 0.6045010631109912 -0.6411572808814442
P 4.159181766273208 6.2319838274789445 8.47921948102875 -1.3554902146156138 0.004939603393462461 -1.2586431862878775
P 5.0326829215764874 1.1782883189877482 3.676087013601279 -0.3070797060681808 -0.3974748081229864 1.2617858456819173
P 0.25343327489347917 5.518429500938302 3.546252159218063 -0.2994648698354004 0.560410243439364 -1.9848319909193688
Ni 0.6830064479112379 9.109033780055118 4.785324095260561 1.1967665033877388 0.6004713731263077 -1.023149162877483
Ni 1.9142293773647636 6.375349914206675 4.678676798893229 1.4628232300763386 0.7341579388798969 0.30665650248783316
Ni 6.176981629422426 6.160655695717364 8.882311698367378 0.8771169310743475 -0.16368979698389874 0.9509209615396914
Ni 8.5370436813383 2.637839532636785 10.184503297831453 0.620110487513474 0.8961855176700243 -0.4600909402923109
Ni 2.510453568309328 5.4362720151583135 7.226307812556676 -0.254898138968619 -0.3773546403343437 -0.4974323570552465
Ni 1.013764040585398 9.137517711212777 8.423837800566712 -0.1435925120133914 -0.31738083088387276 1.6968931194456969
Ni 1.78062790984859 1.4696525438678878 11.457686789002185 0.011718316878192721 -0.09854652751734641 -1.2719085359382158
Ni 4.301819829201381 6.929012013769647 1.5860908503095092 -0.3320852269735829 -0.08100749019231855 -0.44271465379739233
Ni 6.094050618355408 8.535669536416638 7.822662137755412 -0.03397918515892213 -1.043571435287577 0.7175717523864416
Ni 5.011743137041734 2.7655349070790542 5.590576659474385 -0.6161090796635648 -0.20344985049065606 -1.1971490835381384
Ni 0.9134969627914329 7.307493386564257 6.777557582628842 0.2737507528987479 1.2893491000121666 -1.1212475471138172
Ni 5.166084182547784 4.360607751015595 7.522181234845321 0.269390161937207 0.7082967548424188 -1.2163889056043566
Ni 0.9216508293464695 7.365580585471398 11.387028439136198 0.9501411459508734 0.14780423610189383 -0.709872583969971
Ni 4.782215433636453 0.3975783470867347 9.971556336461079 -0.5654385498918907 -0.12123651291569444 1.460168308951995
Ni 8.38050036383859 7.336414132001652 4.556792874430922 -1.3572650471278496 -0.5809698127582704 0.48859213305579724
Ni 7.2809023172854435 5.9549343705575914 6.813079683868718 0.335976334497873 0.5170282769093031 -0.26378464282497155
Ni 2.371983441633618 5.159932381441528 2.3492281477487196 0.9967531893824576 1.096031452859506 0.6578118587189897
Ni 2.625545030721769 5.238258641976349 11.164903827742659 -0.41984186296427695 0.7954162714697462 0.9094835203305112
Ni 1.1426242531069577 3.4179261341594276 3.558118947150839 -0.8621623666470442 -0.5956253578879163 -0.2660263876712967
Ni 1.866762225633658 1.0369788994937665 2.414559183461451 -1.4060255043610044 0.03825672948835347 0.38800157852522854
Ni 1.0047820469583655 3.5522829263676416 8.35927938011126 0.3178976226192912 -0.3407968958149679 -0.5042082423264993
Ni 3.1559467698889008 3.042757269652802 7.194249284543191 1.0427635946743008 -0.6821715185102768 -1.3068236026478461
Ni 4.036018339983181 6.76173944552397 5.93740901764276 0.9138258564596068 0.41466031876333753 0.20921837754331712
Ni 0.9188843389081535 0.1958356719915402 -0.2469565931666717 -0.6572942956526228 -0.7229397015665744 1.8106698336492364
P 0.3530232905538564 5.591068075539085 7.826644427938987 -1.0374478388883421 -0.628432377115608 1.5987944780990466
P 8.693632500325482 1.6366703037837202 8.044893222629634 0.20991514650002557 0.5733824873293157 0.2339865856269325
P 1.8982856561544688 3.3241384681815185 10.38909982622091 -1.0427887914852816 0.8046007661824917 0.8807313878984832
P 4.14961735360653 6.143629039105228 3.619800763568292 -0.7670827146323758 0.7370391170824339 0.6723581319642808
P 7.025047453228688 4.24340501958444 10.14633118996119 -0.2656445788518457 0.8523860039865707 -0.6726553514897254
P 6.985069846335524 8.319946984310452 10.07896259763945 -1.0494312365024636 -1.18420383623138 0.16575516415335967
P 2.7030522644820882 8.463576979665522 5.739831548710779 -1.1765740876002642 0.7977107239308777 1.0024731225853702
P 6.638812626968799 4.13966162814759 1.3161077743926042 1.326787704474599 0.8442042395067267 0.1516601195128743
Ni 5.114103283259425 2.861297337613261 0.40819748423302055 0.6319784425956535 -0.21614415812887292 0.20996656856325133
Ni 1.6462165158554092 1.2451573049770435 6.658363706105897 -0.0825997743801029 -0.030239772721147917 0.8667394444947653
Ni 6.8197993435386275 1.1510147273968503 9.234098258491738 1.95572993134709 1.028659551172751 -0.27583000402527974
Ni 2.8920017413595707 1.8356938099875701 9.187667630645251 -0.3832491514419077 -1.8662848519103792 -0.02229300707024548
Ni 6.544588146711154 2.159236686808122 2.4581395981326724 0.5414622415819513 0.5098225031894832 -0.239620129763626
Ni 4.268958654948884 7.198835834480398 10.420679678586186 -0.3188311901771541 -0.345693818895953 -0.23794788426752567
Ni 8.209924387602426 7.663615328414977 -0.5969121734351455 -0.4440647400673836 0.5605619385258799 1.967219162933612
Ni 7.68194332756882 3.804388467856679 7.939298830682412 0.6263783228000568 0.6819331772472256 1.491450149784412
Ni 3.2237257856276424 8.348922331532814 12.393494041131039 0.3721234738423914 0.4187481156794659 0.17433159296846104
Ni 9.40160834450202 5.112765539527739 10.413660619128711 -0.3781002602511166 -0.5775237631911989 -0.38671268451047597
Ni 8.817560351605044 2.233713521502786 5.5485141744252395 0.6584456356482468 1.453908186974896 -0.7176365441861061
Ni 3.8510547934082724 2.8760580201492756 11.443767883984409 -0.6992657549884022 -0.3688293764721519 0.4296524212967956
Ni 1.199300905902457 3.549798545151654 12.758466932324872 -0.2629384927745923 0.41176577082436183 -1.2373724498345595
Ni 3.469852431662819 8.570505475225431 8.106268359021524 -0.1318824226653148 -0.6261132420641282 -0.9314751941102539
Ni 5.8332724933541495 8.12409948193217 3.5432017394979196 0.041743659595689396 -0.43055796383020045 -0.6207771745631955
Ni 3.390952852385847 8.563243437824852 3.7049631675809516 -0.13299211078972578 -0.6836987537880805 -0.523090166832667
Ni 3.4479116144036754 4.189831568234551 9.163466299488483 -0.2661947949283609 1.5510393222019545 0.3321399914709183
Ni 7.229431034656775 6.310364689798733 11.048240743952926 0.38277298313643754 -0.29452372378004116 -0.16639331195799084
Ni 8.575556140334857 8.776718216449906 1.9554191438841901 -1.2748645332427464 1.2965921547278252 -0.48130305559355174
Ni 4.626518443803729 0.34624265889073397 1.5931899923849377 0.6185179462153735 -0.30233164986023414 0.0930569651576849
Ni 6.18998595454201 6.140962651939351 0.08614523614206136 0.08427124854525486 -1.4362138550189265 -0.02182300941236242
Ni 8.736058087244656 9.408251561672976 10.831031203236147 0.02135018354100194 -0.3854649281463039 0.023010344852244242
Ni 0.16247944155534494 5.1196180635410675 5.6259522459246005 -0.6999710085855428 -1.6603605717373018 1.0049933179040627
Ni 7.535346635230558 6.346638475611652 2.2808339518993526 -0.24214289618547977 -0.41453202071558926 0.4950173198558507
P 8.73731392829889 1.5554137474556828 3.3130861568744963 0.2502799234703173 0.08813047439034499 -0.2287227661248319
P 2.0843412384287126 3.2493795242645263 1.4475715820273292 -0.721317335471803 -0.21607628100541496 -0.2930720789351791
P 4.746514966565685 1.3421664762679917 7.9201317840995795 0.5683379829268728 0.514032941726405 -0.29727608971419767
P 8.388626929501145 2.031341105820975 12.249086880369942 0.8029822567424623 -1.0829265400464316 1.361234573298559
P 6.5694501594660215 7.9671648516402 1.1661376017731446 0.057366710844927005 0.8871532322644269 0.5621922750404511
P 1.6443873560590228 3.4350164928540248 5.772969372007108 0.05697436050251478 -0.24251184948912427 0.07436813049892999
P 6.799087066441236 3.90962430808262 5.930975107314176 0.5380383035020669 1.2889791182672576 -1.3496445544681144
P 2.4781839133939707 8.809461086834974 10.22326237489011 -0.034205185126799154 0.3233205934070754 -0.002809444424337097
