# total energy = -381167.4570876951 ev
CRYSTAL
PRIMVEC
9.27311116597265 0.00000000000000 0.00000000000000
0.00000000000000 9.27311116597265 0.00000000000000
0.00000000000000 0.00000000000000 13.57213553184709
PRIMCOORD
 96 1
Ni 3.663546467664486 2.7093897220830803 5.386278117788899 0.2548207487634644 -1.684482918706802 -1.4893572718111252
Ni 0.4566580552879594 0.7257507511169947 3.09021227646852 -0.472154042104432 1.19766896059735 -0.21324035421851661
Ni 1.8189577945748108 6.316806049497756 9.091131657936911 1.0876648260623656 0.20857483042204725 1.0470619649393387
Ni 1.9658067787142457 3.7423771833862176 8.919851735832475 -1.8717834131311055 1.2924457366596194 0.5976341607878288
Ni 0.48599261429444385 8.40651086288534 4.736796849164328 -0.22753748756747907 -0.187775891398825 1.686481694304386
Ni 4.210697102936222 2.764397815914548 1.0060333098635001 -0.8071968090444421 -0.018820732250928878 -1.8216065351663984
Ni 4.291651361052999 8.948969304044008 3.0205739955773914 0.8126197798322263 -0.25391417778879494 -0.23448512252990583
Ni 3.51678094152311 7.287144373591622 12.779645049376152 0.8836984409466072 -0.6321576484859952 -0.2524332223678943
Ni -0.058361250731241925 3.1327999655666994 4.623198458762502 -0.48208852760932464 0.5739815543658954 -0.5615114469233426
Ni 1.1624308162919206 4.965528329821168 3.354189924327657 1.4515317163229196 1.153720580040858 0.09249903577168586
Ni 0.5632320641865257 6.859672507535821 13.017075635363959 -0.5485330323858036 -0.21374943264445123 -0.10127523930241913
Ni 1.984547735833834 7.965602259142115 2.7129209227120454 0.3909958852668621 0.6985908404085647 0.8508240588160896
Ni 5.688803160329093 7.048129940262881 11.371698421706732 1.6267220577472503 -0.4454528786641619 2.3733007388890033
Ni 3.8136688599499946 6.739539355886011 10.33435259828276 -1.3290009100758338 -1.7225517005540658 -0.8256465311091975
Ni 2.4339690553790287 1.565115656924338 10.256774679842996 -0.017032272891938406 -0.5119295222301571 0.18739793923411596
Ni 8.280730386700236 4.585200959557542 2.957137571253101 -1.6657981978131053 1.2338356403258943 0.5208373662427481
Ni 4.41834060210585 6.614927291673728 2.575584295729104 -1.5405638765919274 -0.1535012864866711 -1.0329838895797177
Ni 8.767030868276407 3.743786696242317 0.09670370966151064 0.07577143860435984 0.3436287088368082 -0.7837334358151793
Ni 3.721317948542781 5.867319818176292 7.746146671313936 -2.024441120670559 2.3189067375191548 -0.11565644772475565
Ni 3.7523550507096597 4.616349339055166 4.100861740935747 -0.3844208031525057 0.018567221479226088 -1.683637025766739
Ni 5.542037634187717 0.15749358813625583 12.423946134339598 1.771601149782549 -0.5856973001409269 -0.4646507917488514
Ni 4.187811065246394 4.838254882781906 13.368878916513358 -0.14200408448034896 0.39594063086664716 -0.30829738052536587
Ni 6.39619315187321 3.397222722748815 4.907684518677889 0.405727792160398 0.3238109027799327 -0.5693931636642646
Ni 1.8511262162709272 7.595354760421781 11.187035545958064 -1.2346442522701186 -1.280570582488588 -0.9928008896029289
P 3.710245854133683 2.7950361743129246 11.97662239247894 -0.5350352550096851 2.30988756473968 -0.5654614327100261
Ni 1.2544293494851093 2.3753166289656718 12.192853719648792 0.23696032354327579 0.16592742806516583 1.0457193348685152
P 3.440481785075821 8.963945378140066 11.168116545109285 1.297069608584876 0.6119724317873719 -0.8912166037005232
Ni 0.18101390661132927 4.663651477732562 10.98975103896968 3.690506713212438 -3.0552657978154287 0.39321140486094214
P 7.919292343330525 1.436080318814952 4.277638763178971 -1.0810025835508414 -0.8459734155920076 0.19355830240855698
P 5.599132177970648 6.897312064660219 7.429183395109616 0.8449236341712545 0.3079556809152309 0.041590421847276765
P 0.1818586870138995 5.55227514861623 6.284875946751651 0.13787772101680126 -2.229439032374625 -0.2804962991526976
Ni 0.3203312700815264 0.011234373849767953 11.405859634934268 -1.3364295984397372 1.0426808051525074 -0.4058743450405914
Ni 8.126796745836723 5.986850217617902 1.1880737498509493 0.25462843024700016 -0.03852258155523043 -1.3302687210446638
Ni 2.74446990060035 1.112393109900383 3.929770990293577 -0.4889302331215063 0.7097039196025906 0.3363308896238143
Ni 6.757705380130085 7.192836835785481 2.764643553353276 0.43429711915765845 -0.40280984718265467 0.37342933713800847
Ni 7.577262921064871 7.9162043974023595 13.156461619854781 0.13623452898642346 0.01777352193333713 -0.39317360964447123
Ni 3.5500899558593595 3.7427573809329284 7.217851052425802 1.4639185200230467 1.2871091549380544 0.6726291262374803
Ni 2.3342738401426644 6.639139384221598 4.802214937286964 0.35803074319475114 -1.4858006648081186 -2.1860699213603705
Ni 4.334650776274933 8.85002521079017 7.293122748185882 -0.0495569849925211 -0.4119249221100454 -1.6889910909898007
Ni 5.4418231247412105 1.1547434073596403 4.97095773625042 0.46509070749974735 -1.308093470499205 0.9598272628903857
Ni 2.864195035370762 8.645822035762734 5.444068144888985 0.10946703108459213 2.006217141463364 0.5346040810095373
Ni 2.4054820587083836 8.670831615847606 8.767558508286356 0.250789001896252 0.4312495905805863 0.21445597179317258
Ni 7.539243166393762 2.6242161985089005 2.296703831349982 -0.3622818051616213 -1.8346759667558465 -0.28127560052088335
Ni -0.0010728989305969065 1.098687451996993 0.7142224196518429 -0.2982525946948541 1.0152039398884773 -1.0451236102660453
Ni 1.7672416551112071 6.984980055065259 6.8800816973054895 -0.5854306767431015 0.7487877729779298 1.0522008288278006
Ni 8.033221783791317 1.8909078620121609 12.038104045026483 0.7979022711163936 -0.8255202899439783 -1.4164107042500702
Ni 7.232933767297157 6.740160654316003 9.50174315376271 -0.16141565623774137 0.09135900862997169 -0.41074195754553783
Ni 7.885297118788016 1.0728154725988481 6.616117031801607 1.3227541578351734 2.065617337798552 -1.6970360727814644
Ni 1.9352240589812413 4.399404909657459 5.633236825221723 -1.0948950252622176 -0.1481377081819126 0.6011208337848486
Ni 1.0424182150837515 1.809489948350615 6.040930073048741 1.0446669823446009 -1.2579230202924012 -0.884416035838922
Ni 0.32597395806137264 1.7569763213500076 8.371401937724295 0.3011101187483073 -2.5384177552377314 1.6053327934381967
Ni 0.6667932393551791 3.194466153021059 1.924664767604658 1.5346251425099893 -1.0552414154263374 0.46637857307323555
Ni 5.135254078539536 8.22940371789424 9.437778162117382 1.72430005070374 -1.96190366425797 0.14019865584049404
Ni 5.608637116638426 2.201825997223774 11.126911476845608 0.5057874138881612 -0.696726276396 -0.35744298901208116
Ni 4.1967781634822385 3.066636319328074 9.349015944626686 -0.5551137709271149 0.6865624484891208 0.7966835682179441
Ni 4.640116322280057 0.9316416323273934 9.1362184504214 0.0256701510725945 1.8425939360513426 -0.005795523635854535
P 6.145568783703439 5.958548683165164 13.756308562411764 0.2802235051072851 0.7081957104881803 -1.2714002288432298
Ni 7.208545485642276 1.4190548872110114 9.2940625621495 0.6200899186881836 -0.42441199883346264 -0.1483577946125187
P 9.17892390802795 7.1198759992605325 3.124780579264364 -0.5238442713898721 -2.8697697035897156 2.403703776660892
Ni 8.84650142864992 3.2793151177139 7.183961541347501 -0.8930904236844683 3.388176091793468 -1.3396481053770348
P 3.387124304983733 8.28432835372765 1.0506518102477704 -0.5005729595667573 0.7060048734844485 1.242938373958111
P 9.14432593127724 6.726000613978739 10.653908636293432 -0.2813805015298638 1.9451673253398951 -0.39560715878662833
P 0.11758397346466581 2.4192433552771457 10.344844195949806 -0.21005527162231566 0.06717135564017464 0.2836052770953245
Ni 7.463537489043777 3.7583362072371878 10.05168592272505 -0.3048963252636168 0.1002586251124467 0.7754987066102128
Ni 7.215917608804113 8.887386574587707 10.83949418657619 0.4554313300331124 -0.1375869292492598 -0.46661074368869965
Ni 5.218100051278972 5.003065882725717 8.999370516382644 2.508238917661506 1.3917391696453192 -0.06657948769244663
Ni 6.567931165655879 3.2902110230159862 13.003137222377095 -1.928271578025821 2.527387979786131 -0.2625726247947413
Ni 9.222071693024212 8.564951235644015 9.035377078678364 -0.8112789495336158 -0.40656622890129335 -0.15990898978522783
Ni 9.147358238540033 8.203401914943559 1.512981300159352 0.48565619035592483 0.3309477709350301 -3.117902755920359
Ni 7.312432147003357 5.175378829383899 6.969263986719748 -0.40497728714761866 0.08402879351714561 1.0859506715847362
Ni 7.5155967336105105 6.090143399881678 4.828925205910052 0.5817923086595658 -0.1197316462353938 -0.386222889358251
Ni 5.889566011214339 4.244905609029325 1.5113251225534348 0.77452528695335 1.3107537909401876 1.7608223139994899
Ni 2.3477383971627743 6.18376472748156 1.125940197607462 0.13258099139423618 -0.39584550004967956 0.7274108499640505
Ni 1.7346373972030074 4.694289836130938 13.104901268654222 -0.5014995851460846 -0.6165366541192866 0.0028801497612724594
Ni 5.106155056549795 5.289948114496473 5.9388266309128435 0.7045115767683737 -1.0544716271398487 0.4268496617406778
Ni 8.557106183826514 7.253918817253431 6.907606145065194 -0.326028993477174 2.1652331871206774 0.42862577980449407
Ni 3.6010271540077503 1.009016469638548 12.992265427163337 -0.056377350348464195 0.895547112755077 0.3507560639102088
Ni 9.186741140512765 5.36466156898065 8.860106936955642 -1.9218865004350838 -0.8285094544792893 -2.1770463777055213
Ni 5.172244517901257 4.532177311457688 11.173354925454094 0.71040660209657 0.36729494210549646 0.9606667280725456
Ni 4.766814836443803 7.2834258561225695 4.909869263604843 0.3715141223931666 1.168184063764356 -0.09642382474738878
Ni 2.5422233519718405 1.911846546413957 7.7845419869763095 1.4608103134113681 -2.9549662921627173 -0.3186661253541996
Ni 7.287561663581915 0.07227369900759922 2.2753274561139234 -0.7909584928087088 2.175399843241034 0.11314807948060514
Ni 2.508098303876796 1.1985032176749972 1.5899620302574524 -0.40885271094262493 -0.4275865399067023 0.14396609330272625
Ni 4.997891486846087 1.919339220017434 2.851668917173266 0.4755057321854843 0.3038637702340444 0.7647404396524442
Ni 7.823983309547682 5.511566191785457 11.95247706632952 -3.3952170578006498 1.256656494875152 2.0153620411874256
Ni 5.5561698551922944 8.073327988413888 0.7932413795247505 -0.22823965584082628 -0.5792145206300605 0.6263780656897406
Ni 7.002719516208145 8.441461217850074 5.1664914799017545 0.394758694743404 0.6100947551486847 -0.6475102196826655
Ni 2.690185109418722 4.6137343217826645 10.97524325697384 0.6084132536812038 -0.12179881317706766 0.4110445763876211
P 7.020774263121473 1.5101446555364513 0.3079581582138042 0.0030665547404656866 -2.3425287478134686 1.8124976308865948
Ni 6.77341402998688 8.842727272515496 7.555281938998432 -1.4520220256957768 -2.0375416626082585 1.9797232089378938
P 5.733379004403245 5.442333145840458 3.661965402256822 1.3716886787523475 -1.3612507712484752 1.1733116147989082
Ni 1.8262557328494846 9.083726151575851 13.089347479749378 -1.5463676277578982 -0.9291791989872256 1.618733897335451
P 2.8418190187801797 3.998667422313074 2.0776089675356344 -0.9433603755836141 0.6944883882044167 -0.2145246202475789
P 0.9474708326258283 9.194428549445046 7.101362233357882 0.14032901077077123 -0.923779625238209 -0.033462136313187535
P 5.097048861650519 1.8032398716071205 7.097466599470727 -0.3149076867530319 -0.03077816172312119 -0.1573322301969871
Ni 6.486420520885379 3.2670931575537727 8.03407954654914 -0.7376780362180134 -0.9478338379739354 -1.3416430243198767
