# total energy = -340853.48565408296 ev
CRYSTAL
PRIMVEC
9.38834538044023 0.00000000000000 0.00000000000000
0.00000000000000 9.38834538044023 0.00000000000000
0.00000000000000 0.00000000000000 13.74079245276921
PRIMCOORD
 96 1
Ni 9.234874297398553 3.8508834260496805 9.576384756312592 0.19550617016354715 0.20649840750899276 -1.2737833843634256
Ni 5.311512843450908 9.005676616689613 13.063068908678671 -0.4824042590775305 3.136261203822889 -1.8383989241333887
Ni 3.6994212467649827 4.624727199044195 12.77754960398493 -0.18172402877779026 0.7340252699567745 -0.9869161486873778
Ni 1.6066463562479951 0.6450666531411448 4.483992143422219 1.0346327380370504 0.35773480922088713 -2.879018218771177
Ni 7.1849290394295595 6.733039801500448 5.158485626957584 -0.34828986175790344 1.712359333402096 0.7106559991032149
Ni 3.5449172435115104 4.129876891728932 3.6621410652908857 -0.30268209122111744 -2.220526560376343 0.8762617821629038
Ni 1.2006285748356524 3.4505643704059987 7.453789663721471 -1.9167597207314793 -0.9325761404839166 -0.5657617375592644
Ni 0.6915079822347797 0.8448159102610242 12.380055501527064 0.7943955435147158 -0.5503227772963748 0.8011883980668331
Ni 1.1018631793063012 4.1374251215773725 1.39903248203354 0.18906941339926792 -1.9678861070936498 2.303851642958245
Ni 7.009770675894284 4.374743721215294 8.526628772659047 1.8319850501872452 -1.2120910495599513 1.5057776221506778
Ni 5.584310001045619 7.634874889823065 7.423765734548194 -1.3991341765578098 2.1793657698673172 -3.3431347352831136
Ni 3.8931309811715513 1.4115095933128659 3.24288196126879 0.1468732396471922 -0.5941330896131058 0.8875283562156585
Ni 4.802213872283965 5.920290724411482 8.631787631530173 -1.2206255693935237 -1.325976264316897 1.4357821667981465
Ni 0.10333845866265402 2.043307697642068 5.809799285249416 -0.6577043866068479 1.6501394082299259 0.2924542428455221
Ni 7.396326416913818 1.4821475054766335 1.5637162684022665 -0.9537388906044607 -0.5948121179580015 0.41797781317234467
Ni 2.1241695181453286 -0.09639953244252632 2.031424868638123 1.3065258689017694 1.8798541059543816 0.5940387301270866
Ni 1.8870856271469727 5.956426466559056 4.585495180523467 1.2257847449969599 -0.9732201392575239 -1.5020274110796261
Ni 7.977418066751193 6.241315813264204 0.4588779223808274 -0.2098387847361354 -0.40522514149236666 1.1542905936117152
Ni 9.338305700682476 5.687281375395991 5.86095638032921 -0.11016765669604252 -0.22835998346877448 0.2368860186619146
Ni 9.015140069036912 7.592279965914637 12.650323438821813 0.2046865511112346 1.0750923887139936 -0.4634277179750277
Ni 7.9481358168789455 4.116780149641152 1.755001931979398 -0.7938977779426908 0.8149450855312933 -0.9259704622419408
Ni 0.15439415961015562 5.136232431423057 11.718876569696995 2.22239960902934 1.7125709351922702 -3.270882879796238
Ni 2.9100585385223674 9.177680496109122 13.199144528387984 -0.3240271325557968 0.999775264038233 0.3595330387718905
Ni 2.3429743002942884 0.1173177052352019 10.62036878510193 0.19572008594656615 -0.32323780388528206 -0.43651135320015794
P 2.1817857949859776 2.587484372648511 2.7530365809836317 -0.9341383427647139 0.04346707004469934 0.3081184317453403
P 1.9678629525399896 4.062262026842774 11.664284278968514 0.6615584702456155 1.4423001704223226 1.0074736611237554
P 7.9365693751211355 1.4864004260255683 4.424576120733378 -1.6088693458365453 -0.6976475026586888 -0.3005465329353534
P 5.411611384052994 5.355206203792505 5.288088921222227 0.554205914400865 0.06973191727849927 -1.2185064661679919
P 8.706845576794247 4.426670660632865 13.26264072606704 -2.621864965219794 -1.7151312397202783 3.7802081316343283
P 9.130325680990296 0.47233048276618933 0.6125548123884694 -0.04519999357540603 -1.810852639084004 0.5193625814694346
P 8.636395431542132 3.8302760074957902 6.799947723964234 -1.5371234834518106 0.9573752018054673 0.28595063739904947
P 8.245840255304394 5.7907878854445745 10.252198241236876 -0.08490348281261506 1.5931555346457145 -3.2045962407538617
Ni 6.963495520517461 8.66023244097645 0.6498030734875856 1.4572303093695935 0.026075614041129284 4.9065516052138145
Ni 4.011349028748128 1.6708156983053253 9.569363212651336 1.7538235140841538 -0.9280494562581566 -1.1034262026616803
Ni 8.708432207197713 1.094296172766695 8.608524250010955 1.1746755850259705 0.808322438008453 -0.7699862614324159
Ni 8.059481595489032 8.792063589647851 2.9025497397253734 -0.3052902182679258 0.6775569025564009 0.6093586483136086
Ni 9.493307286251827 9.221608565090285 5.814306629963641 -4.603250135241144 -3.0887397612031577 0.5250593747438956
Ni 9.008070644813186 2.5140581218466993 2.8738589556248324 1.9750124337257855 -0.484304818534353 1.5709756561145654
Ni 7.045033301902672 2.6957695505986567 13.155654895145533 -2.2285370893856458 1.0071623005309234 0.35271935828416673
Ni 8.68404128537402 2.6639430590735143 11.4507106829782 -0.4446401529548794 -0.08604710949875505 0.8780561550591652
Ni 6.961599074709769 5.07395953517342 11.728797234474168 0.7244052303685072 0.03847604458801115 2.1923927782546047
Ni 6.748596290130879 9.437446630035133 8.768220008371626 -1.9412456216879859 -3.0892478111878283 -0.5401949448337535
Ni 9.434817893271994 6.474625589338339 8.194870927136254 -1.0181385970367693 -0.41346527001397176 0.9634247504336568
Ni 2.849729029808336 6.310141774730522 10.365984989698447 1.9528243276645205 0.8758673749379624 2.031598043430314
Ni 3.408908281055834 5.043231480081446 1.422006702508813 0.46007474234239476 -0.5238339869772269 0.1581665531728244
Ni 4.470739554797768 8.124129743171077 1.754424548726066 1.233448946410437 0.2784201333499592 0.5663484633006698
Ni 6.9927120519706305 6.698960107035472 8.589575752121517 3.14168237483846 -0.652469877680786 1.2819924025367793
Ni 0.6597537809706234 7.660664675138572 3.931968689177808 -1.6570201945101593 0.5176144884300763 -1.2011070397446217
Ni 4.37020915029888 9.078886935543023 6.033458780899158 0.2644562149706994 0.7723964135358052 -1.7423350538285798
Ni 5.662467978021079 2.8952061758106344 2.457651063917094 0.16416467973778825 1.1695184663050633 -0.4319736132308044
Ni 1.2777068920691097 3.833289666427817 4.804606022738421 -1.1506393700123732 -1.0800425336304174 -1.186821219249569
Ni 3.0589389227718398 2.0345389828678844 12.106366451102001 -0.6915519312839122 0.5470415354419418 0.1005689572640139
Ni 9.116327657726583 2.5722752528046375 0.3736392551669411 1.5880637219451037 -1.0120327412493475 -0.10540751630323783
Ni 1.2649669071134702 8.436348563867284 8.310142911868999 -3.7070599895854284 0.7741979855209182 0.6599361041508441
Ni 5.176508433972574 2.946804523132813 11.5599506556741 -0.29758230810070685 1.0279774375040618 0.8580228905573739
Ni 7.845549364697461 8.209779619921482 10.254354744217208 1.2691389436128788 -0.6290895510836327 1.8513171748569537
P 3.108884921271474 8.182825679753728 3.7409853303284377 -0.6845143077108405 0.24194646390395752 -0.5259746874693135
P 1.3916814074423345 6.054093425655238 2.369916035612784 -0.030553961527457055 -0.603013165711555 1.1515945348367909
P 1.6431200788365437 0.7493505182039704 6.807079111268806 1.7056960624493076 0.4295920003725053 0.9400079141716134
P 7.974010097304696 6.575522139314949 2.8720047573722614 -0.29101493929583433 0.5588382709665537 -0.5278639340722264
P 5.253192440691561 8.645267418117726 4.10164050355459 0.8810193514525471 0.14667192226966352 -0.6887378588738848
P 7.829438963677655 8.27511311683106 6.999903524686932 -0.39490267652043604 -0.7149497413825622 0.3146045536903162
P 3.0999190512400543 2.9644640011737544 8.002472744607578 1.3994542789013897 0.2804284220292396 0.8482519272135391
P 0.507477632123911 1.3139834594004227 10.29908176140745 0.3658147580155442 -0.3103046407633817 -0.21206021786748638
Ni 3.2588449652629494 8.555505446002124 7.962088776083863 0.7432483312169393 -0.07423134781074957 -1.9207888964955309
Ni 1.0414397871364436 5.797228290514265 13.81774074115888 0.05062939212109346 1.4344847881429617 -1.7961554420831454
Ni 6.552361090762581 1.2773125815546391 10.962706357261796 0.8699414963718307 0.25948807233214666 -2.4472014428332107
Ni 2.3447956393373204 2.2079041723968764 0.45638625546319533 0.05778451510863597 -0.16625652926981047 1.651021296614247
Ni 4.304105809051527 6.143592524094525 3.5220951142346757 0.6461776169141711 2.102640451990121 -0.289604689211869
Ni 3.6257508989780227 6.557064651899482 5.8893589422203645 3.65136166758186 -0.8098725561043923 1.68265872101387
Ni 0.8915050916780408 7.4793663335922504 10.634041032773924 -0.8736150885686761 0.14762965819724252 -0.4125504715091863
Ni 6.96125170592321 1.0827203426633025 6.621742842287392 0.7397138357011196 -0.4183799337067698 -0.9037023948723597
Ni 4.2830383615640875 7.19101268736711 13.046195235162998 -0.9297396994763858 -3.044149633297609 -0.17663478718034095
Ni 3.0214700355515323 4.295121162328942 6.277179293389881 1.4100145709157395 1.3739376226875242 0.31997790218708766
Ni 2.0065898780683713 4.865791748569589 9.013713040508351 0.3349872311117263 0.6283624431096211 -0.8777738479320559
Ni 2.1820674453534568 2.8556061341430676 10.109595843678512 -1.5612121489698985 -1.5570827001825571 -2.1051135961209617
Ni 5.741226809113829 2.269792146477626 4.933261094099216 -0.20054990323504168 0.23577427365497458 -0.4695549139186881
Ni 5.494285155253703 4.298914053944328 7.048050716172932 -1.7418118343352584 -1.2717370433573583 -1.2468965872749107
Ni 4.786338179903724 1.0536634130850382 1.137715393417279 0.27954756208618303 0.7633062783090789 -0.9902513837081977
Ni 7.6634717904677805 0.4215432885023512 12.589300131369223 1.5993742618619164 -0.47090320041646644 -0.009787675514383145
Ni 4.600336277220502 1.765159183065254 7.150350823814146 1.410282222754829 0.34101852490747075 0.17724439573988185
Ni 0.4526609599360046 7.917839625683773 1.4590249491411544 -2.812844708267898 -0.060644096044618144 -0.5736331698875411
Ni 6.013892529870382 5.611282717904538 1.6834392677757404 -0.7920321854888618 0.11864355537753758 0.35456463902302165
Ni 7.66065528679299 4.83237862664098 3.9971416453779223 -0.20339380044174002 -1.4219221209866029 0.2414204161971584
Ni 5.588891513689945 7.120994406011795 10.68154230608384 -0.03946309109162881 -0.3890575305935687 0.9479253692464773
Ni 2.550231417376603 7.203949827579985 1.048861274319519 1.5621742557728515 0.566774752204811 -1.0485120671223038
Ni 2.979015936826843 2.246133515609378 5.317810545667742 0.7037392173787235 -0.8170384777252122 0.8646910466061689
Ni 2.1425612871417163 8.044084708733505 5.716760780525474 -1.4674820690045887 1.848353207132623 0.9911191310251318
P 5.305992496248317 4.778602183143631 10.578720206428232 -2.0413672070019357 1.4212916864914555 -2.005304399841108
P 4.791295226371358 3.559750829532078 0.4414146607625626 1.1382152853164074 -1.3319191121638931 1.3174448298071182
P 6.7232195920210085 7.3886091968448895 12.891172056398805 -0.49425575909947783 -1.924512110983389 -3.0260863480379947
P 1.978668938305606 6.236593475436137 7.312849942165793 0.2247758656619419 0.25143357745878636 -0.49140980501025044
P 2.0655674650185025 7.342099332828501 12.516790183096278 -0.2221543688786948 -0.4386564245676188 -0.8503594604748451
P 4.705185320687402 8.553364903209284 9.221597299075587 2.3275777829305913 -0.29760853335295195 2.8338945869596612
P 6.495542823296456 2.024822045189854 8.625453314765569 -0.6766863270259894 3.1018269334044195 -0.15735408457385802
P 4.585643516383673 0.7982656763586305 11.387462337622527 -0.5882295796444773 -1.6761605148840357 1.4237956838602317
