# total energy = -340867.70408461057 ev
CRYSTAL
PRIMVEC
9.25039739825932 0.00000000000000 0.00000000000000
0.00000000000000 9.25039739825932 0.00000000000000
0.00000000000000 0.00000000000000 13.53889163685079
PRIMCOORD
 96 1
Ni 4.122458169512115 4.79554484653412 6.128189494159416 -0.1672759716732603 1.0307763404054378 -1.3363285540854986
Ni 7.882587517339105 3.886508279172242 13.423730132180255 2.2852466262625484 -0.310423168619117 0.4705003085510929
Ni 9.467411877807955 3.721740197989279 10.31031272787713 -0.8258673888707518 1.8157022538668213 0.3063515696529046
Ni -0.2940414619220034 6.282564753693544 0.3647218995316365 1.1581978990859214 0.5177294167413857 2.069797694428487
Ni 6.565885929893397 5.583678717901089 0.3438446772982079 -4.357378625251167 0.9128650352082345 4.068249590124136
Ni 6.656354817944676 8.999795031194436 6.5059516791190575 2.6463215556002617 0.22574722843627573 0.6855664031244386
Ni 3.3501702291504483 7.949079374937529 1.772010780117279 -0.38343761330363 -0.4871998806939609 -0.23352481549916554
Ni 3.13298014504452 6.831233583651161 8.572203729745448 2.08834254731021 -0.20450091746298976 -0.0426178346705266
Ni 7.756042078837929 3.8510515053582797 8.398756925579896 0.2158610796708153 2.307843280616142 -1.0907743182256247
Ni 1.7968989747289321 4.538115533080231 13.751181254938128 -0.6301532164614567 -0.32401299148840973 0.48840547096628795
Ni 4.874635745597354 0.9252340134741263 6.08305125426831 0.3470140803692734 2.332267989317409 0.3175502665822015
Ni 8.550327464576483 7.62784081917508 5.670453922210151 0.7651240482441081 -2.1886996456737333 1.2348717948998926
Ni 0.4479181250281182 5.641512203391538 4.108688027717316 0.7024582937837709 0.7718459403489739 -0.15771763856086385
Ni 5.629588440947969 6.512659142383473 2.4683427811458327 -2.7946868064119483 0.5744304689778559 0.02187751679938168
Ni 7.273985361646903 7.739511618413836 1.5717701994445168 1.4148441310938988 2.1582048195189865 -1.678686109519367
Ni 4.2546000985318 8.444012645519905 10.249834553726778 -0.908683650137035 -3.1578325022357614 0.09862957414945595
Ni 8.649944995805953 9.0367318686166 8.339523854939943 0.030909287984346768 0.8112123579617384 -0.2750162498747328
Ni 8.598457283035666 0.4768755695225684 4.940544828150049 0.28573389340255306 2.2765616968940408 0.6704043506720196
Ni 6.715279850346173 4.206387026494657 10.867465097429005 0.009936542387421596 -0.1875871724267866 -0.20204911348838747
Ni 7.892781455440589 6.808542358457931 8.28605933221295 -0.8093465083975931 -1.2115876275609714 -1.682466916718038
Ni 3.599903211841693 4.941016598425164 12.349635946192059 1.338206487834502 0.4979360361645424 0.2025651338928576
Ni 6.753696751376538 7.97133583144585 4.114510227936077 -0.6396585848487306 -0.5515466224011468 0.4630839614823637
Ni 7.944213665825569 5.930365117327042 2.6563302852222024 -1.3127988463946747 -0.7464552681900113 0.024455047718570787
Ni 9.413759572010672 5.348200597836328 6.440180427489876 -0.9868127903402939 -0.36022980772859897 0.8467097795373998
P 7.618303659299736 5.8637437541629 12.314691644402437 1.0780118763536337 0.4151488283639818 -3.859669103275134
P 2.5891862745964143 2.4170733777577547 1.1417145920878728 1.7253603736474543 0.5069312976846173 -1.2518603590380892
P 4.52300963387903 6.682958961302086 4.915876793000117 0.6401820614523684 -0.5276708442248138 -0.3339225372926379
P 7.5280567807896865 5.666923045464836 4.746247627903969 1.0476798010289958 0.14257666915436734 1.0210475431534478
P 6.228597934379519 5.343501395880291 7.684769615785016 0.12211351620400902 -1.4823409883942922 -1.1920361877916053
P 4.747433528870039 3.059781749221435 11.018397358994553 -0.3185496543809933 -0.2647341512224344 -0.2773315282714708
P 6.452013536037442 0.8902388344979716 4.5503538090405415 -0.9311990576307319 0.12504791624198464 -0.38408090331458367
P 0.026303505436995014 2.36096971660939 3.2971127239157116 0.3295766016191163 -0.47030901847589324 -0.4224721014982724
Ni 3.707439083375038 8.36750260737347 5.865684487569153 -1.5164687833159367 0.1501467681921414 0.7789758665255359
Ni 8.222585879335501 1.9732948056338233 9.480798128104375 2.2368520370092444 -1.5408479834912496 -0.3727387388288871
Ni 6.8168307146638565 1.6651363120088487 11.175109268950129 0.0987730417058557 0.2778331504982376 1.2117858596147066
Ni 4.3622747260284145 4.300778083107668 8.480992034770802 0.3257561994317616 -0.5556889267042946 1.346072777956456
Ni 5.809934191607247 6.497664247952889 11.657473099339857 -2.050373010044972 0.667240094011425 0.2496003809047895
Ni 5.387107769936909 7.252931456820245 7.107133165895642 -0.37113462756656085 -0.9232471497735066 0.33202274916676366
Ni 5.782728772409005 4.733160165448453 3.8043610487580724 -2.290362864443191 0.06749505752818054 1.421378589778307
Ni 5.430575388030259 8.947641289800458 2.353884837124883 -0.25199279239636596 0.260008463611991 0.4195976081639548
Ni 2.3235981105023176 6.389758360517493 6.00064038752393 -0.05676507270518611 0.9419794360756873 -0.4131675362678949
Ni 7.400623304123591 3.3438244564302866 4.036336043270172 1.052309072270891 -1.2597207356227722 -0.8265001373587443
Ni 2.252767816452354 8.051657033383401 4.007254643448535 -0.5068063420709789 0.041710749475224934 0.4543190708055401
Ni 4.111033928536315 7.841210489092339 12.95192655563504 -0.26000332140566834 -0.20899751978176265 -0.08739359622432046
Ni 1.7297318381092657 0.010158786590788789 9.233185336531879 0.08717685222782405 -0.26456600107568634 -0.5292361318294047
Ni 2.0605538057348163 3.3537686337978863 2.94296217870565 1.0142323200038275 -0.3367666916096523 0.38251612993062506
Ni 1.6150546596663513 7.0524290898967825 12.720520460572343 0.8358124158986057 0.6796664927002359 0.5188625019045644
Ni 7.550461243658828 0.8213215226616079 2.707818923032246 1.8567085210758538 -0.1404933042627774 -0.5544722806883741
Ni 1.6195781040689152 1.5846023509276184 4.874840179383237 0.29733342531469437 -1.3475827868430792 0.07042174425667228
Ni 4.8768280898170016 0.6936096090292193 11.761032224965918 -0.2551940729424831 0.7354036383615399 2.223526523544932
Ni 5.541404401091851 2.0911633712319206 2.7138168808044796 -0.09880286650252662 0.9997598374192652 0.9826607158451334
Ni 7.511221057246401 1.6249248338535411 0.330104136775573 -0.9148679245708761 -1.5944948222824282 -0.3048611011503072
Ni 3.711102240805335 0.8069908067752029 3.9467228169923843 0.823220438166208 -0.28619103554462966 -0.5147453944123973
Ni 0.1642297080454799 4.357677278445441 2.0697579512983153 -0.42309765089741325 -0.43190033679070783 -0.48406287772687606
Ni 6.389823113300351 8.840188671845075 9.365947967227253 0.6408469487298769 -0.7408140107438338 0.13579101369110164
Ni 1.6821477931056077 0.7124637693181883 2.677207507455631 -0.3912100581601972 -0.10739446482627957 -0.42218799459895034
P 3.658421226750935 6.304182932770828 10.655825251853829 1.3364020876359113 -0.461246908273625 -0.22602722157053975
P 2.4890969730918298 2.5914248708038183 8.581613234134585 -1.3465705435284807 0.5650860516484784 0.20232165042348385
P 4.263498980976109 5.894149810913877 0.8032425456874341 -0.713211932755849 2.6776627889157045 -1.5356895792187617
P 1.3517420933698636 8.442199567599857 6.1316426675653 -0.25814364248911026 0.7642655568985547 -0.44203613967312905
P 6.579641271052114 3.761276397123345 1.7103272791659974 0.49596014338509425 -0.5091280482256199 0.4117007219143813
P 0.3747992826239742 5.3007183072057344 11.97080349023574 2.3593285929796273 -0.5205620010941744 0.17517620035694345
P 5.91207708136821 9.083677636189222 13.707044833101822 -1.8708716999501134 0.9745193176849218 0.9871789154304613
P 9.147246368161449 -0.3533448355833473 0.8753910213884515 -0.8510698562783086 0.15406924317499918 0.5372636301195715
Ni 3.7137571049025455 1.289912436137272 9.742369769581718 -0.004383216669360194 2.43191469187747 0.4015700612382826
Ni 5.681936440690524 3.3947293941548455 6.747526736209851 2.2662335754951553 -1.569107492557575 -0.6536183894629324
Ni 1.8553429864577642 9.517086512658194 0.2779651960176765 2.4625427011759715 -0.639529258359718 -0.15003106854988355
Ni 3.0741568670160864 2.431929516225071 12.463105022714782 0.2411851602579007 0.15804828242740523 0.18622937284731153
Ni 9.11756184241947 8.043914450633 3.386198677533078 0.5113481958053904 -0.4191294102782846 -1.7689156325305857
Ni 2.2465793004905645 4.687786965459545 7.592326692896299 -1.4789281060580013 -0.7346454200392767 0.7160432315570572
Ni 0.786236614829206 1.9202900276651291 7.264441726493273 -0.5859089019311006 -0.5004839993973768 1.0632231480802334
Ni 3.0778200244463836 2.2197901491821286 6.573335275041423 0.17204716780965854 1.312370243497688 0.12562744289453848
Ni 2.560112275092818 4.027493588250927 10.253165621884985 1.314149703995614 0.0814126960505372 0.03227428665267345
Ni 4.226978411443752 1.1360135720770341 0.9761500516757469 -0.17580997728620043 -0.4011152330890511 -0.976569772456047
Ni 1.452617678666305 1.8497649967343572 10.747632672430775 -0.12503711760870723 -0.9435501229969171 0.4626034223015194
Ni 1.5452696605396798 6.400165057762655 10.45501669677142 -1.1081722019870979 0.3903106862743794 -0.9618208962816467
Ni 0.019401783824003285 3.0831297526408044 5.350502096747081 -1.1468372226574635 0.8584756618240763 1.2087822969016924
Ni 0.22341745173743305 0.3208158125943573 12.282090468312548 -0.7799755114346438 0.13501171232291587 -0.8128033565979421
Ni 0.5912622854823734 2.164167508706429 1.0496361348626757 -2.7247538288662363 0.2965363833346958 -0.6169685994503826
Ni 5.621605347861236 6.209754874567611 9.421945248803777 -0.3723013941811523 1.3282290649068156 0.4203013190991987
Ni 3.083638524506123 5.766438822321244 3.5820795458399335 0.42634881084485926 -7.79044257869626e-05 -1.149871381498097
Ni 8.221707091568131 7.090956995697763 10.514384823215623 0.04248593707835264 -0.44288306105445663 0.47667378435165647
Ni 7.326694126893957 8.21763691664558 12.559948359718629 1.6218829844873939 -0.2997075819738258 -0.883796142866736
Ni 1.9690303723626943 4.243730881409076 5.010865425294939 1.152086386871545 -1.2334360908946305 1.7689855665365728
Ni 6.047586155096552 2.0213043689248393 8.741670087844692 -1.8315176236325232 -0.10288217877822282 0.376411559694784
Ni 4.3823018367268824 4.179542372800913 1.8637099710428748 -0.7788887061283682 -1.5950594365366466 0.14506446857322758
Ni 5.6477192201484305 3.2056512682071836 12.999975895635528 -0.9860756550639536 -0.35625642490314774 0.4665012146940288
Ni 1.0461089582763818 7.330477539492421 8.02718233154229 -1.1018552586301347 0.21579808764336383 -1.0183810520648784
P 8.757721377675631 2.481539398292454 12.156882637297285 0.6217909605396904 -1.05001590536134 -1.415064474634821
P 0.4027780350575016 5.430057365767388 8.775815155285887 -0.8816230464748172 -1.1673417703687186 -0.4795778453723289
P 2.1930379994638978 8.720470026736725 11.262070406249972 -0.03337960390171026 0.39581567525300865 1.244551998302134
P 4.657565916659593 0.09306177448489569 8.260971329014192 -0.13976465362686896 -0.5492863656120603 -2.3859222843077554
P 1.446040646007362 6.7944817541800235 2.2681845290112768 -0.4011124048755737 -0.4385445815801028 0.13709996231051225
P 7.6231416172190425 1.815251763470623 7.286374419087299 1.0959306656155834 -0.10493443332156123 -0.5175656374700119
P 3.9670884922412286 2.8655974038254795 4.624303337144788 -0.12854384521038506 0.9726208151106281 -0.17814376762569964
P 8.162486046444993 -0.023440507394881432 10.53370427850142 0.6577990032031832 0.29654255398228285 0.039540738407099645
