# total energy = -340861.95334407984 ev
CRYSTAL
PRIMVEC
9.35018467479826 0.00000000000000 0.00000000000000

0.00000000000000 9.35018467479826 0.00000000000000

0.00000000000000 0.00000000000000 13.68494040271658

PRIMCOORD
 96 1
Ni 9.154971345497287 5.4741029147611515 11.149380659095309 0.06022423489838015 -0.806374827363779 0.6550381526285944
Ni 4.3045070363460365 6.274974267519928 3.8124330067626393 -1.1535989668613296 -0.7096357853688166 -1.6614124100405838
Ni 9.265939335112842 1.6277736191584118 1.0800155008189922 -0.49593443235348134 -0.5689735596283427 0.40226940129815236
Ni 3.563327261418883 1.8836881688532003 11.111460050847514 0.5389754706043556 -0.7717672645922387 -0.11281846405532828
Ni 5.456711571595923 1.5257818066603939 13.321851146188681 1.0003342218654965 1.1091430505407995 -0.11362964710271398
Ni 4.322104083570208 5.699404960411339 5.999846958719811 -0.7201837360879919 -1.988405052982608 1.202644816545387
Ni 0.19110655090616893 8.883600940828238 5.715159086271067 -0.5630955035810109 -0.41851491662273727 -1.0586059610231962
Ni 1.3687641583949723 8.666723411410238 7.662389238931934 0.5897048786384231 1.2270610406062223 0.49496435513072823
Ni 8.660608390748918 5.890934139656792 3.749783030556028 -0.2557841411179982 0.7547979837277516 -0.9763720546229444
Ni 4.795373022092365 8.488714598948077 13.347305153446047 1.1283677030983663 -1.6655979088768413 1.92414675722417
Ni 6.655854033022932 7.698362203748915 4.690800558673055 0.4353263317531212 0.35216040045690317 2.0705813666720467
Ni 8.83479297775163 1.1051357064898002 7.234598662786851 -0.18996004353433737 1.9553236970476067 0.7291669134232087
Ni 2.1490370547059006 4.163627806523187 11.633266732114304 0.3564474578680313 -2.180701200849289 1.1967081393459778
Ni 6.988337243567213 3.9904156387082086 3.4173213254360904 0.9210681398443169 -0.2271119699942863 -1.494343155061491
Ni 6.173104007420378 1.5120650860026572 5.715707007082616 -2.0396188568522615 0.22604547640298492 0.018910977971890012
Ni 1.0449953198023 9.083246080217464 0.052058087207917596 -0.46121039860873475 -1.200346250319197 1.0695830288599901
Ni 6.892525903021999 9.090436372095992 7.04109285453864 -1.4019726744478695 -0.8179167665651074 0.4651087052218764
Ni 4.654213286734593 3.650545782410954 3.3664404264564 0.16804678840101384 0.5690728042103683 -0.11504683916521477
Ni 2.097582989416517 5.575047506595457 2.989105315896374 -1.4694618184387789 1.4177980715159002 0.9600324369226563
Ni 6.349027728739612 6.820613634052229 0.1439965813342938 0.05301280475160547 -0.5861487858560487 0.1993772230831792
Ni 8.66858409812523 7.597950572430963 12.660458365615039 0.256647517559558 -0.6832146150628104 -0.7821290674425369
Ni 5.644463276304413 3.571620875068107 5.599070000606266 0.6314043152597384 2.6915937971745003 0.30748748302956075
Ni 6.020134989042345 -0.1661995294419023 1.7407378731641694 0.7567761905000451 -0.29567712065819396 0.15450607360210167
Ni 6.767719640350241 4.240093615343208 7.837050685344015 -1.7457319953252708 1.8427746846035813 0.6997907742539367
P 8.006123526481979 7.068655328400178 10.545286744140396 1.5628679394057665 -0.11787068176725507 -2.2320756986665238
P 6.9235404649999905 2.058200012313322 1.3314831027668006 -0.21741094065643848 0.20212676080385836 -0.6859122164996315
P 7.764346455747312 3.1461220291433456 6.445784372937516 1.5675146941491584 -1.1533254014849685 -1.0431106936010746
P 6.108120225163206 5.4728312896695 4.620705965569585 0.643718356740401 0.7437011024836417 0.19541978109732797
P 7.12922582357456 0.9677440954844944 8.908718341443697 1.0174256301301445 -0.3803067809841322 0.6948478284263645
P 2.959857003769948 5.597665602894752 10.362770207732021 0.4530196352678262 1.1855672922378098 -0.794795864276928
P 4.526003556905768 3.608030493501118 7.678852108776567 0.2929684634777793 2.6535831222586816 -0.10956190479124356
P 7.691256063530864 5.344537408180199 1.6161775203446933 0.41443868967083464 -1.3381936323186954 0.2169154890772587
Ni 3.75247214361749 5.103985211614695 1.4180059700322627 0.9334621426332956 -1.1435382401912177 0.6024747767095818
Ni 2.5175652264877932 0.5074073971407401 4.1452500188934795 -0.2809660397002645 1.003118212368537 -0.6872129375889261
Ni 3.3958374065163346 2.896986363209197 13.521432704323324 -0.31741708343844693 0.6445151416100836 0.6310970684319648
Ni 5.651625517629447 2.976734086787818 10.19492504581857 -0.7606860670774126 0.5757455882448537 -0.526241310867139
Ni 4.735765595921218 5.744846857068872 8.933816106671712 -0.26265284321337345 -2.263714408617727 -0.49181681064068206
Ni 1.381209253961058 1.904071571057608 5.762837547060386 -1.3294125436919557 -0.06674815205982698 -0.6582111510399373
Ni 8.119718917941313 2.998052507441969 9.125282639681032 1.1694529031744505 -0.787007735691077 1.1544070645849216
Ni 9.146565529634092 9.173419259510725 9.327203613976934 -0.909257520362634 -0.7078527253264648 1.2396049387095038
Ni 7.923617498476615 7.077294898875808 7.252060132335809 0.1434873538940948 -0.7329826876248732 0.3734367933371762
Ni 1.2262486462850726 4.340037737436289 9.52527979240749 -3.4339772092879826 2.6924510029684727 0.20689307184425013
Ni 4.6538392793546945 9.373372954988367 9.178133622534332 1.128802990863572 -0.8247157917648119 1.0946415144905148
Ni 2.903017232210042 8.803525960792207 12.345513296132594 0.6732934992943566 0.4771869765426491 -0.3397175467078601
Ni 4.003702250879064 5.547099805132625 12.711680546328886 1.1513901321354685 -0.12732359965003878 -0.3135151772808794
Ni 2.975499862434156 3.315089213196488 9.14653467402525 3.7432940322167982 -0.9760126144009964 -0.7200268987951535
Ni 2.4464664235692997 3.603879011584257 3.9287680022797224 -0.6866971742947722 -0.5989202265891039 0.9948582863525899
Ni 7.008645844295642 1.3968147118872767 11.180705647198616 -1.1652640619040835 -3.890882809873776 -2.897826866837248
Ni 4.1171854401244286 0.23591731011012487 6.672038267369541 -0.6623241447670465 -1.0313370980049141 -0.27964397845473127
Ni 6.2325244299015745 7.501503419339924 9.13654493690819 0.775225141233852 0.2159410409791313 -1.120327349292393
Ni 3.4492924112881687 9.170277597519588 1.607528599684566 -1.2156623118509775 1.0190240849655159 0.3009255135413269
Ni 2.589075437524174 8.946088223824594 9.816330465406738 -1.487598637248806 0.8991566844832062 0.3136059372224728
Ni 4.631819594863236 8.498756697098322 3.779178140579063 -0.0989062248496103 1.6796245621732362 -0.4167498543025145
Ni 8.990164993545502 3.9544922298690643 4.784912035676634 1.0669193659848981 -1.6117556662454051 1.1422619445819553
Ni 1.2293716079072154 7.01779967491863 9.87198743862772 -0.33242152726707913 -0.24586791044555073 -0.20514317903267895
Ni 8.197792958494892 0.6104660656899156 12.911385526898895 -0.07237398288703664 -0.10870289922505795 0.9790020360466236
P 0.8087750637144584 7.266692236055845 4.46363034616028 0.7864737175644777 -1.4841055364938829 0.3503115201736225
P 7.828918829886596 8.250930056993814 0.9183975617808329 1.362588516223292 0.5538097074037107 -0.019393316924947245
P 1.8057824316205742 4.769192505499547 0.3006879081607547 0.5805139561677745 -2.252561477324701 1.7972139652546468
P 4.4979343030444685 1.418030280511956 3.963391735473723 -0.16849775989550336 0.3245215556937121 1.015265132143716
P 5.794290632691306 4.418345532602304 11.983422726377185 -1.4958845314066818 0.07218217859120472 1.8903886869371183
P 4.960319626811611 7.449263938552756 6.784952030379014 1.007396785139233 2.815415040098235 1.7890435136287124
P 0.7833883777854733 2.2688970697785167 3.721934441048868 -0.30317265770429075 -0.6508076594870147 -0.5487942564669903
P 4.571894262419177 7.385710734523692 1.4617844688677017 0.05202010182103299 -2.288806061479032 1.8718047532873439
Ni 1.280461016001199 1.7921031117008273 9.679152973626424 -0.45102188811150706 -0.16485193561279995 -0.13467541202941968
Ni 6.629785718644084 5.172765168777825 10.285395560978849 1.5438446042257281 1.0883608236881255 -0.9241020415746342
Ni 6.455760084777829 6.675152813825638 2.6758984457120034 -0.8148499547143256 0.36029742774174084 -0.6857605214131157
Ni 0.18398264533757341 6.321145478568261 0.8218905675090101 -0.8594575661213715 0.017068268336196412 1.2298645714932883
Ni 3.070067628441211 7.087234144996581 8.121751648051056 0.18689837388987812 0.71668060803074 -0.42123128711263574
Ni 7.875548199975303 5.046911685442353 13.236977651468566 -0.6075956428759149 2.148551098479306 -0.41917337614234257
Ni 1.708344158972807 6.189298526969933 12.59181492114557 -0.7801184647704112 3.4712234952339505 -2.2862781528508562
Ni 1.4934395184837672 1.893187956302594 12.35865030535149 -0.14661561511043134 -1.7094123349586303 -0.34686778459939616
Ni 8.122393070707579 1.7411352560053104 3.1092046956921235 -0.20443715410458982 -0.6163970432176288 1.4830341578065749
Ni 0.008132790475868727 3.38149422349727 13.315227475490698 2.13105911234213 0.9845905858779946 0.7912456850318244
Ni 0.299031990486259 3.7475165458338493 2.2011409578178553 -0.03022743142597375 1.3582484940870414 0.09728668696831633
Ni 0.7818025864947084 3.4839254946666673 7.519928892910569 -0.7216454082351829 -0.208846338915879 -1.880502023951026
Ni 2.418490671552975 6.873086869451833 1.0601267233744989 0.9576901619427248 1.75188053142517 -0.9238719278416991
Ni 1.2429387256129933 8.183356273630853 2.547861694296381 3.756451909754995 0.5437127281790248 -1.3675898260926254
Ni 4.791099987777036 1.872813904282684 1.8721818318106573 -0.6428223272886929 0.6455227569389915 -0.28091641740925166
Ni 8.727013401049698 8.269733278018155 3.333227636103062 -5.478209910763171 1.7858067518589695 0.34699685397809266
Ni 2.7066727079484103 7.852986204782993 5.219587152667179 0.4108021213595119 -1.318548090173626 1.0813645948759505
Ni 6.529776145259523 8.000560166706006 11.424050743873503 -1.8411114379685456 1.6529218560710692 2.5043218419952873
Ni 0.8693820246083805 6.558453161113154 6.826363062499701 0.4225908864643238 -1.3220884992267166 -0.767637301584265
Ni 5.35506571592431 1.7526640334906476 8.005567190504381 0.6094956881121052 0.5975968797919902 -0.5298480543817907
Ni 5.835618448169967 4.108237313560384 0.7048524381177201 0.416998737088527 -0.8172894173937538 -0.2927506910400184
Ni 7.448637476191427 3.1313019867149112 12.22976549220195 -0.37921689035406303 0.325035262105337 -0.04894172000602539
Ni 3.5832338042139216 2.6468128267958333 5.895910307846326 -0.2009160283252088 -0.6283035648472275 0.4267565878062392
Ni 4.276269479163783 7.395995937470871 10.772867429752608 -0.39051586030665003 -0.257297235328415 -0.16015118770302095
P 4.99724350539198 0.22802107930204124 11.739078094979524 -0.5154779017030477 2.109979665964011 -4.613427332884461
P 2.2225295048557374 5.150436928197951 5.6474740357125865 -0.5059565924761737 -0.6089004777302675 -0.5630155422726948
P 8.839795326457756 5.372457059089538 8.294196165718795 0.4900108677801948 -0.6171004970425567 -0.186484169170595
P 2.2863445140507297 1.3528688447493336 7.558411447246661 0.11423025680119037 -0.08247764697994182 1.553453330960086
P 1.0771319039199831 8.729921308428402 11.538827063634862 -2.4271928609217683 0.19959859506536592 -1.5619672819683679
P 7.638352719644378 0.4902413934218997 4.960475774892718 2.8214735875874895 -2.8115067061827643 -1.4181688245917576
P 9.437234715105845 3.2604841357314696 11.108024793063157 -0.08454507103193182 -1.2709384587154628 -0.13219121215498525
P 2.001855800531781 1.4235281889964475 0.9572475783676742 1.494913168632348 0.47716743615862334 -0.5690728042103683
