# total energy = -381170.9666617792 ev
CRYSTAL
PRIMVEC
9.19159071886120 0.00000000000000 0.00000000000000

0.00000000000000 9.19159071886120 0.00000000000000

0.00000000000000 0.00000000000000 13.45282211728061

PRIMCOORD
 96 1
Ni 7.885695380319976 0.6162648994797462 9.961976431582235 -0.917965332549277 -0.33996128728755 0.3625306879476337
Ni 5.92081824565713 4.040310721270193 5.16085201846701 -0.6653801579845509 0.2411044276186364 0.4260348791488663
Ni 6.115735116286924 1.8168189929998853 3.5245990656661776 0.43306607496403476 0.9369038213249928 1.1111551958748218
Ni 9.227713568394245 2.4838435325044346 11.41957611419147 0.16998025797830082 -0.6432517015166277 -0.6615872666010219
Ni 4.115599040016238 6.888775461971047 8.489416516084335 -0.788019979005675 0.8633661571471583 1.3149755423310192
Ni 2.5564479067902375 0.3674347540843652 5.023499322395984 -0.033520757465264846 0.01784319882900798 0.8781320026024232
Ni 0.8532682252278878 3.078695702482192 0.01898431126090611 0.39768589569252805 0.43847953267012224 -0.47131200581911087
Ni 7.094759007704031 4.261975120596237 7.763005109601615 1.0743069166982206 0.5524447087353841 -2.261725660322473
Ni 8.965744044211478 0.8858707971473389 7.99848263130729 0.19419593599255588 0.3686239453295651 -1.5829307715939125
Ni 9.200690291979477 0.1834797744247262 5.788614678649897 0.3042756609604824 -0.49968052965947496 1.5107683904970497
Ni 6.647964979389232 5.9660224883128565 11.828326148941395 -0.5076332088476484 0.005624802385945152 -0.7239905114285918
Ni 6.904952661457439 1.628373002164649 12.115463167393305 1.1015582962150061 -0.08464971493059614 0.5407461893515333
Ni 9.088378246227073 9.0014717569408 11.90881506965869 -1.0380386783948057 -0.14815904833815127 -0.6899231374312376
Ni 0.4435521543040882 5.27250778464934 8.758903842232966 -0.805791186946167 -0.3279249249483062 1.9675492925795213
Ni 3.6923538668628813 7.626354651053747 6.3612204418566805 -0.9116756428858234 0.2112984000007974 -1.1059857358587404
Ni 2.8783833681600623 7.782161303607064 3.618580322250561 1.516047379507802 -1.6469926350708282 0.430892978572116
Ni 7.372436960251709 8.910723182776511 -0.06619232067119651 -0.5910256543323757 0.06194224603075138 1.1245601564268182
Ni 2.644503344903668 2.5538834530080194 4.277015320323273 -1.3984320082844626 3.3930197930390147 1.1096852961975148
Ni 1.6974386140628035 3.1859523733950965 8.547896173068581 0.4616780822737726 1.7885861143763195 3.1073923433073385
Ni 4.50851196413261 6.604323307138442 10.793226201486458 0.4647266392921093 -0.531136434175911 0.7087621245146116
Ni 5.892646020415203 2.538349664864836 8.85877782756208 -0.08592421076764557 -1.4388029559023414 0.34519502488266357
Ni 1.5671110507005552 7.674307179304036 9.400791219717407 0.44656410945046965 -0.7144350065296728 -0.8682347980933692
Ni 2.455652924081272 1.3261075447157784 0.9929353638163426 0.20062086568229318 -0.5640426979856286 -1.4676306787673112
Ni 5.098226034955315 5.687158820575552 6.872360200287667 1.9464366789706218 1.5951689655313173 -1.4647862673399805
P 8.309795371400739 3.103917427135977 3.3286187280019663 -1.8765867480570197 -0.6532265533411524 -2.355163920078976
Ni 5.7828340873106985 3.252664938095231 1.9512515207318055 -1.0749522635917035 2.0911257664823015 -1.5441595643629857
P 4.282426409719659 4.064585712090398 3.7272524981185255 0.1982117420201683 0.07682327690764189 -1.1517999659793776
Ni 1.9861097089887343 0.4336243172783766 11.820981148879135 1.3240703055434357 1.423220528083052 1.3083814340532691
P 3.3037150323835394 6.748199275070544 -0.06601768044946842 2.2580646665311175 -0.5929403548565852 -0.6533607649261715
P 5.0778482785568295 9.017345633936824 3.251869865506837 0.6560282844560057 -1.4909050759142195 1.0182221578895108
P 7.421042091435824 5.176069615892961 9.99190884642737 0.6564951967900953 -1.024896484585893 -0.9960687617209233
Ni 0.18542195752215504 0.6546581734880762 0.7520090671927507 0.566640797730108 1.0106929393920014 -1.5704699201227403
Ni 6.865860826562196 4.966997695712574 3.179655214663206 -2.6025220419168087 -1.6281179096535123 -1.8526587764865126
Ni 4.630475180033144 1.834108374950967 5.4083980986531595 -0.09904943529569393 -0.298266478651925 0.6170521603031244
Ni 6.251743082650644 8.382850133626787 11.307702507311513 0.4075396485581562 -0.01640543794121691 0.9381600623295971
Ni 1.2025082256853703 0.8143317282140773 9.681256062540243 -0.5881437047988903 -0.901705419046989 -0.43034276249560083
Ni 8.347315444300428 6.853764693309871 13.170366396833145 0.8839820336252969 -1.253177535187616 -0.12363843748896772
Ni 6.670548717535861 7.840390030167459 2.254544598011687 -1.2866119035866617 -0.6724455494717645 -0.15827068285085644
Ni 3.463088022096356 5.632303407771693 5.223193062669572 -0.0485946210792518 -0.7311754592128052 -1.4607118401602908
Ni 0.49407648960908895 1.701905727102796 4.280028323727614 0.6011881966876743 -1.0989558255951526 -0.7923484311776999
Ni 3.8478571969258275 1.5142777878324967 2.955733360681561 0.6297297557707929 -1.7595403619632728 -1.686344140285257
Ni 3.3545812948595026 3.3619069925814653 1.5641054005687085 0.38058240324302195 1.2825626732179525 -0.30951634053413146
Ni 4.872701167570018 4.783790911529181 13.366252980273062 0.2114392964540359 -0.26675066743183096 0.1919855586047984
Ni 7.954678267902574 0.6653286910356631 2.6157805433837664 0.19938467928234693 2.249609593785229 -1.0415006688014772
Ni 8.909693724627378 7.798228204006048 1.7381849352691543 1.2441773885715346 -1.6793273426477917 -1.3324477309738536
Ni 3.7404442689724293 8.43728273326225 1.5928815133141905 2.325889596594891 0.43857492059740594 0.06691321688278154
Ni 8.715227241937828 4.868427077932988 1.9174172756696408 1.5567461427787448 0.40786540732869114 -1.2242886200674077
Ni 6.598835927539933 7.150809327288134 9.053856470186737 -0.280739011291123 0.23727271257737198 -0.2733393763929422
Ni 1.446140526586686 -0.011528092952178003 2.590179206037489 -0.26905514719529144 1.1432554188434763 1.547409181648535
Ni 1.8531257759380955 7.987262456640791 0.6257901448364214 -2.6573441319630104 0.8700561675728242 -1.2537930572844278
Ni 5.5538164154908385 7.19923981825052 -0.11333231231091913 -1.2580916846597816 0.6171100101242533 1.5217667984900825
Ni 2.9508222938147544 5.193092441716141 11.818128998310597 1.3075221713767675 -0.5001520699792547 -0.2285358469250064
Ni 4.538127269101448 0.18570413935410518 7.436033575732588 1.2295290425307404 0.5207363218885097 0.000616807648392486
Ni 8.348501159490056 2.9590120010547403 9.142793381840365 0.5892721619763788 0.036063578491776604 1.1930391751348226
Ni 1.5918364294610072 5.495688796427234 0.29317497432839223 -0.6936784907086118 -0.5372191500348813 1.474450787012938
Ni 6.180489872185579 3.727769065511216 11.279047723562178 -0.1452444457945176 -0.5229089040597962 -0.6875399819110417
P 2.688540255551001 5.212210950200059 9.498136598467712 -0.715541095109658 1.5230448938715575 -0.2010828929203763
Ni 8.004974651760266 4.239069676778004 12.601056738021716 0.6803632616569444 -0.061180685274378505 1.4820296278014604
P 7.18574656322437 6.486974269727777 6.808446474930491 -0.3313987424295196 0.46757645003607856 -0.15114152800524291
Ni 1.1219623171062476 2.945390063759949 2.2309350783521715 -0.5125522434158205 -0.18283577378473026 1.1081516331618075
P 1.9839680683749108 4.269677673533508 6.110419619432958 0.5902928899314092 -1.041994063498128 0.5979552915726734
P 2.126750237023558 2.418050126866027 10.558891194494509 0.6687431609195128 0.5800820108366784 0.98633687914514
P 0.7013873010272069 6.475420440321869 3.3843666442547606 -0.07563311325428264 -0.383199786261211 -0.3827454723326118
Ni 4.153238603593952 0.03184610401164976 12.795180374381237 0.3355467031596221 0.20170612832667198 0.06425752442748933
Ni 1.6634848783226142 7.319732379652292 11.748255445597186 0.20571447815511668 -0.21733972109887084 0.07619438507439136
Ni 3.395630938556223 1.510352978638923 8.813602997996329 -0.061693363244738925 0.8401465244975853 0.9618142114134273
Ni 7.802640167502338 2.5697021804603386 5.391138129792052 -1.3669845884084586 -0.31758420514393043 0.40253602469597766
Ni 3.154241385765521 2.6963622991662963 12.466393501365303 0.17251356592311579 0.22790824064333653 0.15637963647573067
Ni 7.0224855306804495 8.878442316528664 7.1179420375589055 -0.44250433755879914 -0.13485487503007745 0.6173666062197497
Ni 8.854222475252161 7.542757134389691 8.035477864382734 0.09393962487295435 0.3103686612320977 -0.5017564383518971
Ni 2.150004961285247 5.957014729507933 7.3579133279173625 1.08566219381004 0.7529709578213418 0.3618796846271961
Ni 2.216588843716739 2.1493799331232726 6.728052227596553 1.879526547411634 -2.07383869726708 -2.0556661401231118
Ni 7.020104908710577 0.287997351333685 4.836854883321733 -0.9317981246673113 -0.5359202287177997 1.0903544570793866
Ni 5.393744864891111 4.939542414538793 9.006718316865138 0.8483578566637839 1.6706976919972518 1.1117604335589883
Ni 0.7890851862656262 5.13865065049006 11.583888664702005 -1.9287438896765494 -1.0122206888904375 -1.025924411629775
Ni 4.742300071482831 6.286974449486634 2.6060402148066473 0.36237127955163395 -0.42652107475666545 0.0075263902840322
Ni 2.556227308615423 5.349781486968716 2.8267477695494336 -1.1601915324771825 -0.2767111210786525 0.025121734768292218
Ni 4.089035343132332 3.768487811945715 10.194319620887422 -2.2219404100047346 -2.3313986993385787 0.9289190033473034
Ni 0.01316235776392832 5.687076096259996 6.4702418981681005 -0.6850447262930137 -0.7245049891711651 -0.570248055465392
Ni 4.936665446675589 1.4581998934765423 10.975390659293852 -0.9425633336036154 0.5507858329757224 -0.41408387743457714
Ni 0.16921902158203433 3.0347415161504148 6.922256749953508 -1.5372993469080427 1.1219096061778484 -0.3141245287301041
Ni 0.507397861890696 4.041698651453401 4.602102578115759 0.2056885100131877 1.9826727784845208 -0.2740975947152054
Ni 7.724530030436791 2.3859622840211436 0.8867063127344484 1.1563996695349181 0.8303763324846989 0.014401520137310681
Ni 7.755275901051554 6.171849777005348 4.532807176452174 2.684685757200757 0.9610382524793514 2.222456173298889
Ni 4.265559840936971 3.710957646272232 7.308326534855324 -1.238217571443674 -1.9278725428151893 -0.1553339688200357
Ni 1.3133588085296268 7.462551314663408 5.276021729742322 -0.4522704158066275 -0.6461380219254872 0.8348027436871688
Ni 8.593539773755813 8.242908166478877 3.8131350442100347 1.3521536940432133 -1.5944827380975701 3.018404148902389
Ni 8.522001623981613 6.944099645896386 10.684527370005704 0.5194271161587829 0.4356173806309788 -0.798756905807205
P 5.651320808758822 0.01847050134540081 9.499750641780103 -0.22880092766093496 0.31810485353409085 -1.7670430980982215
Ni 5.927371849767243 0.9462466792759279 1.2739636511440147 -1.707922380676665 -1.0544420594534938 -0.24956901344622182
P 6.763999619341629 5.63739554897366 0.942774096340724 0.04752349950226009 -0.12300851721445266 0.2359041143646195
Ni 3.605088905542535 8.635903814910803 10.23360172170844 -0.015951895343566076 0.7377582546366456 0.19839660433746475
P 1.955180006561626 8.822502296031967 7.166654710353242 -0.5361313162873411 0.12576319714145437 0.3141350702530655
P 6.278711209521709 1.8273065978941885 6.825491360571154 0.07138333683899319 -0.036261810545511745 -0.302811160599814
P 5.1797922100929545 2.412553555676901 13.278540388489654 0.05835118624538337 0.3608039350645141 -0.14310477374369548
Ni 5.830235120123951 7.266559027931394 4.912930002224615 -1.2390778625614403 0.7907556327692834 0.09843391319888209
