# total energy = -340861.42975256365 ev
CRYSTAL
PRIMVEC
9.27265243317864 0.00000000000000 0.00000000000000

0.00000000000000 9.27265243317864 0.00000000000000

0.00000000000000 0.00000000000000 13.57146413002998

PRIMCOORD
 96 1
Ni 0.15964447849928273 4.193807512602304 0.29539518570691536 2.1545669656560826 -0.5874554204826141 -1.0112274717392327
Ni 4.843227012052011 7.583138228510656 1.435453917331969 -0.9597087350346505 1.6558290024155353 -0.3263892050300702
Ni 0.6765438629169276 2.4050015488430687 7.446024441366718 0.7857908325648403 0.7455134731020322 -2.1859963878099578
Ni 2.8297817657285425 5.589499368200447 4.032244522274302 1.0716008306209674 -0.0009711056640176824 -0.7771349566620551
Ni 7.185322885467202 7.245233494096258 10.82981103826883 -1.3901800526883155 0.26663136824514727 0.5061725651417218
Ni 5.347575861137752 2.0753958385306683 7.882306456571875 0.381776166440807 0.2933600424892432 -0.44470520186485996
Ni 6.757835054014373 5.56121777768526 4.3193082295950225 0.9630894785814251 -1.3229333637255152 1.8194974592431952
Ni 3.684683247413178 2.9974684158520293 12.16560990327791 -0.992992951009077 -1.563610731109062 -1.6416583673421081
Ni 1.1432809784132594 4.460173731992222 2.6537506555051817 1.1193935246242142 -0.5763554539147107 -0.6953088272231832
Ni 2.583305386225535 6.974842943465818 8.201412742313671 -0.04205836262263079 -0.6075686462927214 -1.5243718402130975
Ni 1.7576220329715067 1.7073086198123584 0.12741366522986075 -0.11203222070860706 -0.3217877017023168 0.38844020872454393
Ni 3.934469963904357 1.0183041662940184 1.4870386111664062 0.7396881246695067 -0.7702122614002929 -1.5219262068860822
Ni 3.1907383145759747 7.7291546894426695 5.631899499606919 0.3066138221753558 0.7000545694382847 -0.4421158438711289
Ni 0.16751788784565808 4.884026683614903 11.458536758848785 1.4362902167828167 -0.1475440404619717 0.48215049119551157
Ni 6.209274197198661 1.3468713395120906 9.81254911813019 1.0795807635026504 0.33554361783582853 0.2909797151825247
Ni 7.146795013798152 4.837515058033206 11.091713402683663 -3.8436074218265808 -0.6170017666811632 2.7525587668936464
Ni 3.4256980595150934 -0.17465875763442698 12.772661725605342 1.6909839530501134 2.625489449346259 0.5089303303925171
Ni 0.8898575275614063 8.35866580370021 9.171799548887599 -0.5091108218344393 -0.6865002277926177 0.8091403059240582
Ni 8.926179962487412 4.630836903609274 4.412082973667988 0.28298152746839655 0.32771460870971303 -1.6036854876427606
Ni 7.098586492785545 0.9992210471857386 0.1494872148106482 -0.3720676809037915 0.08467234063841546 -0.7067656629098731
Ni 3.1592112956410126 2.372945988708315 8.083625945042126 -1.6922293954214405 -0.7014218820994566 -0.1319919516599856
Ni 2.507649813434254 8.389794098572171 1.1995381619069108 -0.42580013743024087 1.3852635892233045 0.148048490902216
Ni 7.0144278975344525 2.4907457676935376 11.798990545470602 -0.1237065717227418 1.0382523370675085 0.7048895289330829
Ni 8.879761063431992 1.360910135590777 9.075387143188696 -1.1339071448593567 -0.20429162966566108 1.3163294852557523
P 8.977559730698772 1.488075293730209 5.499170749890729 0.8349698653926524 -0.2518781211953727 0.730179156737807
P 9.258845648167028 7.383025112147298 11.013256561533483 1.9501863758210416 -0.026818405744424786 0.9323861359602975
P 5.60659813964635 8.608795608338623 10.043887892218102 -0.250950981395413 -0.8377733962797185 -2.7608400330658323
P 2.9150345339897314 7.665395929973023 3.0946606516369406 0.2210660209105225 -1.2743091749599087 1.0208613952845709
P 4.42573510013209 0.3700029487512403 5.802900195779628 -0.9796980336723838 0.5151945661346741 0.03329887126244588
P 6.816104403128284 0.28712768862385296 7.823799727550689 0.34001810866741444 0.915397828932417 0.6719092173523203
P 2.4377432852722896 3.5246372630551064 10.21981514873203 0.16566568976334697 1.713230680263456 -0.8282389744267219
P 8.282481689709137 3.7247781973763483 9.768115494002414 1.3192466589025473 -3.3368525018188278 -0.6003682718895402
Ni 4.5361909382359915 5.323504054915645 10.924444949193695 -1.183134000205969 0.4467075770068694 0.0653561568083068
Ni 6.856904074691177 8.188438446756672 0.9358573027180417 1.9802839665373704 -0.40236941721112635 0.7957687697131586
Ni 2.2846981536483044 1.189430970542467 5.260068911022714 -0.8282217480355413 3.0326879125149127 -0.12982348325375706
Ni 0.8588627588872875 6.770158409356892 3.7340795952274246 0.8501727983853358 -0.5675095734883066 -3.0184301170443177
Ni 6.289918457103768 3.001872925850296 1.3256851827877962 -1.2256826722014569 0.46309758832911857 0.3084267070143785
Ni 6.683060383222745 8.289018909811828 6.024006597692619 -0.7387041634896826 -0.5506765610913676 -0.776728722362572
Ni 7.186546875614089 7.331534072104402 8.216463184794064 -1.5234909802700407 1.848972328773861 1.795323175989837
Ni 6.08035650771255 1.7190477980393177 5.674378448560729 0.9404658276446385 -0.6419805481136879 -0.5651313030641171
Ni 7.971931280547133 5.601850541500849 7.2033943581737745 0.8742406379678169 -0.7349922618557342 -0.7697587188026421
Ni 4.85657963183623 6.886048021900761 7.475813765199206 0.2780915463659469 -0.12824713990557268 -0.10614516580021074
Ni 1.7598011063390704 7.452310372583192 12.779813722577263 -2.38099682198168 -2.9267798024261724 0.15982722870469895
Ni 3.61322818626235 5.785133793344514 1.5517747082230369 0.21549006948464178 -1.7423101141279156 0.993416668810057
Ni 0.34525516615255786 2.37117491205638 3.5739093573241383 0.7087438696821665 -0.06190470792459662 2.0727662901385076
Ni 3.8431436081718746 0.8578390580371641 10.311829535289505 -0.20927931268823957 1.7326759334722612 0.6079350284932047
Ni 7.936982652792466 9.690014722713146 11.283057371456787 0.9570291313199584 -1.032086317466113 0.3328686421068267
Ni 7.284002454733633 3.07317035190645 3.9479663098043094 0.19484565376141283 -0.5335105908350425 -1.0012225380077209
Ni 4.1483158788096794 9.0706942536937 7.879565460455059 0.3547302180666084 0.6608722428118683 0.3331100686936715
Ni 0.9488519981108228 8.495474520572689 5.198807276905769 -0.5669444450134559 1.042047799554199 0.20459347717679602
Ni 2.246142464021372 6.315473887746343 10.42065895012247 -2.3141118872336723 -2.363690726603065 1.2689291415949178
Ni 3.4266809606936537 3.2406066404089824 1.0819674174415976 -0.034305201039773185 1.2942231402750164 0.5370096051272365
Ni 1.0227272215975411 4.676875623906946 8.428693803611601 0.6513450200477234 0.15876073511339756 0.2401286939689284
Ni 7.226076193766954 4.532565331058471 13.43775849885309 -0.8122261439382333 0.7154652475664 -0.519629461977576
Ni 5.411158440207468 3.937576302534714 6.333910702966457 0.11814784668804168 1.4066204576325259 1.0207140710734293
Ni 5.726502810778112 7.208207792152933 3.5258121081430653 -1.1214956585688813 4.0147657592733825 -0.8872722743407946
P 5.161278997190011 6.6185134482797245 5.416099836792893 -0.8171575198015797 -1.101424084629987 1.0360818117787511
P 5.12114695661633 1.841576629864785 13.334628983590514 -0.4696415600952234 -0.12867214325813325 -0.29757330923964237
P 1.908627181017347 0.9941952694614005 9.242493325257675 -0.47752327683614537 -0.33734133316619963 -0.8297582392847259
P 8.478153205463716 7.187668866582069 4.796032919236898 -2.2198421327148092 0.004342850349728005 1.230095713667488
P 2.316419898288453 2.1103073756748247 2.695102977164699 -0.17691606586618566 0.013049891205422687 -0.2789451526154938
P 9.046844991134664 7.81314637694646 1.6049478074526389 -0.6133081198796599 -0.4662885844625905 -0.1695449702130951
P 4.775295558899795 4.2022363538410925 2.8576349596923185 0.21019051164859928 0.402366588997649 -0.943670193514549
P 8.287841282928081 4.342077228122905 2.0443509975323586 -0.6999486399880397 -0.5493591278315249 1.3507930662502607
Ni 6.432327856163517 5.578863635636211 2.0114942802105515 -0.3827804393356053 -0.5987245656385302 -1.2100375094650322
Ni 7.552723927891045 3.1749655324558654 7.754979027011454 0.2780761197469792 -0.4883458213729461 0.296318868007251
Ni 5.478867349696613 1.9368716809220219 3.2809287703615357 -1.7887324101461968 0.6375122279296891 0.5535793365604595
Ni 1.7947590067463663 8.96663654590307 11.330665951844367 -1.3824297193189352 -0.09075402805612114 -2.2791888501042425
Ni 0.9755016017634937 5.586244667128042 5.861461633451319 1.0153260672886386 -0.11572920994422004 0.42083765121864297
Ni 5.7310093199552865 8.660518464697216 12.021372864385194 -0.45543055870216403 0.7074110098033558 3.293513986932192
Ni 1.8689495004224346 9.558528508449099 7.174025085505332 0.03658319844067248 -1.3456760567386694 1.735025407541044
Ni 0.14541281124593572 9.084287962446245 13.447027442419966 -0.24062594532032108 0.2444165227110049 -0.007962449380186287
Ni 3.2739325539537627 5.402655417747657 6.294431457137782 1.4770905386286304 0.48137941735744194 -0.057666501473532944
Ni 3.979961597696982 3.348864859840065 4.672478532030781 -1.0622271027155512 -0.7677491445717809 -0.24472736908320433
Ni 4.6266178466635655 4.7170540277437665 13.109871938337907 1.6594676276093874 0.7314757640620434 1.6490407758491084
Ni 8.558510013137358 2.130521758403712 1.6663179316053311 -0.04744045287015056 -0.04934332631981825 -1.4033168471805895
Ni 3.7618409899301843 4.53884291688758 8.346939607186929 -0.8602597503076926 0.580129319134846 1.2779295453213153
Ni 5.747672276727676 5.475872282897791 9.015157555309239 2.825250538131418 0.7022657181569906 -0.7535797950499344
Ni 3.525777799328342 0.4623363145591162 3.6685432682490036 1.1877807549493609 -1.6662591966099236 -0.3090784816657645
Ni 8.881550685389184 8.67044947566173 7.214957356000804 -1.3217403718586784 2.1564616115756348 -0.8477755017977529
Ni 1.4209876519671354 6.406763152868313 1.2905677927552996 -2.0738492387900416 -0.6700662506063104 0.5846120374965481
Ni 0.6448656997441302 0.17778085977425104 2.593289251310027 0.9817652006140576 0.2040517457407131 0.2597153578516044
Ni 1.4723859654837514 1.8058861898998826 11.136268498560867 -1.0625477192797637 2.463858848884234 1.1860488598599186
Ni 7.978459227997196 0.012466154192989113 4.23656371386969 -0.4345948529037354 0.600407866878224 -0.6697392062841949
Ni 8.322335550703981 6.794248760884254 13.183157421117489 1.1742863200073517 -0.2606108730826802 -0.6448537558964249
Ni 3.541402219006404 7.933384863572829 10.052017226777009 2.321466784936847 0.1540918688828185 0.0503033762402424
Ni 8.320100841420649 5.740587970119938 9.599707431504473 2.6457805954951277 2.869642948203864 -3.5381354265651512
Ni 3.875208440959257 6.909155472249562 12.679615292810377 1.788192992702959 -0.8838079699412779 0.015553888574199022
P 5.222135416387115 3.630067323434671 9.857782044914496 0.5597695245315715 -2.310594360998717 -0.05161052508744014
P 6.159888049302305 0.10397981750855603 2.8053575987065753 0.5511414165429281 -1.9990386214370541 -1.059739046186375
P 6.161622035343728 6.538351366311269 12.974916824725751 -0.7989589945156821 -0.18722696087389046 0.057735921258887664
P 8.961286225336755 1.9130687816261254 12.93117586774928 0.20865890549542127 0.8528778560213247 -0.49420562258783274
P 2.3093448643333425 5.140434074082424 13.374949259012542 0.1758374880900262 -0.6009269726064876 -0.7694753832342683
P 7.465292086262293 4.100014631270792 5.805682918833269 -0.4604300687992845 -1.4202575887999864 0.64130100554816
P 2.270325542075013 3.5836947876423926 6.163236404166251 -0.5754077452894606 -1.0939540015051872 0.7786187402964333
P 0.5817773530594827 6.875579197083828 7.418067393693509 0.12467484917328206 -0.571291409128242 1.5683996678572731
