# total energy = -340861.82507859607 ev
CRYSTAL
PRIMVEC
9.32655327861834 0.00000000000000 0.00000000000000
0.00000000000000 9.32655327861834 0.00000000000000
0.00000000000000 0.00000000000000 13.65035346571265
PRIMCOORD
 96 1
Ni 9.282979375081194 4.716708337734332 0.59532320651163 0.7312129973189601 -2.0833407232202443 0.9663380674257098
Ni 6.326247553584797 7.636562968546782 9.590997182822454 -0.5481149710117785 -0.3159538686293591 1.4929010232983257
Ni 6.046367023682281 9.768631644503161 10.79587311780487 -0.6982686811824556 -2.4673180110774284 0.47905154055521365
Ni 8.857128963692979 6.39401428790689 6.1473549399002305 -2.0337058338019363 1.2363818037865157 0.7612383400364567
Ni 7.11816517143353 4.496694951736786 3.473673743681533 0.19347808398992483 -1.6110987493876963 -0.02193330973798158
Ni 4.9921774080532595 3.6549828672563907 1.8175306749912568 0.6057470197029504 0.3568814600816564 0.1656690321974566
Ni 4.536435394201201 4.915615734223083 3.801787475238348 -1.2880717759616396 -0.45187163770631206 0.48234820902861447
Ni 6.1669033950528735 9.219857264168459 5.423599502222097 1.0050964191408303 -0.0009353673300758085 0.2910727891169632
Ni 8.20549202998113 2.3387450911198218 2.6094016600748358 -0.5745795929612104 -0.17144732944213054 -0.10079084346683287
Ni 1.8915088936318898 7.844339916967864 3.584131841846999 -0.42633646954968507 0.6586991464199494 0.15272609888354344
Ni 3.1169620025662494 8.282678582864373 9.755347835021334 0.7098103632734678 -0.01789590644381434 1.5543215924976521
Ni 6.298174628961965 1.5293868191034152 1.0665211840463995 -0.2544790491533295 0.1679619419966914 0.36547382973635767
Ni 0.37838665035895863 9.881762732767266 11.406071243745387 -2.154667495789689 -4.0817188282551635 -0.6780986339924837
Ni 4.376923357714722 9.193127363182068 13.807196052156689 1.0594443977640915 -0.6692805214802215 -1.7916827510237723
Ni 4.326979666234567 7.50207407384205 4.159835711402951 -0.8191215855064861 -2.8091117235880265 1.107108279498958
Ni 2.696054664284383 3.243971001740246 3.5122492996723955 0.9636124409644308 -0.30251522662595 0.2458792232994604
Ni 4.337975672257929 6.408880813438051 8.744620889171335 -0.8643231217437888 0.19863751670367724 -0.4641836223044457
Ni 1.999864786744204 5.508504710393664 2.8833094654164015 -0.6834786673574745 -1.0203371473499847 0.5686449726443303
Ni 3.560178455697889 6.076351891676436 10.96607897999651 -0.09125436473130737 0.41984057741269626 0.2686674248385696
Ni 7.472975228385826 1.0790728591153056 7.130944414396389 0.3352029466669582 1.2805055335786075 1.5472047789472128
Ni 4.070070436447013 3.6632555197947467 11.21484333102223 -0.9696540191728203 -0.663256940993961 -0.268652255329918
Ni 6.890186909147646 7.936402321935298 12.564098970198584 -0.9355573345994275 -0.006614162882407963 -0.5321594761237868
Ni 6.1977089997137425 6.217928966684607 4.795983105841179 1.471006022997447 0.9853161511901096 1.2529577058673258
Ni 3.590741569979956 6.800400183119737 1.9553584756810294 -0.5578656226406393 -0.5419918888331762 1.8328857076246432
P 2.5011017262807074 4.99450904631097 9.19113800942059 0.1432202162756372 0.6882380364193309 0.3251507046372788
P -0.17810825057467292 2.816712280844376 6.619465986976719 1.8785166180898807 -0.8136212245135471 2.845878498794415
P 7.281249277730821 4.4613939485150516 5.86613045370597 -0.6744448392899804 1.348712015351516 0.07812245533503964
P 8.86000154202648 7.264088420154073 11.91928347737349 -0.35567664114027775 -0.8200703225730005 0.88701953490004
P 1.3828853240949603 6.219561113465003 5.223812611782537 1.585900652855514 1.2253453434666963 -0.9972293576879278
P 0.39929491694349867 3.883101027837738 2.872129726298332 0.22650107588316473 0.8061688820005599 -0.20289757753161183
P 8.417372661735783 2.5972025287104956 11.021021703901196 -0.3436706178183372 0.11944779644638784 0.6783043222453866
P 5.5199950237276605 0.4240699724146254 8.120813457048213 -0.09759341957545772 0.5893485237402689 0.2998631337150836
Ni 5.417458899706592 2.5660704946935473 6.720505199236339 2.1027517807570044 1.4604889255162072 1.482740537825556
Ni 0.26855156593595314 4.408521719383212 5.1645432999268435 -0.5181032551410367 -0.9263736112176303 -1.9364379158866976
Ni 6.770853663118031 1.8711303752595017 9.210971857095977 -0.05829899285120928 0.5305857038787636 -0.2598400563549267
Ni 5.858548898747199 5.669826098168126 7.188493909873196 0.7521698020762853 -0.03577124406233839 -0.4749927971048077
Ni 5.720329382830132 5.167497951927014 11.827853412701549 0.003685419271387201 0.309331478216835 -1.50533050731093
Ni 4.184218118991479 1.6703110353994273 9.618489063191465 1.8650016143225814 0.8777334816124238 1.0403069056036922
Ni 0.780394661579129 2.096338651295226 4.263564701556665 -0.690303917809424 0.1796254943775487 1.019704398861992
Ni 9.01221088748981 8.778478141983896 -0.10033412485048745 0.4056213484895208 0.13223980600473353 0.7638390108840973
Ni 8.260220243166108 9.204207308182708 9.400274769273569 0.2813866721774509 0.6598967662724763 0.504055518798719
Ni 7.160610314276888 8.721119840844223 2.049873764095575 0.4567338508946199 -0.2624147590606384 0.4709847043866792
Ni 8.211311799072375 5.91542221912927 8.857509487056639 0.5892441369519206 1.1333728696224417 0.07075238812321362
Ni 2.7559218081893526 3.0377515876753147 13.095083883282257 1.4467906020935082 0.3786383921427737 0.8474111764797985
Ni 2.0507411335274432 2.8015566321692593 6.514877088633562 0.7560557673942527 -0.6412837791569794 -0.6080851809178238
Ni 0.8314043780707092 7.648584895403536 10.34195817569155 -0.722629369415007 -0.4405299874412477 -0.7940633569862776
Ni 2.374503095440067 8.002098561484544 12.094703815364676 -1.0285309960146867 1.1008332451235237 -1.2434271406690716
Ni 1.2170032518884173 6.558180274355759 -0.2960219952329931 -2.188213707176251 0.7646411950704186 1.4824734002070985
Ni 3.21475091109462 0.7058727048967979 11.587334667210394 0.7780386994232471 1.3449623185010966 0.5315449824682394
Ni 7.111720523289219 3.929855038181345 8.300343074304786 0.028626148377124894 -0.1853253729758034 -0.8191789211069826
Ni 1.6504268243376736 4.97344968956733 11.957914060027235 0.9168556444248661 -1.1300219508723377 -0.2226732174966423
Ni 3.294539572273467 0.42605652821019463 8.053516780998875 0.7851830237775124 -0.1150697219833502 -2.9998567249175045
Ni 1.8443351884018948 6.941091235589978 8.332270663295265 -0.8912806241692393 -1.4348434570339612 0.10317657009019005
Ni 9.13628202245909 2.6037870751502696 8.987296866378523 -0.5253185419425533 -1.712272944335877 -1.6121665285305784
Ni 5.361508908074574 5.624974704642811 0.3019555482712143 1.1600074414908346 0.317415283666234 0.4852826090665901
Ni 4.691545297657122 0.16628311398686926 3.7767391517634175 1.1981744394788592 3.3453654243858453 -3.1252196012967466
P 6.220456462555965 5.4179998397823805 9.707025098457938 -0.6332688792723029 -0.1408386034173381 -0.6010084765767004
P 4.9879618060833195 7.582580879604272 6.364763419636262 -0.663728738424057 -1.0712074518372907 0.07261823768735881
P 1.3226078118566333 1.162256385597379 13.39270258439413 0.21635421725714996 0.4704177761396157 -0.228533018711529
P 1.8666443032516669 0.8619553678338361 9.579175776855863 -0.06977382626002822 -0.7670300070175693 2.881473108069573
P 3.417230377394185 4.823189593687447 0.5651816524265572 -0.9080308470443845 -0.9833343448733904 0.7974181323911235
P 4.769524607547986 1.8475715023035966 13.022901026100062 0.39033691152662453 1.1944615094036461 -0.6399424346377366
P 2.737800315650428 0.815903646933451 3.2800433108976312 -1.066029764291093 0.4619441914509657 -0.6887072627462655
P 3.9633746697741885 3.521221443688065 5.435516039029603 -0.6444863452546771 0.5234061554111888 -0.06545925804507437
Ni 0.7482255148651512 4.668779181708838 7.530872604290682 0.34050713248869097 0.24611447923871807 1.200203554093746
Ni 5.914023236174643 6.355309092828899 2.5108731558911197 1.2734689384468003 0.24857322519185576 -0.6281608686217762
Ni 1.3789401921629147 2.3073985463831646 11.467975306832294 1.1508162619098696 4.747897827991926 -1.2553940832229606
Ni 7.015050801124549 8.200567609980848 7.545491976166526 -1.2263653000907784 -1.5908345998220215 -1.7149738882068075
Ni 7.957610903527431 5.001224164493176 12.21317528789424 1.0699229286979122 0.11001261917541698 -0.21104206101561718
Ni 4.143815491261875 1.1975014295009285 5.723524659898498 -3.1225315129416225 -0.8650851967207941 -0.1574345601028063
Ni 8.788093818158693 2.0751673759152167 0.3127081312604712 0.8454319412662408 1.3261194747629808 1.3945067050881275
Ni 7.960017154209388 6.559364746590675 0.7476668543386038 -0.5758533174673116 1.221928347365347 -0.03402417946424463
Ni 8.916408534757007 6.109050786602565 3.0035278013286426 0.23781624378566787 0.6184888927496509 0.37803444001018766
Ni 7.458845500544101 1.134342012376071 12.66408801258693 -1.1327406353550815 -1.3183313461771295 -1.9884973555860979
Ni 3.505524854937159 6.844645350698048 13.521616998352329 0.9292774151279866 0.02721769806537248 -2.461269490890503
Ni 3.3128196162139165 5.876884902005833 6.052156947803827 0.9060390134253364 -0.8932945692754743 0.2957162014262455
Ni 4.4374806665439746 3.897836981626467 8.726588931541508 0.7733418081682101 0.42779711325561165 -0.0733761988993059
Ni 2.242802840091558 2.8661616650138964 9.012891725861062 -0.5783619428217781 0.7535677108650763 -0.5561751223120938
Ni 2.2269476999391276 9.036133496013917 0.9997309398266359 0.169052861068025 -0.7155017572312903 -0.041181102224000045
Ni 8.9840540238897 0.0740985311747309 5.738894819293324 0.1442622843869064 -0.8709231435588097 -0.8350518835834975
Ni 0.3646719541271065 4.354940672221029 10.211378972017348 0.0382227909266245 1.3017119924528937 0.10933153394799236
Ni 0.6051692485462892 0.6389406970709655 2.4910393082157327 -0.44479467625487273 -1.5605223219917252 -0.47598729980759313
Ni 1.5557809641806961 2.662059378486966 1.4062324842970655 -0.45737456980241226 0.46116103342803805 0.529492727924901
Ni 7.708032344422119 2.346318252180865 5.257269755470074 -0.04887949930952227 0.5496218945746082 -0.7719708959626124
Ni 2.4239338265035264 8.089805466186576 6.528677589153298 0.6565882707245337 0.36849101929612665 -1.7453689555588974
Ni 0.9167964323104859 0.6660669765611673 7.745770375950811 -1.0481593117685757 -0.4579276140924049 -1.2092348110580786
Ni 6.251523210701697 2.6238951234847634 11.32111100891094 -1.013587744441293 1.7982069252955353 1.2626224826505996
Ni 3.748453581731482 1.6406712498674134 1.511189781484941 0.07463552522770373 0.6316364858752025 0.482813321590491
P 5.0270214101764825 8.256750765438635 1.8852638337224386 1.758613222163313 0.9581953837139175 1.2612289447371827
P 1.776801617905573 0.44637628929848855 5.3133727025717965 0.444783363400963 0.162060746020908 1.0417184412392382
P 9.050496387681413 7.829146962080624 7.946416241924512 1.8629794416862302 -0.08112267561394415 0.18887246689711343
P 7.7966719044272335 8.123530281946097 4.433893674248313 -0.20842107845300234 -0.9094326124879177 -0.9080838117695069
P 0.6930822700703021 7.650170409418779 1.546830271236998 -1.1376910373818214 -1.013831227910667 1.7365487861641062
P 7.075953192415942 4.502775864312895 0.8315368151237472 0.5896699116354297 -0.5260770173751327 0.524014221308833
P 4.663024698488809 8.257086521347745 11.776119023039472 -0.22964990592479156 -0.9672726634248374 -0.6138506226466912
P 6.337635274835454 2.1264540910318126 3.8066736563712054 -2.103922404026338 -0.7607945676308188 -3.044086127049525
