# total energy = -381172.4945235672 ev
CRYSTAL
PRIMVEC
9.18542557073451 0.00000000000000 0.00000000000000

0.00000000000000 9.18542557073451 0.00000000000000

0.00000000000000 0.00000000000000 13.44379879981433

PRIMCOORD
 96 1
Ni 7.83828198379402 4.321421303263596 6.8692838701294825 -0.39721846913780623 -0.20747671226186204 0.6633785541734898
Ni 5.673368999903195 7.112660909550635 9.806861086000536 0.5287257678518894 0.17658619333059267 -0.8419740646246273
Ni 7.144286330245344 2.2341251665613555 11.177550725244112 -0.4126543440769022 0.44868269845536923 0.26774696990682917
Ni 2.456632918785766 1.4638629234024056 10.542008365240287 -0.23638105400103807 0.6243445801994796 1.741712846863549
Ni 4.25466162925571 3.2100674620572027 6.404343340246167 3.2790931835211725 -0.8609683463389431 0.5635888982776617
Ni 6.300641721146796 2.0068593638228993 6.567497627206853 1.241148886157856 -1.1790971111324338 -0.5104015156214049
Ni 8.325642300732708 4.513075210552331 11.460583084509354 0.16746186243182126 -0.6505819166294537 -1.085142059640512
Ni 7.378174824915512 8.909174024779619 1.8704897782115522 -1.2176921977968125 1.0505247266769584 -0.6894765368121223
Ni 3.44572874388801 6.913263688394447 2.7369151615955922 0.034383876796508527 3.8749152308009265 0.7817997091275761
Ni 8.468071511680186 2.8652925083029404 9.19750821176051 0.23432905656801575 -0.09725223418595509 -0.013874443989247075
Ni 4.3731444353960125 7.418930558758797 7.785237068902973 -0.450757578706527 1.4827197118899496 -0.37710318644516994
Ni 3.711876453626381 8.785657605354187 12.583624461379978 -0.02460468592255763 -0.7173876614000935 -0.3932548565043679
Ni 3.3267039976312436 4.777698139624039 4.614408826905522 -0.8664293694535142 0.0768782985152934 0.0701137260979502
Ni 8.15566599810256 0.5458494336437804 5.675407245866644 0.3561337832823544 -1.108939933391058 0.26524194409678836
Ni 8.158320586130666 2.19514221987871 2.1463832246205845 -1.7536044560948123 0.5345588295938988 -1.3303800498115474
Ni 8.85925123608495 0.7451107104995675 10.494243233043203 -1.1837459227583549 -0.18221125282685394 -2.301200064268011
Ni 9.135851960273095 2.24444039962559 6.721483022231013 0.636980009575303 1.3544499462765576 0.7108236350293307
Ni 1.6018555737354356 8.408256019503611 9.84113007221251 0.2267561293167643 1.283055553693971 -0.5808080903694255
Ni 7.536944908188256 5.567405928995798 0.3887501793063746 0.7008205010700317 1.0848373839158996 0.5931884663116493
Ni 2.332308181898489 3.590628834349539 6.780756574291122 -3.8684370792757505 0.12061379173003098 0.39310701807259396
Ni 5.42517879741378 1.159669180403074 1.8527977297654061 -0.5298483114921069 -0.6842371427900538 -0.17869038415778904
Ni 7.4911739319112485 7.643018204204087 3.8502640772646313 -1.0690472109611782 -0.706981378465105 0.9515297987682837
Ni 3.105776138627713 6.2359120262192285 9.382480640393036 0.5731096932839033 -0.5145155377897784 -0.007923882832767
Ni 6.964665330627264 6.307255227652806 11.599283012621498 -0.37501725045041867 -0.02547114768791097 -0.2655805583831297
P 0.9044695795598597 3.697317553887457 5.074241341555515 0.07493762984915482 -0.5993205473513162 0.0663372897746535
Ni 8.047875027480305 3.0006856831620805 4.578608630228894 0.8560320853795903 -1.037913465670851 0.821496770606882
P 1.6380277801530267 3.653659225522091 10.232250091350204 -0.15144311840606176 0.24047013646874713 0.4493887233834583
Ni 7.069783342370005 0.9607679722348365 3.7397156418464004 -1.2470146009100136 0.5562995637051 0.9858594252880893
P 6.961808663233697 8.381673397519734 8.542324655976408 0.5330539629135981 -0.9557474363940573 -0.7914112640754112
P 8.36276979142339 6.243140956247325 2.429468859354902 -1.3691242604592808 -3.4547213838138697 1.2525206183299076
P 0.1025102693857185 8.36898832462418 4.466245154691792 2.3658936477916543 1.0324030773755832 0.5422518273627823
Ni -0.1625930574502451 -0.063282990379379 8.161205728343912 -0.01766784959340828 0.7091313349285723 -0.3659312289887504
Ni 3.9350822982042035 1.4027522862017365 8.053171343940535 0.6856633337136192 -0.3164837729909001 -0.062257463278325036
Ni 5.491736392056205 5.310443644960218 7.731300249176183 0.2574594719378921 -0.04634336315122987 -0.27571970369966065
Ni 0.7361567575244867 6.081293755364146 10.444165210654157 0.4262187130248983 -2.6647417099786623 -0.3218589212598844
Ni 2.074794772320742 8.502002474226297 1.455291084136561 1.8243172492293418 0.7862649439877815 -0.8388396327607037
Ni 1.489609671647329 4.557661266913679 12.533196474271655 -0.6506618779377698 0.04628782732294609 -0.9391697345410341
Ni 1.0621567011422441 5.570933132465669 6.16973562674347 0.2527728650955001 -0.6409083980954317 -0.07759100831160186
Ni 6.151993976998529 8.981472510486286 11.474618414983219 -0.5168878946766968 0.47692729512335924 -0.8318809420546834
Ni 6.157119444540686 3.163286088952888 8.462777032305098 -0.1277149215511865 0.558325078775561 -0.15481666286398496
Ni 2.486347770934295 7.026446503904237 11.428075862947175 1.0465832255307073 0.4720648248247354 1.9584082495102013
Ni 3.9628314692523356 9.026784215478155 9.963320116166459 0.9168523019907564 -0.8822375401303645 -0.09199021445606738
Ni 1.025938567596139 6.151249957516603 3.839656747663048 0.1627264046293649 0.3028934359009751 -0.7586638944410611
Ni 0.9414142802790557 8.891841126478452 12.02649991768602 1.9157752453310235 -1.0050804783012304 0.6501715685649124
Ni 2.9801011441621257 6.308899418853605 0.22165350763405106 0.13669295668008072 0.12358290166068396 0.5285452764099672
Ni 1.6997538408757826 2.110820011927088 8.554450336446664 -1.4390286987599024 -0.05088418844437688 -0.9064789291762323
Ni 3.7004681549035148 8.987654301984266 5.727932265662914 1.788226674154372 1.8814659305261918 1.7319729938679658
Ni 5.4542139280603035 7.244683033176851 13.104854198512568 0.20709798876620464 0.07450928406248458 -0.6052135157969835
Ni 5.347121049791462 5.733891769858885 3.570659718871671 -0.574244835329611 -1.033735937254394 2.3313138529342563
Ni 3.802784611806904 3.870508755513583 8.886875485343522 -0.8640138180334862 -0.5559010427151007 -0.15415074714521193
Ni 0.5204691838843983 0.6934610617727733 2.8084769761608968 0.5868401554961183 -1.3343686021456505 1.8327404402960308
Ni 0.7354292718088257 4.665847210841153 8.358978047693277 0.024099721261681077 -0.6624174758118011 0.8142251766461333
Ni 4.79241319159991 2.1928917905815264 10.641345070045691 0.2690790584546915 -1.1578775396320253 -0.6182556936929223
Ni 7.065401894309775 4.33325213156879 2.969869498471787 0.3420137989412045 -0.11903950526437564 -2.896317115060941
Ni 2.446381983701451 1.380495999723874 13.013879905266984 -0.359430194645439 0.3918888293947767 -0.055559739543175286
Ni 1.218713096820615 6.992873772960537 8.107229411286601 1.0598758288745553 -0.07735215282791841 -0.36617934044381456
P 1.271464996631744 2.802693832138419 0.5784714730272428 -1.6749310133523092 1.4212623759154168 0.5340397238656351
Ni 1.7888340993414504 7.699637168236092 5.641663666004871 -0.5039848134617836 0.10896463752687686 0.15817426648230826
P 6.303865805568476 3.173785030531178 1.1596939810524716 -0.33351527455189006 -0.6843806103464536 1.075290877878045
Ni -0.03472825749711244 7.796800601320215 1.5056786553717916 1.9577086523400153 -0.23187416726962004 -1.9691204937213829
P 5.0194493586957964 1.4094484615390712 4.931830501459443 0.022814941011986514 0.17551224354012354 -0.6900033558498697
P 0.5934473910930733 6.706554868378836 12.773316361738598 0.15683420751464602 -0.35220050966621924 0.10541702938493458
P 3.30480594275579 5.491433273008012 7.2591408932330435 -0.5408508332501976 0.6081916245887009 -0.24978035812607952
Ni 0.8037954767721291 3.226013361077248 2.920369239359446 0.8338930873887058 0.7272902652257862 0.567850501767493
Ni 2.875791449881231 0.11657499322183218 3.6146744417543055 -0.2277758288305303 -0.7321601917235777 -0.687968327697712
Ni 1.6958041078235826 0.8830427370229591 5.515574408840088 -2.167704531479305 0.25257051927670693 1.2252718099162834
Ni 4.630703772102274 3.1464308327882664 2.6599495610893356 -0.26279836765230224 1.7091133156609726 0.3821014109907097
Ni 6.327472349624649 1.08837190609801 9.262266381507759 0.42337430159756767 -1.3375099759881095 -0.3248791961434469
Ni 2.5816465626007523 1.847850459481883 2.0644161598191584 0.7257440037845889 -0.27920894779984173 -0.5513414483688762
Ni 2.9799358064994754 2.462695299749608 4.45959031377012 0.28032969166784627 -0.2561392104645718 -0.6876381980518028
Ni 8.049758039749378 5.358152746060514 4.73198870569924 1.3840340876915778 0.5800380449726203 -0.5523837735904616
Ni 8.565767699455073 7.699306492910791 10.383613965878789 -2.554872044139013 0.6946421401734618 -0.903054991096348
Ni 6.156696914958357 8.467189710812718 6.384756338477535 0.2051182393320145 -0.6138089707754784 0.20496165914949216
Ni 8.47058831832275 6.947672293077102 7.035516193243174 -2.474815090785422 0.3023997840940082 -0.7413763110052071
Ni 4.147780015778033 6.868989936506993 5.378325777988985 0.7707876742877887 -1.3656748684580995 0.17353120855435275
Ni 5.869294130143728 4.522205523700905 10.210417252997242 -0.345237962305457 0.39584215761556985 1.2357390279961942
Ni 0.21933786181437745 2.141343181537463 11.985307876121855 1.8270143364455307 1.709604139254462 -0.1924208463700041
Ni 5.778780945268426 3.7108936130761827 4.886874272442273 0.6511982100572139 0.2918644317803231 -0.41164210076230395
Ni 7.649493929324556 5.351373901891854 9.130557480898007 1.085326664847492 0.8316719113676709 -0.2749856537471135
Ni 0.9614660645882486 5.288903821687173 1.466826141734126 0.3883517627757957 0.09101165259288196 -0.5144558881964365
Ni 6.935281153804037 0.9583246489978939 -0.07225806983357615 0.2119244636205705 1.553241472059596 -0.01464603204794897
Ni 4.722916260732593 1.6815115854300398 12.977608496251802 0.5025791913635087 0.5310842407817369 -0.02414420134637132
Ni 3.3277235798842537 3.6612463871525964 0.3878307181935252 0.19068638017740064 -0.0038463703292836984 0.6416046528315079
Ni 7.995876332576807 8.279457980299075 12.713532100009411 0.2424786822583437 -1.9337176887420569 0.3301887812818184
Ni 5.253392965920182 8.591817566748187 3.6353508350112884 -1.0211259617998671 0.02750591872975263 0.356284964148238
Ni 6.0501184205288725 6.93572205423777 1.9825969803715466 0.867220755006558 1.3443146576147686 -1.6906096004298303
Ni 5.164422932562948 5.186899669257677 0.6620533356672198 -0.9430551856383693 0.01466634376292313 1.9990759024328928
Ni 6.020624018597211 3.8077814833892227 12.648880481200317 -0.6793307066273719 -0.2550575473646188 -2.637174598993671
P 2.2314522076818433 9.098044748080408 7.814436618669575 0.5078337548942287 0.18727298362047748 -0.8363253509792823
Ni 9.36867494556174 0.7892200432669403 0.463911762204603 -0.3765861375994353 0.7742722904022794 0.6629085565156067
P 4.487548912524275 6.1161616313319405 11.322784246658651 0.384503335563983 0.5437515518367603 0.7190282823273101
Ni 8.09975431184967 3.32738371913325 -0.07373324920144439 1.5805005648858652 -0.8752711361148603 1.7374669271030012
P 3.2962451260007883 5.0316384186034 2.414130116973811 -0.4820738723213052 -3.840418739685954 -1.6567183469990243
P 4.450099931933996 8.421942303800769 1.2248057896892763 -0.6759702747955714 0.08707760764579842 0.5745806214024749
P 6.534236282194476 6.000177260982799 5.935329992606234 -1.5093805090105874 1.0947158193718758 0.5747495428801714
Ni 3.8995898132886193 4.087404212633588 11.363370968669003 -2.4347339064938196 0.4688997968331925 1.0730349919643327
