# total energy = -381172.3467441198 ev
CRYSTAL
PRIMVEC
9.17955183898835 0.00000000000000 0.00000000000000

0.00000000000000 9.17955183898835 0.00000000000000

0.00000000000000 0.00000000000000 13.43520199967464

PRIMCOORD
 96 1
Ni 1.8279884139213904 5.932891224292911 9.185405635984011 -2.2000461810348044 0.79071732333218 1.716210074606754
Ni 1.480386324555972 0.202835967139276 12.242693011052513 0.06022320645711563 0.09425047124515382 -0.20450400278678327
Ni 5.1451755221611 2.7835705804740796 5.880709143927245 -0.41015420336286784 0.2654905697724847 -0.15348200321296146
Ni 2.9481415857859132 8.110510408535426 7.902062063403756 -1.908248597936675 -0.6934946568325798 1.0388496043318753
Ni 5.142926531961334 2.4413293493807555 13.13442772276663 1.5118199716900158 0.1025664473100169 0.7830592925662901
Ni 6.4176633567403645 0.2972742784705799 13.250266323292681 -1.3991053802024032 2.523656280657841 -0.8296559093789068
Ni 7.298579048660833 8.091921816067975 7.09185186949837 0.36309581642248434 -0.6049296660079776 -0.2291020038411216
Ni 2.8248785637350817 3.4879175928333512 1.3707531010709044 -0.7785953432576656 -0.6673555365433668 2.1756703232936014
Ni 1.6148208611909458 1.5073833865049961 5.099465025839659 -1.4217434293168933 0.5531594754142215 0.3822147966401224
Ni 3.363562204114062 0.7938990482483907 9.523449058022834 -1.6958806190207827 -1.8051257639025557 -1.7130879840380044
Ni 1.5911008992472948 5.566590387838011 0.39202010478838245 -0.7374720908547944 -0.25010611689661444 -0.37285186736798365
Ni 5.701070822232165 4.929979288474949 0.006860797042060727 0.8897158507852806 1.0632298329484526 -0.8259797460789001
Ni 4.741146727661152 5.289808540885623 5.954307118725782 -1.4323970523759977 -0.5352419717038523 1.1373490806613702
Ni 7.850270113991111 0.34407071577419435 3.5342908527973362 -0.9006600085016101 -0.6043136296905335 0.4799725097075863
Ni 8.366831034445866 2.513581601880167 4.118695087004777 0.6486399624117345 0.08308879820137947 -0.4420685355729612
Ni 6.81447702349739 7.318269187348577 0.35562960744580635 1.356807904985773 -2.32652594462731 -0.9724472656472414
Ni 3.501338097617259 4.041692416430351 12.732849868606834 -1.6536260812269457 -0.28895728543585714 -0.5554904375402432
Ni 3.5269949449982594 7.556753944042097 10.065209684177166 0.060316023281238064 0.5671835576074554 -0.1894432517989189
Ni 7.720645662518084 2.7674053896912736 8.891726070012323 0.9294365664136702 -0.16432305969252345 -0.6879169056344862
Ni 2.6919770122566833 3.7788910269238523 10.254605869473679 0.16288349903251947 -0.28979160841169443 0.16684839721753844
Ni 3.615421567832312 5.71652000797178 1.4480192247830177 2.1342449662692795 -0.20999176537423192 0.8387100491613748
Ni 5.1756424547040485 0.010927338505310531 10.719558431552505 0.8396233050042636 0.3537552557478488 0.747670371544035
Ni 0.714204933075714 3.8734771290397125 5.087185539348938 0.26670155936145035 1.5474876002949542 0.957322494190661
Ni 7.252259030097495 1.7727734096291836 11.032396640160647 -0.7813513087362479 -0.1874218504935159 0.8382742471755371
P 5.707753535968611 6.574202254195892 7.4062092939353334 -2.303250004818504 0.6974346153169344 0.3239443430340034
Ni 8.647807936587204 1.1337848063406537 13.08841246532424 -1.1031426099829904 -1.3293657496144202 -0.38010546360660347
P 2.4160947613842008 7.140121624871627 4.5004166525886005 0.6113278562248374 -1.0222361641449105 0.18686392110751687
Ni 3.0047335228534866 5.067158511108819 3.874389576492189 -0.7364446780315446 -1.0413314902134645 0.27235155855837606
P 5.241138557052326 3.9597373776405216 1.7309109814373 -1.283441219168164 -1.3288178475307502 2.4999219131553785
P 2.304498949716644 1.9784320889579614 13.265434614746122 -0.23105475669211822 0.8801873424695551 -0.4651578132922569
P 2.9334267641931606 7.501750069442114 0.4196918637973362 -1.3717071906951088 0.09816163337410191 -0.6237290581026678
Ni 4.762296415090786 7.747018514942276 12.704004962873267 0.9539178393844862 -3.5061277633103036 -1.9090260995326478
Ni 7.6398564268113995 8.622040934584174 11.5474484422936 1.124781785519321 -1.283627109926725 0.7700479679082868
Ni 1.8028731600987007 8.418126370104194 6.00248507858068 -1.390597085621076 1.087262448417624 0.6276314784808674
Ni 7.697687603376803 1.852020480627458 1.8087948889879615 -1.618824143056412 -0.2075661866518748 -0.6431581133615569
Ni 0.13346976573703342 7.293209010836903 12.954503917009456 -1.0464713825431913 0.7847256245251195 0.3172967558104987
Ni 7.452189669080747 4.329820189451762 2.2598009579626885 1.1196390649761168 -1.892538900510902 -0.6948804814365129
Ni 6.925476164295621 7.6125197214444515 4.567015219112355 0.0062961174213568985 -1.0041651655758126 -0.9250957729464713
Ni 1.7772071331658645 3.4071008184711586 8.08460571325486 -1.3050737098362748 2.550395753535214 -0.8181957312581069
Ni 2.311906848048117 5.639255720170033 6.54051146304822 -0.7878700836913721 1.0988599234472365 -0.5384666492887372
Ni 5.777536489024198 4.145944586629285 8.613146866810489 -0.19301759941373856 -0.07455942057412965 -0.03146644603939742
Ni 9.084414960552328 9.049385790747 8.39076763381284 0.6310268773156615 0.02144351458575662 -0.44642244166628275
Ni 3.867758268246023 0.39851004793627776 13.174666288238763 -1.296925626807844 1.5506706260086263 0.24645849284169813
Ni 0.2800607828681284 2.912625899733287 0.8850519979776698 1.6269069200645465 1.3497155169153658 1.1644513361948012
Ni 1.7842570289757422 7.035814377361677 2.4591927572531804 1.6576681125068031 0.34508626721894115 -1.4973570021871503
Ni 6.104658998243995 2.208242169166672 3.8523430468482 -0.5130060431237875 0.1642343566334591 -0.9199576803889575
Ni 2.2316683854515786 0.6269624724284767 1.7178925410237993 -0.6948874234150484 0.2974514389497974 -0.07311343215622247
Ni 0.2051969478714382 1.267117796755334 10.185226816698867 0.8064383336118627 -0.3687247325734876 -0.03160502849979073
Ni 7.423035412450314 5.82526097901841 8.322247787089855 0.4380187909836199 -1.6925039892390659 -2.13116401335111
Ni 1.037867669208606 5.10973327252316 11.43423060381666 -0.6678090791410176 -0.7700369121646933 -0.1803744567284313
Ni 0.255908464033012 6.745602846073546 5.253418961498231 -0.8844137218460768 -1.6892692843518522 0.05390189222477814
Ni 4.090279784297125 5.490097182390471 11.147925889789835 -0.25305054423691903 1.8773943315599797 -0.622138059466464
Ni 7.851894894666043 4.149506252741567 10.802144105553452 0.24071516260001768 1.6767156160565575 0.7073978971772333
Ni 7.411588511311099 3.3992890198589114 6.250217315793565 -1.348748010795774 1.0573787734843145 -0.20174469487409125
Ni 8.807302649733852 6.548756536507115 1.8801218426623263 -1.9106674917908126 0.7611421807782246 -0.14025110634498428
Ni 8.377424237264353 5.142917352409499 13.27893681754137 -0.84345887670027 -1.039018782919888 -0.22131027571084466
P 6.666860650426239 8.862701245062775 1.7380848011969607 0.6351218733206416 0.4654761158636242 2.514403394601005
Ni 2.9195564613692997 3.4896433485784772 6.010694351787417 0.4652105209070633 -0.9871984558144868 0.04962229101281777
P 5.535251397870665 2.1053577521912685 9.683569816604683 -0.5013311778890205 0.0901935275669608 1.190608711316459
Ni 3.9079830643904034 2.612610607084543 8.263455511447248 0.3566657445264244 0.555927525077662 -0.8599823282765897
P 7.304059241106792 3.0321895623943 12.950620966582921 0.6774170345444268 0.028239454461667493 0.09489710369021721
P 8.01963284536122 5.566691362908206 3.930602398068945 0.1346065064646972 0.3258287045409098 -0.8366462246538107
P 1.3239025044114587 2.5035299926199897 3.0490120090885475 0.048267833867452356 0.4106319143302347 0.019982099548881718
Ni 3.133568532868636 0.1707249768625398 3.9578087537998248 -0.617237279730737 -1.8004648680917765 -0.39806641896039835
Ni 4.384842423155416 1.6076516312072031 1.7987184949378274 1.2647611262601572 0.5150822089265259 0.7686544299948698
Ni 5.6980323905745225 4.566533292640977 4.0192888022199496 0.0562181990627806 -0.81980935560213 -0.5587943051024956
Ni 8.980906334052092 2.131675527304445 6.927216607323685 1.3016114623192874 -1.2595685263156242 0.0005432740979797095
Ni 5.045182664013966 8.856091967741014 8.007541539683134 0.9538756732926411 -1.5886165091247801 0.6309446020145005
Ni 5.299125785998938 9.148212845810988 3.530784263996069 2.0274917345714245 0.6759566479488165 1.2630387442524118
Ni 0.4701050445242473 6.954997602999485 7.688952341849876 -0.29232954434219977 -0.14949807886454897 -0.49845051390711576
Ni 0.8317536841087736 4.82125667653199 2.6783747523464267 0.12612083759118925 -1.9152006037744758 0.5683636939584857
Ni 4.479300011545575 8.28367347436555 1.7356935279437407 -0.534697412054292 -1.3354677487470998 -0.9418408536152941
Ni 6.311198914549007 0.3919778788499379 5.603594079243218 -0.3720939061560366 1.6381449548722111 0.3470562464611184
Ni 4.515917243818495 6.772792678611122 3.843811571372028 0.4065369183252547 0.8127642758298905 -0.35128596827174985
Ni 4.179422412174369 7.675234419586489 5.958149679124238 0.8604854931652536 0.1858046266050671 0.08977212375882604
Ni 3.629778386903469 0.8205197485721479 6.396540290011055 1.0494289225096185 0.9972095601935858 -0.6521775432513478
Ni 1.7777487267241756 1.242929677668058 7.69300970376129 0.5573747990471497 -1.4017109361460502 0.3753293823741988
Ni 0.6649814222667199 8.48282385144276 3.7701061958170126 0.27308817961408455 1.412207464802 0.6272334717115005
Ni 3.5481997097389075 2.4128452000343352 3.903100460768953 0.03773942353230275 1.2368685136149473 0.13818291096204588
Ni 7.092920369332055 8.612127018601534 9.454768569142725 0.05206920989141355 0.6325098896190913 -1.3842220353326675
Ni 3.6526905482855723 1.862586144790439 11.309376765432688 0.02415885663439065 1.5059056630881098 1.6772763736560337
Ni 0.04621445371722603 8.932566814084884 1.483394463692557 -0.8141855816574494 -0.443967552367887 -0.2023692158319676
Ni 8.522213308370084 6.451526723462551 9.929702975887773 1.7441679932722605 1.6490955403464436 3.3717369724008384
Ni 6.2139140241934285 6.196959391952746 2.3664095191178673 -0.26161026088147205 1.5227065366955326 -0.6018173456312409
Ni 7.025166097232175 5.698078288333701 5.872688051533142 1.3021683632640217 -0.13405217662312396 0.0535535077464239
Ni 5.753375908592429 6.714832988320016 9.74899890822456 -0.6638585791337018 0.06555464597235808 -0.4951795564653278
Ni 3.6591254141224527 5.233556247235974 8.545608314178748 2.988518931307182 -0.2865476475531001 -1.1556100837540872
Ni 2.075726158865376 7.056486728095851 11.781986909652918 1.128067398249128 0.42343549385280627 0.243083148611562
P 6.418893416686359 6.133179865797758 11.67768975964999 0.6322581786196014 0.026093611763258286 0.4206782428226432
Ni 0.4248737208086331 2.8128441712783765 11.958632697449536 1.270059141434303 0.874210813171146 -0.4589257163396161
P 8.634414970458803 0.2480278187819963 5.906733173381677 0.4881301058177142 -0.29725063579290095 -0.693073253024445
Ni 5.576357430991281 3.8199787009407964 11.27808642709007 0.13737944122414406 -0.9880080961999759 -1.138338184047517
P 0.499303363003491 3.4949766681950645 9.743961170177085 -0.21715640144347118 0.026230908672070955 1.3680233140856182
P 9.004800707480623 4.9793469182477645 7.010031770120527 0.5842657099007228 -0.45494307754278424 -0.9343080355733586
P 1.3131807878672697 8.36973177282597 10.136658725890948 0.29623864958861884 0.23763318124058427 -0.7007140573991546
Ni 6.042752100663505 1.652750769376382 7.6823825366010094 1.0578922227856233 0.18321603994228447 -0.7128519783132692
